MODEL 1
REMARK VINA RESULT:      -7.6      0.000      0.000
REMARK  Name = 
REMARK  13 active torsions:
REMARK  status: ('A' for Active; 'I' for Inactive)
REMARK    1  A    between atoms: C_1  and  C_2
REMARK    2  A    between atoms: C_2  and  C_3
REMARK    3  A    between atoms: C_3  and  C_4
REMARK    4  A    between atoms: C_4  and  C_5
REMARK    5  A    between atoms: C_5  and  C_6
REMARK    6  A    between atoms: C_6  and  C_7
REMARK    7  A    between atoms: C_7  and  C_8
REMARK    8  A    between atoms: C_8  and  C_9
REMARK    9  A    between atoms: C_9  and  C_10
REMARK   10  A    between atoms: C_10  and  C_11
REMARK   11  A    between atoms: C_11  and  C_12
REMARK   12  A    between atoms: C_12  and  N_13
REMARK   13  A    between atoms: C_27  and  N_28
REMARK                            x       y       z     vdW  Elec       q    Type
REMARK                         _______ _______ _______ _____ _____    ______ ____
ROOT
ATOM      1  N   UNL     1       2.636   5.472  18.466  0.00  0.00    +0.000 N 
ATOM      2  C   UNL     1       2.268   6.793  18.811  0.00  0.00    +0.000 A 
ATOM      3  N   UNL     1       2.375   7.757  17.938  0.00  0.00    +0.000 NA
ATOM      4  C   UNL     1       2.032   9.049  18.218  0.00  0.00    +0.000 A 
ATOM      5  O   UNL     1       2.133   9.947  17.389  0.00  0.00    +0.000 OA
ATOM      6  N   UNL     1       1.560   9.361  19.463  0.00  0.00    +0.000 N 
ATOM      7  C   UNL     1       1.396   8.491  20.494  0.00  0.00    +0.000 A 
ATOM      8  O   UNL     1       0.979   8.837  21.593  0.00  0.00    +0.000 OA
ATOM      9  C   UNL     1       1.768   7.111  20.163  0.00  0.00    +0.000 A 
ATOM     10  C   UNL     1       1.685   6.127  21.061  0.00  0.00    +0.000 A 
ATOM     11  C   UNL     1       2.068   4.752  20.716  0.00  0.00    +0.000 A 
ATOM     12  C   UNL     1       1.933   3.796  21.743  0.00  0.00    +0.000 A 
ATOM     13  C   UNL     1       2.252   2.465  21.525  0.00  0.00    +0.000 A 
ATOM     14  C   UNL     1       2.704   2.081  20.275  0.00  0.00    +0.000 A 
ATOM     15  C   UNL     1       2.841   3.036  19.244  0.00  0.00    +0.000 A 
ATOM     16  C   UNL     1       2.545   4.414  19.415  0.00  0.00    +0.000 A 
ATOM     17  H   UNL     1       1.322  10.328  19.615  0.00  0.00    +0.000 HD
ENDROOT
BRANCH  15  18
ATOM     18  N   UNL     1       3.258   2.434  17.997  0.00  0.00    +0.000 N 
ATOM     19  O   UNL     1       4.474   2.284  17.828  0.00  0.00    +0.000 OA
ATOM     20  O   UNL     1       2.378   2.190  17.161  0.00  0.00    +0.000 OA
ENDBRANCH  15  18
BRANCH   1  21
ATOM     21  C   UNL     1       3.310   5.307  17.172  0.00  0.00    +0.000 C 
BRANCH  21  22
ATOM     22  C   UNL     1       4.810   5.601  17.305  0.00  0.00    +0.000 C 
BRANCH  22  23
ATOM     23  C   UNL     1       5.418   6.060  15.982  0.00  0.00    +0.000 C 
BRANCH  23  24
ATOM     24  C   UNL     1       5.601   4.886  15.028  0.00  0.00    +0.000 C 
BRANCH  24  25
ATOM     25  C   UNL     1       6.941   4.939  14.318  0.00  0.00    +0.000 C 
BRANCH  25  26
ATOM     26  C   UNL     1       6.821   4.211  12.985  0.00  0.00    +0.000 C 
BRANCH  26  27
ATOM     27  C   UNL     1       5.579   3.341  12.964  0.00  0.00    +0.000 C 
BRANCH  27  28
ATOM     28  C   UNL     1       5.125   3.109  11.530  0.00  0.00    +0.000 C 
BRANCH  28  29
ATOM     29  C   UNL     1       3.761   3.743  11.300  0.00  0.00    +0.000 C 
BRANCH  29  30
ATOM     30  C   UNL     1       3.105   3.161  10.055  0.00  0.00    +0.000 C 
BRANCH  30  32
ATOM     31  C   UNL     1       1.994   5.150   9.008  0.00  0.00    +0.000 C 
ATOM     32  C   UNL     1       3.143   4.162   8.905  0.00  0.00    +0.000 C 
ENDBRANCH  30  32
ENDBRANCH  29  30
ENDBRANCH  28  29
ENDBRANCH  27  28
ENDBRANCH  26  27
ENDBRANCH  25  26
ENDBRANCH  24  25
ENDBRANCH  23  24
ENDBRANCH  22  23
ENDBRANCH  21  22
ENDBRANCH   1  21
TORSDOF 12
ENDMDL
MODEL 2
REMARK VINA RESULT:      -7.4      0.914      1.172
REMARK  Name = 
REMARK  13 active torsions:
REMARK  status: ('A' for Active; 'I' for Inactive)
REMARK    1  A    between atoms: C_1  and  C_2
REMARK    2  A    between atoms: C_2  and  C_3
REMARK    3  A    between atoms: C_3  and  C_4
REMARK    4  A    between atoms: C_4  and  C_5
REMARK    5  A    between atoms: C_5  and  C_6
REMARK    6  A    between atoms: C_6  and  C_7
REMARK    7  A    between atoms: C_7  and  C_8
REMARK    8  A    between atoms: C_8  and  C_9
REMARK    9  A    between atoms: C_9  and  C_10
REMARK   10  A    between atoms: C_10  and  C_11
REMARK   11  A    between atoms: C_11  and  C_12
REMARK   12  A    between atoms: C_12  and  N_13
REMARK   13  A    between atoms: C_27  and  N_28
REMARK                            x       y       z     vdW  Elec       q    Type
REMARK                         _______ _______ _______ _____ _____    ______ ____
ROOT
ATOM      1  N   UNL     1       3.176   6.061  18.684  0.00  0.00    +0.000 N 
ATOM      2  C   UNL     1       2.468   7.253  18.961  0.00  0.00    +0.000 A 
ATOM      3  N   UNL     1       2.598   8.293  18.183  0.00  0.00    +0.000 NA
ATOM      4  C   UNL     1       1.937   9.468  18.404  0.00  0.00    +0.000 A 
ATOM      5  O   UNL     1       2.064  10.439  17.666  0.00  0.00    +0.000 OA
ATOM      6  N   UNL     1       1.104   9.574  19.484  0.00  0.00    +0.000 N 
ATOM      7  C   UNL     1       0.860   8.601  20.400  0.00  0.00    +0.000 A 
ATOM      8  O   UNL     1       0.110   8.764  21.356  0.00  0.00    +0.000 OA
ATOM      9  C   UNL     1       1.580   7.350  20.135  0.00  0.00    +0.000 A 
ATOM     10  C   UNL     1       1.470   6.293  20.942  0.00  0.00    +0.000 A 
ATOM     11  C   UNL     1       2.203   5.050  20.668  0.00  0.00    +0.000 A 
ATOM     12  C   UNL     1       2.004   3.999  21.585  0.00  0.00    +0.000 A 
ATOM     13  C   UNL     1       2.635   2.776  21.416  0.00  0.00    +0.000 A 
ATOM     14  C   UNL     1       3.465   2.597  20.324  0.00  0.00    +0.000 A 
ATOM     15  C   UNL     1       3.666   3.648  19.403  0.00  0.00    +0.000 A 
ATOM     16  C   UNL     1       3.060   4.924  19.535  0.00  0.00    +0.000 A 
ATOM     17  H   UNL     1       0.642  10.462  19.599  0.00  0.00    +0.000 HD
ENDROOT
BRANCH  15  18
ATOM     18  N   UNL     1       4.507   3.248  18.297  0.00  0.00    +0.000 N 
ATOM     19  O   UNL     1       5.727   3.410  18.434  0.00  0.00    +0.000 OA
ATOM     20  O   UNL     1       3.944   2.853  17.268  0.00  0.00    +0.000 OA
ENDBRANCH  15  18
BRANCH   1  21
ATOM     21  C   UNL     1       4.183   6.141  17.617  0.00  0.00    +0.000 C 
BRANCH  21  22
ATOM     22  C   UNL     1       5.531   6.605  18.183  0.00  0.00    +0.000 C 
BRANCH  22  23
ATOM     23  C   UNL     1       6.594   6.722  17.094  0.00  0.00    +0.000 C 
BRANCH  23  24
ATOM     24  C   UNL     1       6.083   6.164  15.771  0.00  0.00    +0.000 C 
BRANCH  24  25
ATOM     25  C   UNL     1       6.848   4.924  15.347  0.00  0.00    +0.000 C 
BRANCH  25  26
ATOM     26  C   UNL     1       6.811   4.816  13.829  0.00  0.00    +0.000 C 
BRANCH  26  27
ATOM     27  C   UNL     1       6.101   3.544  13.404  0.00  0.00    +0.000 C 
BRANCH  27  28
ATOM     28  C   UNL     1       6.498   3.172  11.982  0.00  0.00    +0.000 C 
BRANCH  28  29
ATOM     29  C   UNL     1       5.409   2.331  11.334  0.00  0.00    +0.000 C 
BRANCH  29  30
ATOM     30  C   UNL     1       4.047   2.989  11.516  0.00  0.00    +0.000 C 
BRANCH  30  32
ATOM     31  C   UNL     1       2.808   3.803   9.494  0.00  0.00    +0.000 C 
ATOM     32  C   UNL     1       3.866   4.139  10.530  0.00  0.00    +0.000 C 
ENDBRANCH  30  32
ENDBRANCH  29  30
ENDBRANCH  28  29
ENDBRANCH  27  28
ENDBRANCH  26  27
ENDBRANCH  25  26
ENDBRANCH  24  25
ENDBRANCH  23  24
ENDBRANCH  22  23
ENDBRANCH  21  22
ENDBRANCH   1  21
TORSDOF 12
ENDMDL
MODEL 3
REMARK VINA RESULT:      -7.3      3.100      5.325
REMARK  Name = 
REMARK  13 active torsions:
REMARK  status: ('A' for Active; 'I' for Inactive)
REMARK    1  A    between atoms: C_1  and  C_2
REMARK    2  A    between atoms: C_2  and  C_3
REMARK    3  A    between atoms: C_3  and  C_4
REMARK    4  A    between atoms: C_4  and  C_5
REMARK    5  A    between atoms: C_5  and  C_6
REMARK    6  A    between atoms: C_6  and  C_7
REMARK    7  A    between atoms: C_7  and  C_8
REMARK    8  A    between atoms: C_8  and  C_9
REMARK    9  A    between atoms: C_9  and  C_10
REMARK   10  A    between atoms: C_10  and  C_11
REMARK   11  A    between atoms: C_11  and  C_12
REMARK   12  A    between atoms: C_12  and  N_13
REMARK   13  A    between atoms: C_27  and  N_28
REMARK                            x       y       z     vdW  Elec       q    Type
REMARK                         _______ _______ _______ _____ _____    ______ ____
ROOT
ATOM      1  N   UNL     1       2.579   5.382  18.459  0.00  0.00    +0.000 N 
ATOM      2  C   UNL     1       2.239   6.713  18.796  0.00  0.00    +0.000 A 
ATOM      3  N   UNL     1       2.358   7.668  17.915  0.00  0.00    +0.000 NA
ATOM      4  C   UNL     1       2.042   8.969  18.187  0.00  0.00    +0.000 A 
ATOM      5  O   UNL     1       2.154   9.858  17.351  0.00  0.00    +0.000 OA
ATOM      6  N   UNL     1       1.585   9.299  19.433  0.00  0.00    +0.000 N 
ATOM      7  C   UNL     1       1.413   8.441  20.472  0.00  0.00    +0.000 A 
ATOM      8  O   UNL     1       1.011   8.804  21.572  0.00  0.00    +0.000 OA
ATOM      9  C   UNL     1       1.755   7.051  20.149  0.00  0.00    +0.000 A 
ATOM     10  C   UNL     1       1.661   6.076  21.056  0.00  0.00    +0.000 A 
ATOM     11  C   UNL     1       2.015   4.691  20.719  0.00  0.00    +0.000 A 
ATOM     12  C   UNL     1       1.868   3.747  21.754  0.00  0.00    +0.000 A 
ATOM     13  C   UNL     1       2.160   2.407  21.545  0.00  0.00    +0.000 A 
ATOM     14  C   UNL     1       2.595   2.005  20.295  0.00  0.00    +0.000 A 
ATOM     15  C   UNL     1       2.742   2.949  19.256  0.00  0.00    +0.000 A 
ATOM     16  C   UNL     1       2.474   4.334  19.418  0.00  0.00    +0.000 A 
ATOM     17  H   UNL     1       1.368  10.272  19.580  0.00  0.00    +0.000 HD
ENDROOT
BRANCH  15  18
ATOM     18  N   UNL     1       3.138   2.329  18.010  0.00  0.00    +0.000 N 
ATOM     19  O   UNL     1       2.249   2.149  17.168  0.00  0.00    +0.000 OA
ATOM     20  O   UNL     1       4.312   1.950  17.911  0.00  0.00    +0.000 OA
ENDBRANCH  15  18
BRANCH   1  21
ATOM     21  C   UNL     1       3.240   5.194  17.161  0.00  0.00    +0.000 C 
BRANCH  21  22
ATOM     22  C   UNL     1       4.666   5.759  17.197  0.00  0.00    +0.000 C 
BRANCH  22  23
ATOM     23  C   UNL     1       5.694   4.736  16.720  0.00  0.00    +0.000 C 
BRANCH  23  24
ATOM     24  C   UNL     1       7.099   5.128  17.160  0.00  0.00    +0.000 C 
BRANCH  24  25
ATOM     25  C   UNL     1       7.118   5.668  18.577  0.00  0.00    +0.000 C 
BRANCH  25  26
ATOM     26  C   UNL     1       8.089   6.839  18.647  0.00  0.00    +0.000 C 
BRANCH  26  27
ATOM     27  C   UNL     1       7.870   7.782  17.478  0.00  0.00    +0.000 C 
BRANCH  27  28
ATOM     28  C   UNL     1       7.898   9.226  17.957  0.00  0.00    +0.000 C 
BRANCH  28  29
ATOM     29  C   UNL     1       9.051   9.437  18.927  0.00  0.00    +0.000 C 
BRANCH  29  30
ATOM     30  C   UNL     1       9.319  10.924  19.122  0.00  0.00    +0.000 C 
BRANCH  30  32
ATOM     31  C   UNL     1      10.188  12.701  17.583  0.00  0.00    +0.000 C 
ATOM     32  C   UNL     1       9.081  11.692  17.826  0.00  0.00    +0.000 C 
ENDBRANCH  30  32
ENDBRANCH  29  30
ENDBRANCH  28  29
ENDBRANCH  27  28
ENDBRANCH  26  27
ENDBRANCH  25  26
ENDBRANCH  24  25
ENDBRANCH  23  24
ENDBRANCH  22  23
ENDBRANCH  21  22
ENDBRANCH   1  21
TORSDOF 12
ENDMDL
MODEL 4
REMARK VINA RESULT:      -7.3      3.672      8.078
REMARK  Name = 
REMARK  13 active torsions:
REMARK  status: ('A' for Active; 'I' for Inactive)
REMARK    1  A    between atoms: C_1  and  C_2
REMARK    2  A    between atoms: C_2  and  C_3
REMARK    3  A    between atoms: C_3  and  C_4
REMARK    4  A    between atoms: C_4  and  C_5
REMARK    5  A    between atoms: C_5  and  C_6
REMARK    6  A    between atoms: C_6  and  C_7
REMARK    7  A    between atoms: C_7  and  C_8
REMARK    8  A    between atoms: C_8  and  C_9
REMARK    9  A    between atoms: C_9  and  C_10
REMARK   10  A    between atoms: C_10  and  C_11
REMARK   11  A    between atoms: C_11  and  C_12
REMARK   12  A    between atoms: C_12  and  N_13
REMARK   13  A    between atoms: C_27  and  N_28
REMARK                            x       y       z     vdW  Elec       q    Type
REMARK                         _______ _______ _______ _____ _____    ______ ____
ROOT
ATOM      1  N   UNL     1       3.944   5.436  18.617  0.00  0.00    +0.000 N 
ATOM      2  C   UNL     1       5.033   5.590  17.729  0.00  0.00    +0.000 A 
ATOM      3  N   UNL     1       5.726   6.697  17.720  0.00  0.00    +0.000 NA
ATOM      4  C   UNL     1       6.788   6.898  16.884  0.00  0.00    +0.000 A 
ATOM      5  O   UNL     1       7.434   7.939  16.887  0.00  0.00    +0.000 OA
ATOM      6  N   UNL     1       7.149   5.909  16.011  0.00  0.00    +0.000 N 
ATOM      7  C   UNL     1       6.536   4.704  15.875  0.00  0.00    +0.000 A 
ATOM      8  O   UNL     1       6.901   3.862  15.062  0.00  0.00    +0.000 OA
ATOM      9  C   UNL     1       5.402   4.514  16.788  0.00  0.00    +0.000 A 
ATOM     10  C   UNL     1       4.675   3.395  16.782  0.00  0.00    +0.000 A 
ATOM     11  C   UNL     1       3.539   3.224  17.696  0.00  0.00    +0.000 A 
ATOM     12  C   UNL     1       2.850   1.999  17.603  0.00  0.00    +0.000 A 
ATOM     13  C   UNL     1       1.770   1.723  18.428  0.00  0.00    +0.000 A 
ATOM     14  C   UNL     1       1.377   2.672  19.355  0.00  0.00    +0.000 A 
ATOM     15  C   UNL     1       2.066   3.900  19.451  0.00  0.00    +0.000 A 
ATOM     16  C   UNL     1       3.167   4.242  18.622  0.00  0.00    +0.000 A 
ATOM     17  H   UNL     1       7.938   6.110  15.419  0.00  0.00    +0.000 HD
ENDROOT
BRANCH  15  18
ATOM     18  N   UNL     1       1.555   4.729  20.520  0.00  0.00    +0.000 N 
ATOM     19  O   UNL     1       2.182   4.715  21.587  0.00  0.00    +0.000 OA
ATOM     20  O   UNL     1       0.487   5.322  20.320  0.00  0.00    +0.000 OA
ENDBRANCH  15  18
BRANCH   1  21
ATOM     21  C   UNL     1       3.540   6.638  19.357  0.00  0.00    +0.000 C 
BRANCH  21  22
ATOM     22  C   UNL     1       2.695   7.560  18.467  0.00  0.00    +0.000 C 
BRANCH  22  23
ATOM     23  C   UNL     1       1.736   8.418  19.287  0.00  0.00    +0.000 C 
BRANCH  23  24
ATOM     24  C   UNL     1       1.416   9.721  18.566  0.00  0.00    +0.000 C 
BRANCH  24  25
ATOM     25  C   UNL     1      -0.069   9.868  18.297  0.00  0.00    +0.000 C 
BRANCH  25  26
ATOM     26  C   UNL     1      -0.652  10.872  19.283  0.00  0.00    +0.000 C 
BRANCH  26  27
ATOM     27  C   UNL     1       0.425  11.821  19.775  0.00  0.00    +0.000 C 
BRANCH  27  28
ATOM     28  C   UNL     1       0.400  11.899  21.295  0.00  0.00    +0.000 C 
BRANCH  28  29
ATOM     29  C   UNL     1      -1.027  11.774  21.807  0.00  0.00    +0.000 C 
BRANCH  29  30
ATOM     30  C   UNL     1      -1.087  10.823  22.995  0.00  0.00    +0.000 C 
BRANCH  30  32
ATOM     31  C   UNL     1      -0.497   8.537  22.153  0.00  0.00    +0.000 C 
ATOM     32  C   UNL     1       0.005   9.763  22.894  0.00  0.00    +0.000 C 
ENDBRANCH  30  32
ENDBRANCH  29  30
ENDBRANCH  28  29
ENDBRANCH  27  28
ENDBRANCH  26  27
ENDBRANCH  25  26
ENDBRANCH  24  25
ENDBRANCH  23  24
ENDBRANCH  22  23
ENDBRANCH  21  22
ENDBRANCH   1  21
TORSDOF 12
ENDMDL
MODEL 5
REMARK VINA RESULT:      -7.3      3.665      6.863
REMARK  Name = 
REMARK  13 active torsions:
REMARK  status: ('A' for Active; 'I' for Inactive)
REMARK    1  A    between atoms: C_1  and  C_2
REMARK    2  A    between atoms: C_2  and  C_3
REMARK    3  A    between atoms: C_3  and  C_4
REMARK    4  A    between atoms: C_4  and  C_5
REMARK    5  A    between atoms: C_5  and  C_6
REMARK    6  A    between atoms: C_6  and  C_7
REMARK    7  A    between atoms: C_7  and  C_8
REMARK    8  A    between atoms: C_8  and  C_9
REMARK    9  A    between atoms: C_9  and  C_10
REMARK   10  A    between atoms: C_10  and  C_11
REMARK   11  A    between atoms: C_11  and  C_12
REMARK   12  A    between atoms: C_12  and  N_13
REMARK   13  A    between atoms: C_27  and  N_28
REMARK                            x       y       z     vdW  Elec       q    Type
REMARK                         _______ _______ _______ _____ _____    ______ ____
ROOT
ATOM      1  N   UNL     1       3.909   5.393  18.668  0.00  0.00    +0.000 N 
ATOM      2  C   UNL     1       4.981   5.592  17.768  0.00  0.00    +0.000 A 
ATOM      3  N   UNL     1       5.663   6.705  17.789  0.00  0.00    +0.000 NA
ATOM      4  C   UNL     1       6.708   6.948  16.943  0.00  0.00    +0.000 A 
ATOM      5  O   UNL     1       7.343   7.995  16.973  0.00  0.00    +0.000 OA
ATOM      6  N   UNL     1       7.062   5.996  16.027  0.00  0.00    +0.000 N 
ATOM      7  C   UNL     1       6.459   4.790  15.857  0.00  0.00    +0.000 A 
ATOM      8  O   UNL     1       6.817   3.984  15.007  0.00  0.00    +0.000 OA
ATOM      9  C   UNL     1       5.343   4.556  16.782  0.00  0.00    +0.000 A 
ATOM     10  C   UNL     1       4.626   3.430  16.746  0.00  0.00    +0.000 A 
ATOM     11  C   UNL     1       3.508   3.213  17.672  0.00  0.00    +0.000 A 
ATOM     12  C   UNL     1       2.830   1.986  17.546  0.00  0.00    +0.000 A 
ATOM     13  C   UNL     1       1.767   1.669  18.378  0.00  0.00    +0.000 A 
ATOM     14  C   UNL     1       1.382   2.578  19.347  0.00  0.00    +0.000 A 
ATOM     15  C   UNL     1       2.060   3.809  19.476  0.00  0.00    +0.000 A 
ATOM     16  C   UNL     1       3.143   4.193  18.642  0.00  0.00    +0.000 A 
ATOM     17  H   UNL     1       7.839   6.226  15.429  0.00  0.00    +0.000 HD
ENDROOT
BRANCH  15  18
ATOM     18  N   UNL     1       1.560   4.592  20.585  0.00  0.00    +0.000 N 
ATOM     19  O   UNL     1       2.237   4.591  21.621  0.00  0.00    +0.000 OA
ATOM     20  O   UNL     1       0.456   5.134  20.446  0.00  0.00    +0.000 OA
ENDBRANCH  15  18
BRANCH   1  21
ATOM     21  C   UNL     1       3.506   6.563  19.460  0.00  0.00    +0.000 C 
BRANCH  21  22
ATOM     22  C   UNL     1       2.486   7.410  18.687  0.00  0.00    +0.000 C 
BRANCH  22  23
ATOM     23  C   UNL     1       1.844   8.474  19.575  0.00  0.00    +0.000 C 
BRANCH  23  24
ATOM     24  C   UNL     1       0.931   9.384  18.763  0.00  0.00    +0.000 C 
BRANCH  24  25
ATOM     25  C   UNL     1      -0.012  10.175  19.650  0.00  0.00    +0.000 C 
BRANCH  25  26
ATOM     26  C   UNL     1      -1.376  10.250  18.977  0.00  0.00    +0.000 C 
BRANCH  26  27
ATOM     27  C   UNL     1      -1.224  10.266  17.467  0.00  0.00    +0.000 C 
BRANCH  27  28
ATOM     28  C   UNL     1      -2.547   9.913  16.803  0.00  0.00    +0.000 C 
BRANCH  28  29
ATOM     29  C   UNL     1      -2.741  10.743  15.542  0.00  0.00    +0.000 C 
BRANCH  29  30
ATOM     30  C   UNL     1      -2.842   9.840  14.320  0.00  0.00    +0.000 C 
BRANCH  30  32
ATOM     31  C   UNL     1      -4.147   9.836  12.179  0.00  0.00    +0.000 C 
ATOM     32  C   UNL     1      -4.229   9.931  13.692  0.00  0.00    +0.000 C 
ENDBRANCH  30  32
ENDBRANCH  29  30
ENDBRANCH  28  29
ENDBRANCH  27  28
ENDBRANCH  26  27
ENDBRANCH  25  26
ENDBRANCH  24  25
ENDBRANCH  23  24
ENDBRANCH  22  23
ENDBRANCH  21  22
ENDBRANCH   1  21
TORSDOF 12
ENDMDL
MODEL 6
REMARK VINA RESULT:      -7.3      3.716      7.478
REMARK  Name = 
REMARK  13 active torsions:
REMARK  status: ('A' for Active; 'I' for Inactive)
REMARK    1  A    between atoms: C_1  and  C_2
REMARK    2  A    between atoms: C_2  and  C_3
REMARK    3  A    between atoms: C_3  and  C_4
REMARK    4  A    between atoms: C_4  and  C_5
REMARK    5  A    between atoms: C_5  and  C_6
REMARK    6  A    between atoms: C_6  and  C_7
REMARK    7  A    between atoms: C_7  and  C_8
REMARK    8  A    between atoms: C_8  and  C_9
REMARK    9  A    between atoms: C_9  and  C_10
REMARK   10  A    between atoms: C_10  and  C_11
REMARK   11  A    between atoms: C_11  and  C_12
REMARK   12  A    between atoms: C_12  and  N_13
REMARK   13  A    between atoms: C_27  and  N_28
REMARK                            x       y       z     vdW  Elec       q    Type
REMARK                         _______ _______ _______ _____ _____    ______ ____
ROOT
ATOM      1  N   UNL     1       3.985   5.396  18.723  0.00  0.00    +0.000 N 
ATOM      2  C   UNL     1       5.070   5.671  17.858  0.00  0.00    +0.000 A 
ATOM      3  N   UNL     1       5.678   6.825  17.908  0.00  0.00    +0.000 NA
ATOM      4  C   UNL     1       6.731   7.141  17.097  0.00  0.00    +0.000 A 
ATOM      5  O   UNL     1       7.296   8.227  17.153  0.00  0.00    +0.000 OA
ATOM      6  N   UNL     1       7.175   6.221  16.188  0.00  0.00    +0.000 N 
ATOM      7  C   UNL     1       6.657   4.981  15.991  0.00  0.00    +0.000 A 
ATOM      8  O   UNL     1       7.093   4.206  15.149  0.00  0.00    +0.000 OA
ATOM      9  C   UNL     1       5.530   4.667  16.878  0.00  0.00    +0.000 A 
ATOM     10  C   UNL     1       4.889   3.498  16.813  0.00  0.00    +0.000 A 
ATOM     11  C   UNL     1       3.759   3.203  17.702  0.00  0.00    +0.000 A 
ATOM     12  C   UNL     1       3.165   1.935  17.547  0.00  0.00    +0.000 A 
ATOM     13  C   UNL     1       2.099   1.543  18.343  0.00  0.00    +0.000 A 
ATOM     14  C   UNL     1       1.626   2.419  19.304  0.00  0.00    +0.000 A 
ATOM     15  C   UNL     1       2.219   3.690  19.462  0.00  0.00    +0.000 A 
ATOM     16  C   UNL     1       3.300   4.149  18.665  0.00  0.00    +0.000 A 
ATOM     17  H   UNL     1       7.954   6.506  15.616  0.00  0.00    +0.000 HD
ENDROOT
BRANCH  15  18
ATOM     18  N   UNL     1       1.634   4.430  20.559  0.00  0.00    +0.000 N 
ATOM     19  O   UNL     1       2.283   4.475  21.612  0.00  0.00    +0.000 OA
ATOM     20  O   UNL     1       0.497   4.890  20.392  0.00  0.00    +0.000 OA
ENDBRANCH  15  18
BRANCH   1  21
ATOM     21  C   UNL     1       3.483   6.531  19.508  0.00  0.00    +0.000 C 
BRANCH  21  22
ATOM     22  C   UNL     1       2.418   7.303  18.717  0.00  0.00    +0.000 C 
BRANCH  22  23
ATOM     23  C   UNL     1       1.846   8.467  19.522  0.00  0.00    +0.000 C 
BRANCH  23  24
ATOM     24  C   UNL     1       1.530   8.039  20.950  0.00  0.00    +0.000 C 
BRANCH  24  25
ATOM     25  C   UNL     1       0.241   8.660  21.454  0.00  0.00    +0.000 C 
BRANCH  25  26
ATOM     26  C   UNL     1      -0.275   9.642  20.411  0.00  0.00    +0.000 C 
BRANCH  26  27
ATOM     27  C   UNL     1      -0.192  11.064  20.933  0.00  0.00    +0.000 C 
BRANCH  27  28
ATOM     28  C   UNL     1      -0.515  12.051  19.821  0.00  0.00    +0.000 C 
BRANCH  28  29
ATOM     29  C   UNL     1      -1.908  11.785  19.269  0.00  0.00    +0.000 C 
BRANCH  29  30
ATOM     30  C   UNL     1      -1.880  11.745  17.746  0.00  0.00    +0.000 C 
BRANCH  30  32
ATOM     31  C   UNL     1      -3.243   9.648  17.570  0.00  0.00    +0.000 C 
ATOM     32  C   UNL     1      -1.914  10.306  17.242  0.00  0.00    +0.000 C 
ENDBRANCH  30  32
ENDBRANCH  29  30
ENDBRANCH  28  29
ENDBRANCH  27  28
ENDBRANCH  26  27
ENDBRANCH  25  26
ENDBRANCH  24  25
ENDBRANCH  23  24
ENDBRANCH  22  23
ENDBRANCH  21  22
ENDBRANCH   1  21
TORSDOF 12
ENDMDL
MODEL 7
REMARK VINA RESULT:      -7.2      1.112      1.906
REMARK  Name = 
REMARK  13 active torsions:
REMARK  status: ('A' for Active; 'I' for Inactive)
REMARK    1  A    between atoms: C_1  and  C_2
REMARK    2  A    between atoms: C_2  and  C_3
REMARK    3  A    between atoms: C_3  and  C_4
REMARK    4  A    between atoms: C_4  and  C_5
REMARK    5  A    between atoms: C_5  and  C_6
REMARK    6  A    between atoms: C_6  and  C_7
REMARK    7  A    between atoms: C_7  and  C_8
REMARK    8  A    between atoms: C_8  and  C_9
REMARK    9  A    between atoms: C_9  and  C_10
REMARK   10  A    between atoms: C_10  and  C_11
REMARK   11  A    between atoms: C_11  and  C_12
REMARK   12  A    between atoms: C_12  and  N_13
REMARK   13  A    between atoms: C_27  and  N_28
REMARK                            x       y       z     vdW  Elec       q    Type
REMARK                         _______ _______ _______ _____ _____    ______ ____
ROOT
ATOM      1  N   UNL     1       2.633   6.009  18.404  0.00  0.00    +0.000 N 
ATOM      2  C   UNL     1       2.215   7.299  18.802  0.00  0.00    +0.000 A 
ATOM      3  N   UNL     1       2.414   8.327  18.024  0.00  0.00    +0.000 NA
ATOM      4  C   UNL     1       2.029   9.594  18.359  0.00  0.00    +0.000 A 
ATOM      5  O   UNL     1       2.219  10.553  17.618  0.00  0.00    +0.000 OA
ATOM      6  N   UNL     1       1.411   9.810  19.559  0.00  0.00    +0.000 N 
ATOM      7  C   UNL     1       1.135   8.864  20.495  0.00  0.00    +0.000 A 
ATOM      8  O   UNL     1       0.589   9.125  21.560  0.00  0.00    +0.000 OA
ATOM      9  C   UNL     1       1.556   7.513  20.106  0.00  0.00    +0.000 A 
ATOM     10  C   UNL     1       1.378   6.463  20.911  0.00  0.00    +0.000 A 
ATOM     11  C   UNL     1       1.812   5.118  20.511  0.00  0.00    +0.000 A 
ATOM     12  C   UNL     1       1.565   4.087  21.438  0.00  0.00    +0.000 A 
ATOM     13  C   UNL     1       1.920   2.776  21.159  0.00  0.00    +0.000 A 
ATOM     14  C   UNL     1       2.519   2.490  19.946  0.00  0.00    +0.000 A 
ATOM     15  C   UNL     1       2.768   3.521  19.014  0.00  0.00    +0.000 A 
ATOM     16  C   UNL     1       2.441   4.881  19.253  0.00  0.00    +0.000 A 
ATOM     17  H   UNL     1       1.148  10.763  19.756  0.00  0.00    +0.000 HD
ENDROOT
BRANCH  15  18
ATOM     18  N   UNL     1       3.334   3.016  17.783  0.00  0.00    +0.000 N 
ATOM     19  O   UNL     1       4.559   2.839  17.762  0.00  0.00    +0.000 OA
ATOM     20  O   UNL     1       2.569   2.878  16.820  0.00  0.00    +0.000 OA
ENDBRANCH  15  18
BRANCH   1  21
ATOM     21  C   UNL     1       3.456   5.943  17.190  0.00  0.00    +0.000 C 
BRANCH  21  22
ATOM     22  C   UNL     1       4.754   6.741  17.376  0.00  0.00    +0.000 C 
BRANCH  22  23
ATOM     23  C   UNL     1       5.759   5.993  18.248  0.00  0.00    +0.000 C 
BRANCH  23  24
ATOM     24  C   UNL     1       7.142   5.990  17.608  0.00  0.00    +0.000 C 
BRANCH  24  25
ATOM     25  C   UNL     1       7.578   4.592  17.212  0.00  0.00    +0.000 C 
BRANCH  25  26
ATOM     26  C   UNL     1       6.897   4.214  15.904  0.00  0.00    +0.000 C 
BRANCH  26  27
ATOM     27  C   UNL     1       7.069   5.318  14.877  0.00  0.00    +0.000 C 
BRANCH  27  28
ATOM     28  C   UNL     1       7.285   4.718  13.494  0.00  0.00    +0.000 C 
BRANCH  28  29
ATOM     29  C   UNL     1       6.166   3.743  13.162  0.00  0.00    +0.000 C 
BRANCH  29  30
ATOM     30  C   UNL     1       6.478   2.992  11.874  0.00  0.00    +0.000 C 
BRANCH  30  32
ATOM     31  C   UNL     1       4.061   3.192  11.240  0.00  0.00    +0.000 C 
ATOM     32  C   UNL     1       5.245   2.250  11.368  0.00  0.00    +0.000 C 
ENDBRANCH  30  32
ENDBRANCH  29  30
ENDBRANCH  28  29
ENDBRANCH  27  28
ENDBRANCH  26  27
ENDBRANCH  25  26
ENDBRANCH  24  25
ENDBRANCH  23  24
ENDBRANCH  22  23
ENDBRANCH  21  22
ENDBRANCH   1  21
TORSDOF 12
ENDMDL
MODEL 8
REMARK VINA RESULT:      -7.1      3.794      7.547
REMARK  Name = 
REMARK  13 active torsions:
REMARK  status: ('A' for Active; 'I' for Inactive)
REMARK    1  A    between atoms: C_1  and  C_2
REMARK    2  A    between atoms: C_2  and  C_3
REMARK    3  A    between atoms: C_3  and  C_4
REMARK    4  A    between atoms: C_4  and  C_5
REMARK    5  A    between atoms: C_5  and  C_6
REMARK    6  A    between atoms: C_6  and  C_7
REMARK    7  A    between atoms: C_7  and  C_8
REMARK    8  A    between atoms: C_8  and  C_9
REMARK    9  A    between atoms: C_9  and  C_10
REMARK   10  A    between atoms: C_10  and  C_11
REMARK   11  A    between atoms: C_11  and  C_12
REMARK   12  A    between atoms: C_12  and  N_13
REMARK   13  A    between atoms: C_27  and  N_28
REMARK                            x       y       z     vdW  Elec       q    Type
REMARK                         _______ _______ _______ _____ _____    ______ ____
ROOT
ATOM      1  N   UNL     1       4.034   5.427  18.739  0.00  0.00    +0.000 N 
ATOM      2  C   UNL     1       5.139   5.734  17.912  0.00  0.00    +0.000 A 
ATOM      3  N   UNL     1       5.680   6.922  17.948  0.00  0.00    +0.000 NA
ATOM      4  C   UNL     1       6.749   7.270  17.172  0.00  0.00    +0.000 A 
ATOM      5  O   UNL     1       7.251   8.388  17.215  0.00  0.00    +0.000 OA
ATOM      6  N   UNL     1       7.282   6.348  16.314  0.00  0.00    +0.000 N 
ATOM      7  C   UNL     1       6.841   5.075  16.139  0.00  0.00    +0.000 A 
ATOM      8  O   UNL     1       7.356   4.300  15.342  0.00  0.00    +0.000 OA
ATOM      9  C   UNL     1       5.695   4.728  16.988  0.00  0.00    +0.000 A 
ATOM     10  C   UNL     1       5.123   3.523  16.935  0.00  0.00    +0.000 A 
ATOM     11  C   UNL     1       3.973   3.193  17.786  0.00  0.00    +0.000 A 
ATOM     12  C   UNL     1       3.457   1.889  17.649  0.00  0.00    +0.000 A 
ATOM     13  C   UNL     1       2.380   1.464  18.413  0.00  0.00    +0.000 A 
ATOM     14  C   UNL     1       1.818   2.341  19.323  0.00  0.00    +0.000 A 
ATOM     15  C   UNL     1       2.333   3.648  19.462  0.00  0.00    +0.000 A 
ATOM     16  C   UNL     1       3.421   4.142  18.696  0.00  0.00    +0.000 A 
ATOM     17  H   UNL     1       8.068   6.658  15.766  0.00  0.00    +0.000 HD
ENDROOT
BRANCH  15  18
ATOM     18  N   UNL     1       1.661   4.389  20.507  0.00  0.00    +0.000 N 
ATOM     19  O   UNL     1       0.559   4.878  20.226  0.00  0.00    +0.000 OA
ATOM     20  O   UNL     1       2.270   4.549  21.572  0.00  0.00    +0.000 OA
ENDBRANCH  15  18
BRANCH   1  21
ATOM     21  C   UNL     1       3.436   6.556  19.463  0.00  0.00    +0.000 C 
BRANCH  21  22
ATOM     22  C   UNL     1       2.408   7.277  18.582  0.00  0.00    +0.000 C 
BRANCH  22  23
ATOM     23  C   UNL     1       1.955   8.597  19.201  0.00  0.00    +0.000 C 
BRANCH  23  24
ATOM     24  C   UNL     1       1.341   8.372  20.577  0.00  0.00    +0.000 C 
BRANCH  24  25
ATOM     25  C   UNL     1       0.139   9.267  20.813  0.00  0.00    +0.000 C 
BRANCH  25  26
ATOM     26  C   UNL     1       0.119  10.356  19.748  0.00  0.00    +0.000 C 
BRANCH  26  27
ATOM     27  C   UNL     1      -1.307  10.664  19.329  0.00  0.00    +0.000 C 
BRANCH  27  28
ATOM     28  C   UNL     1      -1.513  10.301  17.866  0.00  0.00    +0.000 C 
BRANCH  28  29
ATOM     29  C   UNL     1      -2.915   9.749  17.652  0.00  0.00    +0.000 C 
BRANCH  29  30
ATOM     30  C   UNL     1      -3.840  10.835  17.117  0.00  0.00    +0.000 C 
BRANCH  30  32
ATOM     31  C   UNL     1      -4.980  12.179  18.900  0.00  0.00    +0.000 C 
ATOM     32  C   UNL     1      -5.082  10.966  17.992  0.00  0.00    +0.000 C 
ENDBRANCH  30  32
ENDBRANCH  29  30
ENDBRANCH  28  29
ENDBRANCH  27  28
ENDBRANCH  26  27
ENDBRANCH  25  26
ENDBRANCH  24  25
ENDBRANCH  23  24
ENDBRANCH  22  23
ENDBRANCH  21  22
ENDBRANCH   1  21
TORSDOF 12
ENDMDL
MODEL 9
REMARK VINA RESULT:      -7.1      5.394      8.472
REMARK  Name = 
REMARK  13 active torsions:
REMARK  status: ('A' for Active; 'I' for Inactive)
REMARK    1  A    between atoms: C_1  and  C_2
REMARK    2  A    between atoms: C_2  and  C_3
REMARK    3  A    between atoms: C_3  and  C_4
REMARK    4  A    between atoms: C_4  and  C_5
REMARK    5  A    between atoms: C_5  and  C_6
REMARK    6  A    between atoms: C_6  and  C_7
REMARK    7  A    between atoms: C_7  and  C_8
REMARK    8  A    between atoms: C_8  and  C_9
REMARK    9  A    between atoms: C_9  and  C_10
REMARK   10  A    between atoms: C_10  and  C_11
REMARK   11  A    between atoms: C_11  and  C_12
REMARK   12  A    between atoms: C_12  and  N_13
REMARK   13  A    between atoms: C_27  and  N_28
REMARK                            x       y       z     vdW  Elec       q    Type
REMARK                         _______ _______ _______ _____ _____    ______ ____
ROOT
ATOM      1  N   UNL     1      -1.531  11.587  19.071  0.00  0.00    +0.000 N 
ATOM      2  C   UNL     1      -2.498  11.447  18.049  0.00  0.00    +0.000 A 
ATOM      3  N   UNL     1      -2.152  11.010  16.869  0.00  0.00    +0.000 NA
ATOM      4  C   UNL     1      -3.046  10.854  15.847  0.00  0.00    +0.000 A 
ATOM      5  O   UNL     1      -2.711  10.439  14.743  0.00  0.00    +0.000 OA
ATOM      6  N   UNL     1      -4.360  11.171  16.053  0.00  0.00    +0.000 N 
ATOM      7  C   UNL     1      -4.892  11.649  17.208  0.00  0.00    +0.000 A 
ATOM      8  O   UNL     1      -6.080  11.927  17.326  0.00  0.00    +0.000 OA
ATOM      9  C   UNL     1      -3.910  11.802  18.289  0.00  0.00    +0.000 A 
ATOM     10  C   UNL     1      -4.255  12.274  19.489  0.00  0.00    +0.000 A 
ATOM     11  C   UNL     1      -3.260  12.428  20.557  0.00  0.00    +0.000 A 
ATOM     12  C   UNL     1      -3.741  12.930  21.783  0.00  0.00    +0.000 A 
ATOM     13  C   UNL     1      -2.892  13.103  22.865  0.00  0.00    +0.000 A 
ATOM     14  C   UNL     1      -1.556  12.768  22.728  0.00  0.00    +0.000 A 
ATOM     15  C   UNL     1      -1.072  12.266  21.501  0.00  0.00    +0.000 A 
ATOM     16  C   UNL     1      -1.891  12.084  20.356  0.00  0.00    +0.000 A 
ATOM     17  H   UNL     1      -4.975  11.037  15.267  0.00  0.00    +0.000 HD
ENDROOT
BRANCH  15  18
ATOM     18  N   UNL     1       0.329  11.910  21.575  0.00  0.00    +0.000 N 
ATOM     19  O   UNL     1       0.596  10.777  21.994  0.00  0.00    +0.000 OA
ATOM     20  O   UNL     1       1.154  12.789  21.295  0.00  0.00    +0.000 OA
ENDBRANCH  15  18
BRANCH   1  21
ATOM     21  C   UNL     1      -0.132  11.404  18.665  0.00  0.00    +0.000 C 
BRANCH  21  22
ATOM     22  C   UNL     1       0.251   9.919  18.706  0.00  0.00    +0.000 C 
BRANCH  22  23
ATOM     23  C   UNL     1       1.728   9.704  18.387  0.00  0.00    +0.000 C 
BRANCH  23  24
ATOM     24  C   UNL     1       1.948   8.366  17.693  0.00  0.00    +0.000 C 
BRANCH  24  25
ATOM     25  C   UNL     1       2.634   7.364  18.602  0.00  0.00    +0.000 C 
BRANCH  25  26
ATOM     26  C   UNL     1       2.157   5.963  18.241  0.00  0.00    +0.000 C 
BRANCH  26  27
ATOM     27  C   UNL     1       3.298   5.145  17.666  0.00  0.00    +0.000 C 
BRANCH  27  28
ATOM     28  C   UNL     1       4.573   5.391  18.460  0.00  0.00    +0.000 C 
BRANCH  28  29
ATOM     29  C   UNL     1       5.764   5.510  17.521  0.00  0.00    +0.000 C 
BRANCH  29  30
ATOM     30  C   UNL     1       6.044   6.971  17.196  0.00  0.00    +0.000 C 
BRANCH  30  32
ATOM     31  C   UNL     1       8.005   6.602  18.714  0.00  0.00    +0.000 C 
ATOM     32  C   UNL     1       7.504   7.316  17.471  0.00  0.00    +0.000 C 
ENDBRANCH  30  32
ENDBRANCH  29  30
ENDBRANCH  28  29
ENDBRANCH  27  28
ENDBRANCH  26  27
ENDBRANCH  25  26
ENDBRANCH  24  25
ENDBRANCH  23  24
ENDBRANCH  22  23
ENDBRANCH  21  22
ENDBRANCH   1  21
TORSDOF 12
ENDMDL
