MODEL 1
REMARK VINA RESULT:      -7.0      0.000      0.000
REMARK  Name = 
REMARK  2 active torsions:
REMARK  status: ('A' for Active; 'I' for Inactive)
REMARK    1  A    between atoms: C_1  and  C_2
REMARK    2  A    between atoms: C_5  and  N_6
REMARK                            x       y       z     vdW  Elec       q    Type
REMARK                         _______ _______ _______ _____ _____    ______ ____
ROOT
ATOM      1  N   UNL     1       5.411   4.038  17.851  0.00  0.00    +0.000 N 
ATOM      2  C   UNL     1       6.628   4.663  17.923  0.00  0.00    +0.000 C 
ATOM      3  O   UNL     1       7.197   5.026  18.954  0.00  0.00    +0.000 OA
ATOM      4  N   UNL     1       7.287   4.815  16.725  0.00  0.00    +0.000 N 
ATOM      5  C   UNL     1       6.778   4.602  15.460  0.00  0.00    +0.000 A 
ATOM      6  C   UNL     1       7.531   4.616  14.264  0.00  0.00    +0.000 A 
ATOM      7  C   UNL     1       6.616   4.354  13.279  0.00  0.00    +0.000 A 
ATOM      8  O   UNL     1       5.388   4.208  13.831  0.00  0.00    +0.000 OA
ATOM      9  N   UNL     1       5.490   4.344  15.197  0.00  0.00    +0.000 NA
ATOM     10  H   UNL     1       5.163   3.704  16.924  0.00  0.00    +0.000 HD
ATOM     11  H   UNL     1       8.240   5.136  16.813  0.00  0.00    +0.000 HD
ENDROOT
BRANCH   1  16
ATOM     12  C   UNL     1       1.642   2.896  21.989  0.00  0.00    +0.000 C 
ATOM     13  C   UNL     1       2.644   3.212  20.917  0.00  0.00    +0.000 A 
ATOM     14  C   UNL     1       3.565   2.229  20.525  0.00  0.00    +0.000 A 
ATOM     15  C   UNL     1       4.490   2.477  19.507  0.00  0.00    +0.000 A 
ATOM     16  C   UNL     1       4.518   3.716  18.879  0.00  0.00    +0.000 A 
ATOM     17  C   UNL     1       3.629   4.716  19.285  0.00  0.00    +0.000 A 
ATOM     18  C   UNL     1       2.686   4.460  20.283  0.00  0.00    +0.000 A 
ATOM     19 CL   UNL     1       1.577   5.722  20.691  0.00  0.00    +0.000 Cl
ENDBRANCH   1  16
TORSDOF 1
ENDMDL
MODEL 2
REMARK VINA RESULT:      -7.0      1.831      2.430
REMARK  Name = 
REMARK  2 active torsions:
REMARK  status: ('A' for Active; 'I' for Inactive)
REMARK    1  A    between atoms: C_1  and  C_2
REMARK    2  A    between atoms: C_5  and  N_6
REMARK                            x       y       z     vdW  Elec       q    Type
REMARK                         _______ _______ _______ _____ _____    ______ ____
ROOT
ATOM      1  N   UNL     1       5.460   4.913  16.275  0.00  0.00    +0.000 N 
ATOM      2  C   UNL     1       6.577   5.663  16.014  0.00  0.00    +0.000 C 
ATOM      3  O   UNL     1       7.091   6.486  16.774  0.00  0.00    +0.000 OA
ATOM      4  N   UNL     1       7.206   5.393  14.821  0.00  0.00    +0.000 N 
ATOM      5  C   UNL     1       6.730   4.617  13.785  0.00  0.00    +0.000 A 
ATOM      6  C   UNL     1       7.471   4.236  12.643  0.00  0.00    +0.000 A 
ATOM      7  C   UNL     1       6.599   3.478  11.905  0.00  0.00    +0.000 A 
ATOM      8  O   UNL     1       5.405   3.415  12.541  0.00  0.00    +0.000 OA
ATOM      9  N   UNL     1       5.490   4.111  13.726  0.00  0.00    +0.000 NA
ATOM     10  H   UNL     1       5.260   4.200  15.580  0.00  0.00    +0.000 HD
ATOM     11  H   UNL     1       8.104   5.841  14.714  0.00  0.00    +0.000 HD
ENDROOT
BRANCH   1  16
ATOM     12  C   UNL     1       2.170   4.819  20.944  0.00  0.00    +0.000 C 
ATOM     13  C   UNL     1       3.020   4.825  19.707  0.00  0.00    +0.000 A 
ATOM     14  C   UNL     1       2.975   5.932  18.846  0.00  0.00    +0.000 A 
ATOM     15  C   UNL     1       3.777   5.988  17.704  0.00  0.00    +0.000 A 
ATOM     16  C   UNL     1       4.624   4.930  17.397  0.00  0.00    +0.000 A 
ATOM     17  C   UNL     1       4.654   3.806  18.228  0.00  0.00    +0.000 A 
ATOM     18  C   UNL     1       3.872   3.761  19.384  0.00  0.00    +0.000 A 
ATOM     19 CL   UNL     1       4.005   2.367  20.398  0.00  0.00    +0.000 Cl
ENDBRANCH   1  16
TORSDOF 1
ENDMDL
MODEL 3
REMARK VINA RESULT:      -6.9      1.860      2.164
REMARK  Name = 
REMARK  2 active torsions:
REMARK  status: ('A' for Active; 'I' for Inactive)
REMARK    1  A    between atoms: C_1  and  C_2
REMARK    2  A    between atoms: C_5  and  N_6
REMARK                            x       y       z     vdW  Elec       q    Type
REMARK                         _______ _______ _______ _____ _____    ______ ____
ROOT
ATOM      1  N   UNL     1       4.814   4.532  16.529  0.00  0.00    +0.000 N 
ATOM      2  C   UNL     1       5.644   5.622  16.488  0.00  0.00    +0.000 C 
ATOM      3  O   UNL     1       5.748   6.486  17.360  0.00  0.00    +0.000 OA
ATOM      4  N   UNL     1       6.481   5.688  15.399  0.00  0.00    +0.000 N 
ATOM      5  C   UNL     1       6.433   4.908  14.262  0.00  0.00    +0.000 A 
ATOM      6  C   UNL     1       7.405   4.900  13.236  0.00  0.00    +0.000 A 
ATOM      7  C   UNL     1       6.942   3.981  12.331  0.00  0.00    +0.000 A 
ATOM      8  O   UNL     1       5.763   3.475  12.764  0.00  0.00    +0.000 OA
ATOM      9  N   UNL     1       5.451   4.040  13.981  0.00  0.00    +0.000 NA
ATOM     10  H   UNL     1       4.958   3.865  15.776  0.00  0.00    +0.000 HD
ATOM     11  H   UNL     1       7.185   6.408  15.460  0.00  0.00    +0.000 HD
ENDROOT
BRANCH   1  16
ATOM     12  C   UNL     1       1.156   3.002  20.641  0.00  0.00    +0.000 C 
ATOM     13  C   UNL     1       2.119   3.380  19.554  0.00  0.00    +0.000 A 
ATOM     14  C   UNL     1       1.661   4.129  18.459  0.00  0.00    +0.000 A 
ATOM     15  C   UNL     1       2.536   4.528  17.445  0.00  0.00    +0.000 A 
ATOM     16  C   UNL     1       3.877   4.168  17.502  0.00  0.00    +0.000 A 
ATOM     17  C   UNL     1       4.339   3.392  18.570  0.00  0.00    +0.000 A 
ATOM     18  C   UNL     1       3.471   3.016  19.598  0.00  0.00    +0.000 A 
ATOM     19 CL   UNL     1       4.123   2.111  20.918  0.00  0.00    +0.000 Cl
ENDBRANCH   1  16
TORSDOF 1
ENDMDL
MODEL 4
REMARK VINA RESULT:      -6.9      1.753      2.141
REMARK  Name = 
REMARK  2 active torsions:
REMARK  status: ('A' for Active; 'I' for Inactive)
REMARK    1  A    between atoms: C_1  and  C_2
REMARK    2  A    between atoms: C_5  and  N_6
REMARK                            x       y       z     vdW  Elec       q    Type
REMARK                         _______ _______ _______ _____ _____    ______ ____
ROOT
ATOM      1  N   UNL     1       5.583   4.832  16.208  0.00  0.00    +0.000 N 
ATOM      2  C   UNL     1       6.756   5.482  15.925  0.00  0.00    +0.000 C 
ATOM      3  O   UNL     1       7.364   6.240  16.682  0.00  0.00    +0.000 OA
ATOM      4  N   UNL     1       7.322   5.179  14.710  0.00  0.00    +0.000 N 
ATOM      5  C   UNL     1       6.748   4.470  13.675  0.00  0.00    +0.000 A 
ATOM      6  C   UNL     1       7.418   4.045  12.506  0.00  0.00    +0.000 A 
ATOM      7  C   UNL     1       6.459   3.384  11.782  0.00  0.00    +0.000 A 
ATOM      8  O   UNL     1       5.283   3.417  12.453  0.00  0.00    +0.000 OA
ATOM      9  N   UNL     1       5.466   4.080  13.646  0.00  0.00    +0.000 NA
ATOM     10  H   UNL     1       5.298   4.154  15.507  0.00  0.00    +0.000 HD
ATOM     11  H   UNL     1       8.254   5.545  14.582  0.00  0.00    +0.000 HD
ENDROOT
BRANCH   1  16
ATOM     12  C   UNL     1       2.213   5.291  20.797  0.00  0.00    +0.000 C 
ATOM     13  C   UNL     1       3.114   5.188  19.601  0.00  0.00    +0.000 A 
ATOM     14  C   UNL     1       3.864   4.019  19.403  0.00  0.00    +0.000 A 
ATOM     15  C   UNL     1       4.687   3.874  18.284  0.00  0.00    +0.000 A 
ATOM     16  C   UNL     1       4.785   4.904  17.355  0.00  0.00    +0.000 A 
ATOM     17  C   UNL     1       4.069   6.087  17.558  0.00  0.00    +0.000 A 
ATOM     18  C   UNL     1       3.226   6.222  18.663  0.00  0.00    +0.000 A 
ATOM     19 CL   UNL     1       2.323   7.688  18.819  0.00  0.00    +0.000 Cl
ENDBRANCH   1  16
TORSDOF 1
ENDMDL
MODEL 5
REMARK VINA RESULT:      -6.8      3.132      6.444
REMARK  Name = 
REMARK  2 active torsions:
REMARK  status: ('A' for Active; 'I' for Inactive)
REMARK    1  A    between atoms: C_1  and  C_2
REMARK    2  A    between atoms: C_5  and  N_6
REMARK                            x       y       z     vdW  Elec       q    Type
REMARK                         _______ _______ _______ _____ _____    ______ ____
ROOT
ATOM      1  N   UNL     1       4.775   4.108  17.413  0.00  0.00    +0.000 N 
ATOM      2  C   UNL     1       5.117   4.026  18.737  0.00  0.00    +0.000 C 
ATOM      3  O   UNL     1       6.234   4.240  19.211  0.00  0.00    +0.000 OA
ATOM      4  N   UNL     1       4.081   3.757  19.600  0.00  0.00    +0.000 N 
ATOM      5  C   UNL     1       2.801   3.361  19.270  0.00  0.00    +0.000 A 
ATOM      6  C   UNL     1       1.723   3.246  20.175  0.00  0.00    +0.000 A 
ATOM      7  C   UNL     1       0.669   2.833  19.403  0.00  0.00    +0.000 A 
ATOM      8  O   UNL     1       1.078   2.687  18.121  0.00  0.00    +0.000 OA
ATOM      9  N   UNL     1       2.407   3.035  18.031  0.00  0.00    +0.000 NA
ATOM     10  H   UNL     1       3.780   4.019  17.229  0.00  0.00    +0.000 HD
ATOM     11  H   UNL     1       4.319   3.850  20.577  0.00  0.00    +0.000 HD
ENDROOT
BRANCH   1  16
ATOM     12  C   UNL     1       7.905   5.190  12.759  0.00  0.00    +0.000 C 
ATOM     13  C   UNL     1       7.090   4.882  13.980  0.00  0.00    +0.000 A 
ATOM     14  C   UNL     1       7.471   5.426  15.216  0.00  0.00    +0.000 A 
ATOM     15  C   UNL     1       6.718   5.188  16.369  0.00  0.00    +0.000 A 
ATOM     16  C   UNL     1       5.582   4.389  16.305  0.00  0.00    +0.000 A 
ATOM     17  C   UNL     1       5.212   3.813  15.086  0.00  0.00    +0.000 A 
ATOM     18  C   UNL     1       5.949   4.072  13.929  0.00  0.00    +0.000 A 
ATOM     19 CL   UNL     1       5.397   3.377  12.445  0.00  0.00    +0.000 Cl
ENDBRANCH   1  16
TORSDOF 1
ENDMDL
MODEL 6
REMARK VINA RESULT:      -6.6      3.263      3.998
REMARK  Name = 
REMARK  2 active torsions:
REMARK  status: ('A' for Active; 'I' for Inactive)
REMARK    1  A    between atoms: C_1  and  C_2
REMARK    2  A    between atoms: C_5  and  N_6
REMARK                            x       y       z     vdW  Elec       q    Type
REMARK                         _______ _______ _______ _____ _____    ______ ____
ROOT
ATOM      1  N   UNL     1       3.472   5.797  17.790  0.00  0.00    +0.000 N 
ATOM      2  C   UNL     1       3.296   4.456  17.570  0.00  0.00    +0.000 C 
ATOM      3  O   UNL     1       2.417   3.749  18.065  0.00  0.00    +0.000 OA
ATOM      4  N   UNL     1       4.145   3.892  16.646  0.00  0.00    +0.000 N 
ATOM      5  C   UNL     1       5.266   4.466  16.084  0.00  0.00    +0.000 A 
ATOM      6  C   UNL     1       6.021   3.915  15.023  0.00  0.00    +0.000 A 
ATOM      7  C   UNL     1       7.021   4.826  14.804  0.00  0.00    +0.000 A 
ATOM      8  O   UNL     1       6.897   5.852  15.679  0.00  0.00    +0.000 OA
ATOM      9  N   UNL     1       5.789   5.638  16.469  0.00  0.00    +0.000 NA
ATOM     10  H   UNL     1       4.173   6.232  17.198  0.00  0.00    +0.000 HD
ATOM     11  H   UNL     1       3.905   2.947  16.385  0.00  0.00    +0.000 HD
ENDROOT
BRANCH   1  16
ATOM     12  C   UNL     1       0.522   9.424  21.073  0.00  0.00    +0.000 C 
ATOM     13  C   UNL     1       1.317   8.486  20.212  0.00  0.00    +0.000 A 
ATOM     14  C   UNL     1       1.669   7.224  20.713  0.00  0.00    +0.000 A 
ATOM     15  C   UNL     1       2.380   6.312  19.928  0.00  0.00    +0.000 A 
ATOM     16  C   UNL     1       2.763   6.656  18.637  0.00  0.00    +0.000 A 
ATOM     17  C   UNL     1       2.449   7.924  18.139  0.00  0.00    +0.000 A 
ATOM     18  C   UNL     1       1.716   8.826  18.913  0.00  0.00    +0.000 A 
ATOM     19 CL   UNL     1       1.309  10.352  18.210  0.00  0.00    +0.000 Cl
ENDBRANCH   1  16
TORSDOF 1
ENDMDL
MODEL 7
REMARK VINA RESULT:      -6.6      3.601      5.878
REMARK  Name = 
REMARK  2 active torsions:
REMARK  status: ('A' for Active; 'I' for Inactive)
REMARK    1  A    between atoms: C_1  and  C_2
REMARK    2  A    between atoms: C_5  and  N_6
REMARK                            x       y       z     vdW  Elec       q    Type
REMARK                         _______ _______ _______ _____ _____    ______ ____
ROOT
ATOM      1  N   UNL     1       4.597   2.583  19.538  0.00  0.00    +0.000 N 
ATOM      2  C   UNL     1       4.294   1.390  18.937  0.00  0.00    +0.000 C 
ATOM      3  O   UNL     1       3.608   1.243  17.924  0.00  0.00    +0.000 OA
ATOM      4  N   UNL     1       4.889   0.281  19.490  0.00  0.00    +0.000 N 
ATOM      5  C   UNL     1       5.576   0.210  20.685  0.00  0.00    +0.000 A 
ATOM      6  C   UNL     1       6.307  -0.910  21.142  0.00  0.00    +0.000 A 
ATOM      7  C   UNL     1       6.811  -0.519  22.354  0.00  0.00    +0.000 A 
ATOM      8  O   UNL     1       6.403   0.743  22.628  0.00  0.00    +0.000 OA
ATOM      9  N   UNL     1       5.646   1.209  21.576  0.00  0.00    +0.000 NA
ATOM     10  H   UNL     1       5.277   2.515  20.290  0.00  0.00    +0.000 HD
ATOM     11  H   UNL     1       4.779  -0.564  18.948  0.00  0.00    +0.000 HD
ENDROOT
BRANCH   1  16
ATOM     12  C   UNL     1       2.970   7.828  17.968  0.00  0.00    +0.000 C 
ATOM     13  C   UNL     1       3.420   6.460  18.386  0.00  0.00    +0.000 A 
ATOM     14  C   UNL     1       2.865   5.874  19.534  0.00  0.00    +0.000 A 
ATOM     15  C   UNL     1       3.235   4.587  19.935  0.00  0.00    +0.000 A 
ATOM     16  C   UNL     1       4.179   3.875  19.204  0.00  0.00    +0.000 A 
ATOM     17  C   UNL     1       4.765   4.462  18.078  0.00  0.00    +0.000 A 
ATOM     18  C   UNL     1       4.376   5.737  17.661  0.00  0.00    +0.000 A 
ATOM     19 CL   UNL     1       5.097   6.374  16.225  0.00  0.00    +0.000 Cl
ENDBRANCH   1  16
TORSDOF 1
ENDMDL
MODEL 8
REMARK VINA RESULT:      -6.6      1.649      1.677
REMARK  Name = 
REMARK  2 active torsions:
REMARK  status: ('A' for Active; 'I' for Inactive)
REMARK    1  A    between atoms: C_1  and  C_2
REMARK    2  A    between atoms: C_5  and  N_6
REMARK                            x       y       z     vdW  Elec       q    Type
REMARK                         _______ _______ _______ _____ _____    ______ ____
ROOT
ATOM      1  N   UNL     1       4.950   4.569  16.423  0.00  0.00    +0.000 N 
ATOM      2  C   UNL     1       5.914   5.544  16.402  0.00  0.00    +0.000 C 
ATOM      3  O   UNL     1       6.140   6.358  17.299  0.00  0.00    +0.000 OA
ATOM      4  N   UNL     1       6.740   5.535  15.303  0.00  0.00    +0.000 N 
ATOM      5  C   UNL     1       6.578   4.806  14.143  0.00  0.00    +0.000 A 
ATOM      6  C   UNL     1       7.529   4.705  13.102  0.00  0.00    +0.000 A 
ATOM      7  C   UNL     1       6.940   3.884  12.177  0.00  0.00    +0.000 A 
ATOM      8  O   UNL     1       5.710   3.521  12.613  0.00  0.00    +0.000 OA
ATOM      9  N   UNL     1       5.488   4.082  13.851  0.00  0.00    +0.000 NA
ATOM     10  H   UNL     1       4.997   3.915  15.647  0.00  0.00    +0.000 HD
ATOM     11  H   UNL     1       7.533   6.156  15.374  0.00  0.00    +0.000 HD
ENDROOT
BRANCH   1  16
ATOM     12  C   UNL     1       0.966   3.682  20.419  0.00  0.00    +0.000 C 
ATOM     13  C   UNL     1       2.030   3.919  19.387  0.00  0.00    +0.000 A 
ATOM     14  C   UNL     1       2.483   2.846  18.606  0.00  0.00    +0.000 A 
ATOM     15  C   UNL     1       3.447   3.035  17.613  0.00  0.00    +0.000 A 
ATOM     16  C   UNL     1       3.985   4.299  17.399  0.00  0.00    +0.000 A 
ATOM     17  C   UNL     1       3.568   5.370  18.194  0.00  0.00    +0.000 A 
ATOM     18  C   UNL     1       2.585   5.187  19.169  0.00  0.00    +0.000 A 
ATOM     19 CL   UNL     1       2.072   6.568  20.072  0.00  0.00    +0.000 Cl
ENDBRANCH   1  16
TORSDOF 1
ENDMDL
MODEL 9
REMARK VINA RESULT:      -6.6      1.612      1.887
REMARK  Name = 
REMARK  2 active torsions:
REMARK  status: ('A' for Active; 'I' for Inactive)
REMARK    1  A    between atoms: C_1  and  C_2
REMARK    2  A    between atoms: C_5  and  N_6
REMARK                            x       y       z     vdW  Elec       q    Type
REMARK                         _______ _______ _______ _____ _____    ______ ____
ROOT
ATOM      1  N   UNL     1       5.707   4.542  16.419  0.00  0.00    +0.000 N 
ATOM      2  C   UNL     1       6.607   5.556  16.223  0.00  0.00    +0.000 C 
ATOM      3  O   UNL     1       6.942   6.399  17.057  0.00  0.00    +0.000 OA
ATOM      4  N   UNL     1       7.237   5.560  15.001  0.00  0.00    +0.000 N 
ATOM      5  C   UNL     1       6.918   4.798  13.895  0.00  0.00    +0.000 A 
ATOM      6  C   UNL     1       7.685   4.716  12.711  0.00  0.00    +0.000 A 
ATOM      7  C   UNL     1       6.989   3.849  11.911  0.00  0.00    +0.000 A 
ATOM      8  O   UNL     1       5.867   3.444  12.551  0.00  0.00    +0.000 OA
ATOM      9  N   UNL     1       5.830   4.022  13.801  0.00  0.00    +0.000 NA
ATOM     10  H   UNL     1       5.654   3.873  15.657  0.00  0.00    +0.000 HD
ATOM     11  H   UNL     1       8.001   6.215  14.929  0.00  0.00    +0.000 HD
ENDROOT
BRANCH   1  16
ATOM     12  C   UNL     1       2.380   3.290  20.891  0.00  0.00    +0.000 C 
ATOM     13  C   UNL     1       3.243   3.642  19.715  0.00  0.00    +0.000 A 
ATOM     14  C   UNL     1       4.624   3.803  19.899  0.00  0.00    +0.000 A 
ATOM     15  C   UNL     1       5.464   4.097  18.822  0.00  0.00    +0.000 A 
ATOM     16  C   UNL     1       4.932   4.252  17.547  0.00  0.00    +0.000 A 
ATOM     17  C   UNL     1       3.552   4.128  17.356  0.00  0.00    +0.000 A 
ATOM     18  C   UNL     1       2.716   3.807  18.428  0.00  0.00    +0.000 A 
ATOM     19 CL   UNL     1       1.029   3.609  18.107  0.00  0.00    +0.000 Cl
ENDBRANCH   1  16
TORSDOF 1
ENDMDL
