MODEL 1
REMARK VINA RESULT:      -7.6      0.000      0.000
REMARK  Name = 
REMARK  5 active torsions:
REMARK  status: ('A' for Active; 'I' for Inactive)
REMARK    1  A    between atoms: C_2  and  O_3
REMARK    2  A    between atoms: C_2  and  C_4
REMARK    3  A    between atoms: C_8  and  N_9
REMARK    4  A    between atoms: C_10  and  C_12
REMARK    5  A    between atoms: C_18  and  O_19
REMARK                            x       y       z     vdW  Elec       q    Type
REMARK                         _______ _______ _______ _____ _____    ______ ____
ROOT
ATOM      1  N   UNL     1       4.050   4.762  16.330  0.00  0.00    +0.000 N 
ATOM      2  C   UNL     1       5.384   4.420  16.198  0.00  0.00    +0.000 C 
ATOM      3  O   UNL     1       6.120   4.100  17.133  0.00  0.00    +0.000 OA
ATOM      4  H   UNL     1       3.514   4.842  15.467  0.00  0.00    +0.000 HD
ENDROOT
BRANCH   2   5
ATOM      5  C   UNL     1       5.986   4.407  14.831  0.00  0.00    +0.000 A 
ATOM      6  C   UNL     1       5.336   3.599  13.879  0.00  0.00    +0.000 A 
ATOM      7  C   UNL     1       5.848   3.461  12.594  0.00  0.00    +0.000 A 
ATOM      8 CL   UNL     1       5.055   2.438  11.463  0.00  0.00    +0.000 Cl
ATOM      9  C   UNL     1       7.006   4.138  12.228  0.00  0.00    +0.000 A 
ATOM     10  C   UNL     1       7.653   4.962  13.154  0.00  0.00    +0.000 A 
ATOM     11  C   UNL     1       7.147   5.094  14.452  0.00  0.00    +0.000 A 
BRANCH  11  12
ATOM     12  O   UNL     1       7.809   5.895  15.345  0.00  0.00    +0.000 OA
ATOM     13  H   UNL     1       8.404   5.342  15.882  0.00  0.00    +0.000 HD
ENDBRANCH  11  12
ENDBRANCH   2   5
BRANCH   1  18
ATOM     14  C   UNL     1       1.795   4.015  19.187  0.00  0.00    +0.000 A 
ATOM     15  C   UNL     1       2.026   5.110  20.029  0.00  0.00    +0.000 A 
ATOM     16  C   UNL     1       2.890   6.117  19.618  0.00  0.00    +0.000 A 
ATOM     17  C   UNL     1       3.543   6.013  18.391  0.00  0.00    +0.000 A 
ATOM     18  C   UNL     1       3.365   4.900  17.559  0.00  0.00    +0.000 A 
ATOM     19  C   UNL     1       2.469   3.905  17.957  0.00  0.00    +0.000 A 
BRANCH  14  21
ATOM     20  O   UNL     1       0.317   2.200  18.787  0.00  0.00    +0.000 OA
ATOM     21  C   UNL     1       0.869   2.931  19.589  0.00  0.00    +0.000 C 
BRANCH  21  22
ATOM     22  O   UNL     1       0.656   2.868  20.921  0.00  0.00    +0.000 OA
ATOM     23  H   UNL     1      -0.177   2.434  21.184  0.00  0.00    +0.000 HD
ENDBRANCH  21  22
ENDBRANCH  14  21
ENDBRANCH   1  18
TORSDOF 5
ENDMDL
MODEL 2
REMARK VINA RESULT:      -7.6      1.568      1.904
REMARK  Name = 
REMARK  5 active torsions:
REMARK  status: ('A' for Active; 'I' for Inactive)
REMARK    1  A    between atoms: C_2  and  O_3
REMARK    2  A    between atoms: C_2  and  C_4
REMARK    3  A    between atoms: C_8  and  N_9
REMARK    4  A    between atoms: C_10  and  C_12
REMARK    5  A    between atoms: C_18  and  O_19
REMARK                            x       y       z     vdW  Elec       q    Type
REMARK                         _______ _______ _______ _____ _____    ______ ____
ROOT
ATOM      1  N   UNL     1       4.264   3.553  16.322  0.00  0.00    +0.000 N 
ATOM      2  C   UNL     1       5.130   4.576  15.981  0.00  0.00    +0.000 C 
ATOM      3  O   UNL     1       5.364   5.558  16.686  0.00  0.00    +0.000 OA
ATOM      4  H   UNL     1       4.286   2.722  15.732  0.00  0.00    +0.000 HD
ENDROOT
BRANCH   2   5
ATOM      5  C   UNL     1       5.861   4.488  14.682  0.00  0.00    +0.000 A 
ATOM      6  C   UNL     1       5.259   3.694  13.688  0.00  0.00    +0.000 A 
ATOM      7  C   UNL     1       5.886   3.490  12.464  0.00  0.00    +0.000 A 
ATOM      8 CL   UNL     1       5.145   2.485  11.282  0.00  0.00    +0.000 Cl
ATOM      9  C   UNL     1       7.114   4.085  12.201  0.00  0.00    +0.000 A 
ATOM     10  C   UNL     1       7.717   4.893  13.168  0.00  0.00    +0.000 A 
ATOM     11  C   UNL     1       7.095   5.093  14.406  0.00  0.00    +0.000 A 
BRANCH  11  12
ATOM     12  O   UNL     1       7.715   5.877  15.343  0.00  0.00    +0.000 OA
ATOM     13  H   UNL     1       8.533   6.240  14.957  0.00  0.00    +0.000 HD
ENDBRANCH  11  12
ENDBRANCH   2   5
BRANCH   1  18
ATOM     14  C   UNL     1       3.132   2.959  19.812  0.00  0.00    +0.000 A 
ATOM     15  C   UNL     1       1.855   3.533  19.800  0.00  0.00    +0.000 A 
ATOM     16  C   UNL     1       1.355   4.067  18.619  0.00  0.00    +0.000 A 
ATOM     17  C   UNL     1       2.140   4.057  17.467  0.00  0.00    +0.000 A 
ATOM     18  C   UNL     1       3.441   3.535  17.472  0.00  0.00    +0.000 A 
ATOM     19  C   UNL     1       3.928   2.967  18.652  0.00  0.00    +0.000 A 
BRANCH  14  21
ATOM     20  O   UNL     1       4.805   1.889  21.113  0.00  0.00    +0.000 OA
ATOM     21  C   UNL     1       3.688   2.370  21.051  0.00  0.00    +0.000 C 
BRANCH  21  22
ATOM     22  O   UNL     1       2.821   2.368  22.086  0.00  0.00    +0.000 OA
ATOM     23  H   UNL     1       2.153   3.078  22.065  0.00  0.00    +0.000 HD
ENDBRANCH  21  22
ENDBRANCH  14  21
ENDBRANCH   1  18
TORSDOF 5
ENDMDL
MODEL 3
REMARK VINA RESULT:      -7.3      1.433      1.476
REMARK  Name = 
REMARK  5 active torsions:
REMARK  status: ('A' for Active; 'I' for Inactive)
REMARK    1  A    between atoms: C_2  and  O_3
REMARK    2  A    between atoms: C_2  and  C_4
REMARK    3  A    between atoms: C_8  and  N_9
REMARK    4  A    between atoms: C_10  and  C_12
REMARK    5  A    between atoms: C_18  and  O_19
REMARK                            x       y       z     vdW  Elec       q    Type
REMARK                         _______ _______ _______ _____ _____    ______ ____
ROOT
ATOM      1  N   UNL     1       4.999   3.322  16.740  0.00  0.00    +0.000 N 
ATOM      2  C   UNL     1       5.195   4.505  16.051  0.00  0.00    +0.000 C 
ATOM      3  O   UNL     1       4.878   5.619  16.471  0.00  0.00    +0.000 OA
ATOM      4  H   UNL     1       5.454   2.493  16.359  0.00  0.00    +0.000 HD
ENDROOT
BRANCH   2   5
ATOM      5  C   UNL     1       5.858   4.452  14.713  0.00  0.00    +0.000 A 
ATOM      6  C   UNL     1       5.215   3.666  13.738  0.00  0.00    +0.000 A 
ATOM      7  C   UNL     1       5.779   3.492  12.480  0.00  0.00    +0.000 A 
ATOM      8 CL   UNL     1       4.991   2.496  11.320  0.00  0.00    +0.000 Cl
ATOM      9  C   UNL     1       6.983   4.110  12.163  0.00  0.00    +0.000 A 
ATOM     10  C   UNL     1       7.624   4.911  13.112  0.00  0.00    +0.000 A 
ATOM     11  C   UNL     1       7.066   5.079  14.384  0.00  0.00    +0.000 A 
BRANCH  11  12
ATOM     12  O   UNL     1       7.723   5.857  15.301  0.00  0.00    +0.000 OA
ATOM     13  H   UNL     1       8.323   5.291  15.821  0.00  0.00    +0.000 HD
ENDBRANCH  11  12
ENDBRANCH   2   5
BRANCH   1  18
ATOM     14  C   UNL     1       2.230   2.889  19.180  0.00  0.00    +0.000 A 
ATOM     15  C   UNL     1       2.919   2.900  20.400  0.00  0.00    +0.000 A 
ATOM     16  C   UNL     1       4.293   3.105  20.408  0.00  0.00    +0.000 A 
ATOM     17  C   UNL     1       4.977   3.263  19.203  0.00  0.00    +0.000 A 
ATOM     18  C   UNL     1       4.313   3.202  17.970  0.00  0.00    +0.000 A 
ATOM     19  C   UNL     1       2.927   3.032  17.966  0.00  0.00    +0.000 A 
BRANCH  14  21
ATOM     20  O   UNL     1       0.212   2.012  18.288  0.00  0.00    +0.000 OA
ATOM     21  C   UNL     1       0.764   2.687  19.138  0.00  0.00    +0.000 C 
BRANCH  21  22
ATOM     22  O   UNL     1       0.096   3.364  20.097  0.00  0.00    +0.000 OA
ATOM     23  H   UNL     1      -0.326   2.807  20.777  0.00  0.00    +0.000 HD
ENDBRANCH  21  22
ENDBRANCH  14  21
ENDBRANCH   1  18
TORSDOF 5
ENDMDL
MODEL 4
REMARK VINA RESULT:      -7.3      4.625      7.968
REMARK  Name = 
REMARK  5 active torsions:
REMARK  status: ('A' for Active; 'I' for Inactive)
REMARK    1  A    between atoms: C_2  and  O_3
REMARK    2  A    between atoms: C_2  and  C_4
REMARK    3  A    between atoms: C_8  and  N_9
REMARK    4  A    between atoms: C_10  and  C_12
REMARK    5  A    between atoms: C_18  and  O_19
REMARK                            x       y       z     vdW  Elec       q    Type
REMARK                         _______ _______ _______ _____ _____    ______ ____
ROOT
ATOM      1  N   UNL     1       2.944   7.246  18.180  0.00  0.00    +0.000 N 
ATOM      2  C   UNL     1       2.259   7.337  19.378  0.00  0.00    +0.000 C 
ATOM      3  O   UNL     1       2.233   6.455  20.238  0.00  0.00    +0.000 OA
ATOM      4  H   UNL     1       3.023   8.104  17.634  0.00  0.00    +0.000 HD
ENDROOT
BRANCH   2   5
ATOM      5  C   UNL     1       1.514   8.596  19.681  0.00  0.00    +0.000 A 
ATOM      6  C   UNL     1       1.005   8.712  20.988  0.00  0.00    +0.000 A 
ATOM      7  C   UNL     1       0.239   9.811  21.359  0.00  0.00    +0.000 A 
ATOM      8 CL   UNL     1      -0.402   9.909  22.951  0.00  0.00    +0.000 Cl
ATOM      9  C   UNL     1      -0.019  10.823  20.441  0.00  0.00    +0.000 A 
ATOM     10  C   UNL     1       0.497  10.735  19.145  0.00  0.00    +0.000 A 
ATOM     11  C   UNL     1       1.258   9.624  18.764  0.00  0.00    +0.000 A 
BRANCH  11  12
ATOM     12  O   UNL     1       1.739   9.555  17.483  0.00  0.00    +0.000 OA
ATOM     13  H   UNL     1       1.484  10.368  17.008  0.00  0.00    +0.000 HD
ENDBRANCH  11  12
ENDBRANCH   2   5
BRANCH   1  18
ATOM     14  C   UNL     1       5.666   5.048  16.927  0.00  0.00    +0.000 A 
ATOM     15  C   UNL     1       5.019   3.808  16.848  0.00  0.00    +0.000 A 
ATOM     16  C   UNL     1       3.669   3.720  17.159  0.00  0.00    +0.000 A 
ATOM     17  C   UNL     1       2.979   4.856  17.580  0.00  0.00    +0.000 A 
ATOM     18  C   UNL     1       3.621   6.094  17.717  0.00  0.00    +0.000 A 
ATOM     19  C   UNL     1       4.971   6.188  17.369  0.00  0.00    +0.000 A 
BRANCH  14  21
ATOM     20  O   UNL     1       7.545   6.095  15.920  0.00  0.00    +0.000 OA
ATOM     21  C   UNL     1       7.102   5.179  16.589  0.00  0.00    +0.000 C 
BRANCH  21  22
ATOM     22  O   UNL     1       7.860   4.159  17.045  0.00  0.00    +0.000 OA
ATOM     23  H   UNL     1       8.823   4.290  16.956  0.00  0.00    +0.000 HD
ENDBRANCH  21  22
ENDBRANCH  14  21
ENDBRANCH   1  18
TORSDOF 5
ENDMDL
MODEL 5
REMARK VINA RESULT:      -7.2      1.558      1.781
REMARK  Name = 
REMARK  5 active torsions:
REMARK  status: ('A' for Active; 'I' for Inactive)
REMARK    1  A    between atoms: C_2  and  O_3
REMARK    2  A    between atoms: C_2  and  C_4
REMARK    3  A    between atoms: C_8  and  N_9
REMARK    4  A    between atoms: C_10  and  C_12
REMARK    5  A    between atoms: C_18  and  O_19
REMARK                            x       y       z     vdW  Elec       q    Type
REMARK                         _______ _______ _______ _____ _____    ______ ____
ROOT
ATOM      1  N   UNL     1       4.504   4.297  16.167  0.00  0.00    +0.000 N 
ATOM      2  C   UNL     1       5.853   4.366  15.866  0.00  0.00    +0.000 C 
ATOM      3  O   UNL     1       6.753   4.438  16.704  0.00  0.00    +0.000 OA
ATOM      4  H   UNL     1       3.877   4.073  15.395  0.00  0.00    +0.000 HD
ENDROOT
BRANCH   2   5
ATOM      5  C   UNL     1       6.268   4.326  14.432  0.00  0.00    +0.000 A 
ATOM      6  C   UNL     1       5.501   3.495  13.592  0.00  0.00    +0.000 A 
ATOM      7  C   UNL     1       5.839   3.332  12.253  0.00  0.00    +0.000 A 
ATOM      8 CL   UNL     1       4.908   2.282  11.259  0.00  0.00    +0.000 Cl
ATOM      9  C   UNL     1       6.935   4.003  11.723  0.00  0.00    +0.000 A 
ATOM     10  C   UNL     1       7.694   4.848  12.537  0.00  0.00    +0.000 A 
ATOM     11  C   UNL     1       7.365   5.007  13.888  0.00  0.00    +0.000 A 
BRANCH  11  12
ATOM     12  O   UNL     1       8.135   5.829  14.668  0.00  0.00    +0.000 OA
ATOM     13  H   UNL     1       9.015   5.423  14.778  0.00  0.00    +0.000 HD
ENDBRANCH  11  12
ENDBRANCH   2   5
BRANCH   1  18
ATOM     14  C   UNL     1       3.673   3.500  19.700  0.00  0.00    +0.000 A 
ATOM     15  C   UNL     1       2.927   4.623  20.079  0.00  0.00    +0.000 A 
ATOM     16  C   UNL     1       2.659   5.614  19.144  0.00  0.00    +0.000 A 
ATOM     17  C   UNL     1       3.162   5.499  17.848  0.00  0.00    +0.000 A 
ATOM     18  C   UNL     1       3.955   4.409  17.465  0.00  0.00    +0.000 A 
ATOM     19  C   UNL     1       4.194   3.396  18.397  0.00  0.00    +0.000 A 
BRANCH  14  21
ATOM     20  O   UNL     1       3.294   2.225  21.667  0.00  0.00    +0.000 OA
ATOM     21  C   UNL     1       3.965   2.420  20.669  0.00  0.00    +0.000 C 
BRANCH  21  22
ATOM     22  O   UNL     1       5.075   1.710  20.372  0.00  0.00    +0.000 OA
ATOM     23  H   UNL     1       5.674   1.547  21.124  0.00  0.00    +0.000 HD
ENDBRANCH  21  22
ENDBRANCH  14  21
ENDBRANCH   1  18
TORSDOF 5
ENDMDL
MODEL 6
REMARK VINA RESULT:      -7.2      3.344      7.175
REMARK  Name = 
REMARK  5 active torsions:
REMARK  status: ('A' for Active; 'I' for Inactive)
REMARK    1  A    between atoms: C_2  and  O_3
REMARK    2  A    between atoms: C_2  and  C_4
REMARK    3  A    between atoms: C_8  and  N_9
REMARK    4  A    between atoms: C_10  and  C_12
REMARK    5  A    between atoms: C_18  and  O_19
REMARK                            x       y       z     vdW  Elec       q    Type
REMARK                         _______ _______ _______ _____ _____    ______ ____
ROOT
ATOM      1  N   UNL     1       4.756   4.360  16.909  0.00  0.00    +0.000 N 
ATOM      2  C   UNL     1       5.189   4.137  18.204  0.00  0.00    +0.000 C 
ATOM      3  O   UNL     1       6.370   4.115  18.552  0.00  0.00    +0.000 OA
ATOM      4  H   UNL     1       3.757   4.519  16.785  0.00  0.00    +0.000 HD
ENDROOT
BRANCH   2   5
ATOM      5  C   UNL     1       4.167   3.929  19.273  0.00  0.00    +0.000 A 
ATOM      6  C   UNL     1       3.308   5.016  19.523  0.00  0.00    +0.000 A 
ATOM      7  C   UNL     1       2.363   4.957  20.541  0.00  0.00    +0.000 A 
ATOM      8 CL   UNL     1       1.352   6.313  20.849  0.00  0.00    +0.000 Cl
ATOM      9  C   UNL     1       2.244   3.809  21.316  0.00  0.00    +0.000 A 
ATOM     10  C   UNL     1       3.073   2.712  21.068  0.00  0.00    +0.000 A 
ATOM     11  C   UNL     1       4.034   2.772  20.052  0.00  0.00    +0.000 A 
BRANCH  11  12
ATOM     12  O   UNL     1       4.846   1.689  19.840  0.00  0.00    +0.000 OA
ATOM     13  H   UNL     1       4.964   1.215  20.683  0.00  0.00    +0.000 HD
ENDBRANCH  11  12
ENDBRANCH   2   5
BRANCH   1  18
ATOM     14  C   UNL     1       6.110   3.913  13.478  0.00  0.00    +0.000 A 
ATOM     15  C   UNL     1       7.222   4.764  13.495  0.00  0.00    +0.000 A 
ATOM     16  C   UNL     1       7.547   5.441  14.663  0.00  0.00    +0.000 A 
ATOM     17  C   UNL     1       6.746   5.294  15.795  0.00  0.00    +0.000 A 
ATOM     18  C   UNL     1       5.600   4.488  15.782  0.00  0.00    +0.000 A 
ATOM     19  C   UNL     1       5.294   3.781  14.616  0.00  0.00    +0.000 A 
BRANCH  14  21
ATOM     20  O   UNL     1       4.690   3.333  11.664  0.00  0.00    +0.000 OA
ATOM     21  C   UNL     1       5.744   3.167  12.252  0.00  0.00    +0.000 C 
BRANCH  21  22
ATOM     22  O   UNL     1       6.663   2.249  11.882  0.00  0.00    +0.000 OA
ATOM     23  H   UNL     1       7.501   2.618  11.545  0.00  0.00    +0.000 HD
ENDBRANCH  21  22
ENDBRANCH  14  21
ENDBRANCH   1  18
TORSDOF 5
ENDMDL
MODEL 7
REMARK VINA RESULT:      -7.2      1.633      2.193
REMARK  Name = 
REMARK  5 active torsions:
REMARK  status: ('A' for Active; 'I' for Inactive)
REMARK    1  A    between atoms: C_2  and  O_3
REMARK    2  A    between atoms: C_2  and  C_4
REMARK    3  A    between atoms: C_8  and  N_9
REMARK    4  A    between atoms: C_10  and  C_12
REMARK    5  A    between atoms: C_18  and  O_19
REMARK                            x       y       z     vdW  Elec       q    Type
REMARK                         _______ _______ _______ _____ _____    ______ ____
ROOT
ATOM      1  N   UNL     1       4.031   4.133  16.212  0.00  0.00    +0.000 N 
ATOM      2  C   UNL     1       5.398   4.302  16.084  0.00  0.00    +0.000 C 
ATOM      3  O   UNL     1       6.179   4.428  17.028  0.00  0.00    +0.000 OA
ATOM      4  H   UNL     1       3.523   3.874  15.366  0.00  0.00    +0.000 HD
ENDROOT
BRANCH   2   5
ATOM      5  C   UNL     1       5.991   4.311  14.712  0.00  0.00    +0.000 A 
ATOM      6  C   UNL     1       5.352   3.495  13.760  0.00  0.00    +0.000 A 
ATOM      7  C   UNL     1       5.858   3.376  12.471  0.00  0.00    +0.000 A 
ATOM      8 CL   UNL     1       5.080   2.343  11.338  0.00  0.00    +0.000 Cl
ATOM      9  C   UNL     1       6.999   4.080  12.102  0.00  0.00    +0.000 A 
ATOM     10  C   UNL     1       7.634   4.912  13.028  0.00  0.00    +0.000 A 
ATOM     11  C   UNL     1       7.134   5.025  14.330  0.00  0.00    +0.000 A 
BRANCH  11  12
ATOM     12  O   UNL     1       7.785   5.835  15.224  0.00  0.00    +0.000 OA
ATOM     13  H   UNL     1       7.527   6.760  15.055  0.00  0.00    +0.000 HD
ENDBRANCH  11  12
ENDBRANCH   2   5
BRANCH   1  18
ATOM     14  C   UNL     1       2.366   5.501  19.239  0.00  0.00    +0.000 A 
ATOM     15  C   UNL     1       1.847   4.342  19.829  0.00  0.00    +0.000 A 
ATOM     16  C   UNL     1       2.098   3.107  19.246  0.00  0.00    +0.000 A 
ATOM     17  C   UNL     1       2.834   3.034  18.065  0.00  0.00    +0.000 A 
ATOM     18  C   UNL     1       3.317   4.187  17.431  0.00  0.00    +0.000 A 
ATOM     19  C   UNL     1       3.093   5.426  18.037  0.00  0.00    +0.000 A 
BRANCH  14  21
ATOM     20  O   UNL     1       2.244   7.873  19.220  0.00  0.00    +0.000 OA
ATOM     21  C   UNL     1       2.127   6.832  19.842  0.00  0.00    +0.000 C 
BRANCH  21  22
ATOM     22  O   UNL     1       1.823   6.784  21.157  0.00  0.00    +0.000 OA
ATOM     23  H   UNL     1       2.402   7.317  21.733  0.00  0.00    +0.000 HD
ENDBRANCH  21  22
ENDBRANCH  14  21
ENDBRANCH   1  18
TORSDOF 5
ENDMDL
MODEL 8
REMARK VINA RESULT:      -7.2      3.132      7.224
REMARK  Name = 
REMARK  5 active torsions:
REMARK  status: ('A' for Active; 'I' for Inactive)
REMARK    1  A    between atoms: C_2  and  O_3
REMARK    2  A    between atoms: C_2  and  C_4
REMARK    3  A    between atoms: C_8  and  N_9
REMARK    4  A    between atoms: C_10  and  C_12
REMARK    5  A    between atoms: C_18  and  O_19
REMARK                            x       y       z     vdW  Elec       q    Type
REMARK                         _______ _______ _______ _____ _____    ______ ____
ROOT
ATOM      1  N   UNL     1       4.358   4.667  16.812  0.00  0.00    +0.000 N 
ATOM      2  C   UNL     1       3.905   3.562  17.510  0.00  0.00    +0.000 C 
ATOM      3  O   UNL     1       4.356   2.422  17.383  0.00  0.00    +0.000 OA
ATOM      4  H   UNL     1       4.019   5.575  17.129  0.00  0.00    +0.000 HD
ENDROOT
BRANCH   2   5
ATOM      5  C   UNL     1       2.811   3.747  18.509  0.00  0.00    +0.000 A 
ATOM      6  C   UNL     1       2.701   5.033  19.070  0.00  0.00    +0.000 A 
ATOM      7  C   UNL     1       1.761   5.300  20.059  0.00  0.00    +0.000 A 
ATOM      8 CL   UNL     1       1.673   6.870  20.754  0.00  0.00    +0.000 Cl
ATOM      9  C   UNL     1       0.902   4.297  20.495  0.00  0.00    +0.000 A 
ATOM     10  C   UNL     1       0.983   3.020  19.933  0.00  0.00    +0.000 A 
ATOM     11  C   UNL     1       1.936   2.744  18.946  0.00  0.00    +0.000 A 
BRANCH  11  12
ATOM     12  O   UNL     1       2.005   1.479  18.424  0.00  0.00    +0.000 OA
ATOM     13  H   UNL     1       2.939   1.260  18.252  0.00  0.00    +0.000 HD
ENDBRANCH  11  12
ENDBRANCH   2   5
BRANCH   1  18
ATOM     14  C   UNL     1       5.968   3.941  13.543  0.00  0.00    +0.000 A 
ATOM     15  C   UNL     1       7.195   4.604  13.674  0.00  0.00    +0.000 A 
ATOM     16  C   UNL     1       7.503   5.243  14.868  0.00  0.00    +0.000 A 
ATOM     17  C   UNL     1       6.576   5.249  15.911  0.00  0.00    +0.000 A 
ATOM     18  C   UNL     1       5.323   4.636  15.779  0.00  0.00    +0.000 A 
ATOM     19  C   UNL     1       5.029   3.964  14.590  0.00  0.00    +0.000 A 
BRANCH  14  21
ATOM     20  O   UNL     1       4.571   3.430  11.692  0.00  0.00    +0.000 OA
ATOM     21  C   UNL     1       5.616   3.238  12.288  0.00  0.00    +0.000 C 
BRANCH  21  22
ATOM     22  O   UNL     1       6.535   2.328  11.900  0.00  0.00    +0.000 OA
ATOM     23  H   UNL     1       6.625   2.219  10.935  0.00  0.00    +0.000 HD
ENDBRANCH  21  22
ENDBRANCH  14  21
ENDBRANCH   1  18
TORSDOF 5
ENDMDL
MODEL 9
REMARK VINA RESULT:      -7.0      4.516      7.963
REMARK  Name = 
REMARK  5 active torsions:
REMARK  status: ('A' for Active; 'I' for Inactive)
REMARK    1  A    between atoms: C_2  and  O_3
REMARK    2  A    between atoms: C_2  and  C_4
REMARK    3  A    between atoms: C_8  and  N_9
REMARK    4  A    between atoms: C_10  and  C_12
REMARK    5  A    between atoms: C_18  and  O_19
REMARK                            x       y       z     vdW  Elec       q    Type
REMARK                         _______ _______ _______ _____ _____    ______ ____
ROOT
ATOM      1  N   UNL     1       2.430   6.841  18.700  0.00  0.00    +0.000 N 
ATOM      2  C   UNL     1       2.167   8.128  18.269  0.00  0.00    +0.000 C 
ATOM      3  O   UNL     1       2.568   8.606  17.206  0.00  0.00    +0.000 OA
ATOM      4  H   UNL     1       1.904   6.516  19.511  0.00  0.00    +0.000 HD
ENDROOT
BRANCH   2   5
ATOM      5  C   UNL     1       1.317   9.009  19.126  0.00  0.00    +0.000 A 
ATOM      6  C   UNL     1       0.619  10.031  18.457  0.00  0.00    +0.000 A 
ATOM      7  C   UNL     1      -0.149  10.949  19.164  0.00  0.00    +0.000 A 
ATOM      8 CL   UNL     1      -0.962  12.211  18.325  0.00  0.00    +0.000 Cl
ATOM      9  C   UNL     1      -0.248  10.856  20.548  0.00  0.00    +0.000 A 
ATOM     10  C   UNL     1       0.421   9.834  21.227  0.00  0.00    +0.000 A 
ATOM     11  C   UNL     1       1.205   8.915  20.519  0.00  0.00    +0.000 A 
BRANCH  11  12
ATOM     12  O   UNL     1       1.864   7.933  21.210  0.00  0.00    +0.000 OA
ATOM     13  H   UNL     1       2.178   7.261  20.578  0.00  0.00    +0.000 HD
ENDBRANCH  11  12
ENDBRANCH   2   5
BRANCH   1  18
ATOM     14  C   UNL     1       5.463   5.394  17.113  0.00  0.00    +0.000 A 
ATOM     15  C   UNL     1       5.029   4.102  16.791  0.00  0.00    +0.000 A 
ATOM     16  C   UNL     1       3.715   3.736  17.054  0.00  0.00    +0.000 A 
ATOM     17  C   UNL     1       2.852   4.644  17.666  0.00  0.00    +0.000 A 
ATOM     18  C   UNL     1       3.282   5.923  18.044  0.00  0.00    +0.000 A 
ATOM     19  C   UNL     1       4.594   6.301  17.746  0.00  0.00    +0.000 A 
BRANCH  14  21
ATOM     20  O   UNL     1       7.191   6.988  16.779  0.00  0.00    +0.000 OA
ATOM     21  C   UNL     1       6.853   5.819  16.833  0.00  0.00    +0.000 C 
BRANCH  21  22
ATOM     22  O   UNL     1       7.696   4.792  16.591  0.00  0.00    +0.000 OA
ATOM     23  H   UNL     1       7.744   4.123  17.300  0.00  0.00    +0.000 HD
ENDBRANCH  21  22
ENDBRANCH  14  21
ENDBRANCH   1  18
TORSDOF 5
ENDMDL
