MODEL 1
REMARK VINA RESULT:      -8.3      0.000      0.000
REMARK  Name = 
REMARK  6 active torsions:
REMARK  status: ('A' for Active; 'I' for Inactive)
REMARK    1  A    between atoms: C_1  and  N_2
REMARK    2  A    between atoms: N_2  and  S_3
REMARK    3  A    between atoms: S_3  and  C_6
REMARK    4  A    between atoms: C_9  and  C_10
REMARK    5  A    between atoms: N_12  and  N_13
REMARK    6  A    between atoms: C_22  and  O_23
REMARK                            x       y       z     vdW  Elec       q    Type
REMARK                         _______ _______ _______ _____ _____    ______ ____
ROOT
ATOM      1  C   UNL     1       2.222   6.314  20.202  0.00  0.00    +0.000 C 
ATOM      2  O   UNL     1       1.505   5.413  20.609  0.00  0.00    +0.000 OA
ATOM      3  N   UNL     1       2.111   7.646  20.522  0.00  0.00    +0.000 N 
ATOM      4  H   UNL     1       2.847   8.287  20.228  0.00  0.00    +0.000 HD
ENDROOT
BRANCH   3   5
ATOM      5  N   UNL     1       1.013   8.280  21.094  0.00  0.00    +0.000 NA
ATOM      6  C   UNL     1       0.512   9.198  20.311  0.00  0.00    +0.000 C 
ATOM      7  C   UNL     1       0.876   9.278  18.823  0.00  0.00    +0.000 C 
ATOM      8  C   UNL     1      -0.078  10.316  18.299  0.00  0.00    +0.000 C 
ATOM      9  C   UNL     1      -0.083  11.190  19.509  0.00  0.00    +0.000 A 
ATOM     10  C   UNL     1       0.434  12.473  19.630  0.00  0.00    +0.000 A 
ATOM     11 CL   UNL     1       1.166  13.268  18.291  0.00  0.00    +0.000 Cl
ATOM     12  C   UNL     1       0.522  13.058  20.892  0.00  0.00    +0.000 A 
ATOM     13  C   UNL     1       0.006  12.386  22.004  0.00  0.00    +0.000 A 
ATOM     14  C   UNL     1      -0.439  11.070  21.876  0.00  0.00    +0.000 A 
ATOM     15  C   UNL     1      -0.302  10.417  20.659  0.00  0.00    +0.000 A 
BRANCH  14  16
ATOM     16  O   UNL     1      -1.261  10.575  22.852  0.00  0.00    +0.000 OA
ATOM     17  H   UNL     1      -2.147  10.491  22.452  0.00  0.00    +0.000 HD
ENDBRANCH  14  16
ENDBRANCH   3   5
BRANCH   1  21
ATOM     18  C   UNL     1       5.567   5.671  17.475  0.00  0.00    +0.000 A 
ATOM     19  C   UNL     1       5.451   4.884  18.624  0.00  0.00    +0.000 A 
ATOM     20  C   UNL     1       4.345   5.053  19.483  0.00  0.00    +0.000 A 
ATOM     21  C   UNL     1       3.338   5.991  19.206  0.00  0.00    +0.000 A 
ATOM     22  C   UNL     1       3.452   6.747  18.028  0.00  0.00    +0.000 A 
ATOM     23  C   UNL     1       4.561   6.592  17.167  0.00  0.00    +0.000 A 
BRANCH  18  24
ATOM     24  S   UNL     1       7.091   5.660  16.548  0.00  0.00    +0.000 S 
ATOM     25  O   UNL     1       7.831   4.482  16.945  0.00  0.00    +0.000 OA
ATOM     26  O   UNL     1       7.675   6.978  16.633  0.00  0.00    +0.000 OA
BRANCH  24  28
ATOM     27  C   UNL     1       6.064   4.062  14.632  0.00  0.00    +0.000 C 
ATOM     28  N   UNL     1       6.639   5.368  14.951  0.00  0.00    +0.000 NA
ATOM     29  H   UNL     1       6.133   6.178  14.587  0.00  0.00    +0.000 HD
ENDBRANCH  24  28
ENDBRANCH  18  24
ENDBRANCH   1  21
TORSDOF 5
ENDMDL
MODEL 2
REMARK VINA RESULT:      -8.2      0.963      1.346
REMARK  Name = 
REMARK  6 active torsions:
REMARK  status: ('A' for Active; 'I' for Inactive)
REMARK    1  A    between atoms: C_1  and  N_2
REMARK    2  A    between atoms: N_2  and  S_3
REMARK    3  A    between atoms: S_3  and  C_6
REMARK    4  A    between atoms: C_9  and  C_10
REMARK    5  A    between atoms: N_12  and  N_13
REMARK    6  A    between atoms: C_22  and  O_23
REMARK                            x       y       z     vdW  Elec       q    Type
REMARK                         _______ _______ _______ _____ _____    ______ ____
ROOT
ATOM      1  C   UNL     1       2.154   6.387  20.265  0.00  0.00    +0.000 C 
ATOM      2  O   UNL     1       1.503   5.489  20.775  0.00  0.00    +0.000 OA
ATOM      3  N   UNL     1       2.009   7.732  20.505  0.00  0.00    +0.000 N 
ATOM      4  H   UNL     1       2.697   8.379  20.122  0.00  0.00    +0.000 HD
ENDROOT
BRANCH   3   5
ATOM      5  N   UNL     1       0.924   8.362  21.107  0.00  0.00    +0.000 NA
ATOM      6  C   UNL     1       0.401   9.281  20.341  0.00  0.00    +0.000 C 
ATOM      7  C   UNL     1       0.727   9.368  18.844  0.00  0.00    +0.000 C 
ATOM      8  C   UNL     1      -0.242  10.405  18.349  0.00  0.00    +0.000 C 
ATOM      9  C   UNL     1      -0.219  11.274  19.563  0.00  0.00    +0.000 A 
ATOM     10  C   UNL     1       0.299  12.558  19.675  0.00  0.00    +0.000 A 
ATOM     11 CL   UNL     1       0.994  13.360  18.321  0.00  0.00    +0.000 Cl
ATOM     12  C   UNL     1       0.418  13.139  20.936  0.00  0.00    +0.000 A 
ATOM     13  C   UNL     1      -0.068  12.462  22.059  0.00  0.00    +0.000 A 
ATOM     14  C   UNL     1      -0.513  11.145  21.937  0.00  0.00    +0.000 A 
ATOM     15  C   UNL     1      -0.406  10.497  20.715  0.00  0.00    +0.000 A 
BRANCH  14  16
ATOM     16  O   UNL     1      -1.308  10.645  22.932  0.00  0.00    +0.000 OA
ATOM     17  H   UNL     1      -0.913   9.795  23.202  0.00  0.00    +0.000 HD
ENDBRANCH  14  16
ENDBRANCH   3   5
BRANCH   1  21
ATOM     18  C   UNL     1       5.362   5.664  17.396  0.00  0.00    +0.000 A 
ATOM     19  C   UNL     1       5.251   4.851  18.527  0.00  0.00    +0.000 A 
ATOM     20  C   UNL     1       4.187   5.048  19.432  0.00  0.00    +0.000 A 
ATOM     21  C   UNL     1       3.216   6.040  19.218  0.00  0.00    +0.000 A 
ATOM     22  C   UNL     1       3.323   6.823  18.057  0.00  0.00    +0.000 A 
ATOM     23  C   UNL     1       4.391   6.640  17.151  0.00  0.00    +0.000 A 
BRANCH  18  24
ATOM     24  S   UNL     1       6.849   5.608  16.412  0.00  0.00    +0.000 S 
ATOM     25  O   UNL     1       6.451   5.634  15.022  0.00  0.00    +0.000 OA
ATOM     26  O   UNL     1       7.690   4.556  16.934  0.00  0.00    +0.000 OA
BRANCH  24  28
ATOM     27  C   UNL     1       7.901   7.476  18.051  0.00  0.00    +0.000 C 
ATOM     28  N   UNL     1       7.610   7.089  16.671  0.00  0.00    +0.000 NA
ATOM     29  H   UNL     1       8.379   7.198  16.007  0.00  0.00    +0.000 HD
ENDBRANCH  24  28
ENDBRANCH  18  24
ENDBRANCH   1  21
TORSDOF 5
ENDMDL
MODEL 3
REMARK VINA RESULT:      -7.9      0.623      1.127
REMARK  Name = 
REMARK  6 active torsions:
REMARK  status: ('A' for Active; 'I' for Inactive)
REMARK    1  A    between atoms: C_1  and  N_2
REMARK    2  A    between atoms: N_2  and  S_3
REMARK    3  A    between atoms: S_3  and  C_6
REMARK    4  A    between atoms: C_9  and  C_10
REMARK    5  A    between atoms: N_12  and  N_13
REMARK    6  A    between atoms: C_22  and  O_23
REMARK                            x       y       z     vdW  Elec       q    Type
REMARK                         _______ _______ _______ _____ _____    ______ ____
ROOT
ATOM      1  C   UNL     1       2.386   6.303  19.953  0.00  0.00    +0.000 C 
ATOM      2  O   UNL     1       1.564   5.404  20.029  0.00  0.00    +0.000 OA
ATOM      3  N   UNL     1       2.291   7.541  20.541  0.00  0.00    +0.000 N 
ATOM      4  H   UNL     1       3.099   8.162  20.518  0.00  0.00    +0.000 HD
ENDROOT
BRANCH   3   5
ATOM      5  N   UNL     1       1.145   8.135  21.060  0.00  0.00    +0.000 NA
ATOM      6  C   UNL     1       0.663   9.052  20.265  0.00  0.00    +0.000 C 
ATOM      7  C   UNL     1       1.107   9.169  18.802  0.00  0.00    +0.000 C 
ATOM      8  C   UNL     1       0.155  10.189  18.242  0.00  0.00    +0.000 C 
ATOM      9  C   UNL     1       0.057  11.041  19.464  0.00  0.00    +0.000 A 
ATOM     10  C   UNL     1       0.530  12.335  19.635  0.00  0.00    +0.000 A 
ATOM     11 CL   UNL     1       1.313  13.174  18.352  0.00  0.00    +0.000 Cl
ATOM     12  C   UNL     1       0.531  12.901  20.909  0.00  0.00    +0.000 A 
ATOM     13  C   UNL     1      -0.027  12.195  21.979  0.00  0.00    +0.000 A 
ATOM     14  C   UNL     1      -0.427  10.870  21.805  0.00  0.00    +0.000 A 
ATOM     15  C   UNL     1      -0.203  10.242  20.587  0.00  0.00    +0.000 A 
BRANCH  14  16
ATOM     16  O   UNL     1      -1.287  10.335  22.725  0.00  0.00    +0.000 OA
ATOM     17  H   UNL     1      -2.174  10.353  22.318  0.00  0.00    +0.000 HD
ENDBRANCH  14  16
ENDBRANCH   3   5
BRANCH   1  21
ATOM     18  C   UNL     1       5.832   5.424  17.425  0.00  0.00    +0.000 A 
ATOM     19  C   UNL     1       4.859   6.321  16.978  0.00  0.00    +0.000 A 
ATOM     20  C   UNL     1       3.769   6.647  17.811  0.00  0.00    +0.000 A 
ATOM     21  C   UNL     1       3.640   6.101  19.098  0.00  0.00    +0.000 A 
ATOM     22  C   UNL     1       4.647   5.230  19.545  0.00  0.00    +0.000 A 
ATOM     23  C   UNL     1       5.737   4.889  18.714  0.00  0.00    +0.000 A 
BRANCH  18  24
ATOM     24  S   UNL     1       7.046   4.796  16.278  0.00  0.00    +0.000 S 
ATOM     25  O   UNL     1       8.081   4.148  17.052  0.00  0.00    +0.000 OA
ATOM     26  O   UNL     1       7.357   5.846  15.337  0.00  0.00    +0.000 OA
BRANCH  24  28
ATOM     27  C   UNL     1       5.937   3.754  14.049  0.00  0.00    +0.000 C 
ATOM     28  N   UNL     1       6.273   3.543  15.456  0.00  0.00    +0.000 NA
ATOM     29  H   UNL     1       6.733   2.657  15.675  0.00  0.00    +0.000 HD
ENDBRANCH  24  28
ENDBRANCH  18  24
ENDBRANCH   1  21
TORSDOF 5
ENDMDL
MODEL 4
REMARK VINA RESULT:      -7.9      1.036      1.060
REMARK  Name = 
REMARK  6 active torsions:
REMARK  status: ('A' for Active; 'I' for Inactive)
REMARK    1  A    between atoms: C_1  and  N_2
REMARK    2  A    between atoms: N_2  and  S_3
REMARK    3  A    between atoms: S_3  and  C_6
REMARK    4  A    between atoms: C_9  and  C_10
REMARK    5  A    between atoms: N_12  and  N_13
REMARK    6  A    between atoms: C_22  and  O_23
REMARK                            x       y       z     vdW  Elec       q    Type
REMARK                         _______ _______ _______ _____ _____    ______ ____
ROOT
ATOM      1  C   UNL     1       2.263   5.826  19.994  0.00  0.00    +0.000 C 
ATOM      2  O   UNL     1       1.370   5.035  20.253  0.00  0.00    +0.000 OA
ATOM      3  N   UNL     1       2.314   7.145  20.375  0.00  0.00    +0.000 N 
ATOM      4  H   UNL     1       3.172   7.673  20.215  0.00  0.00    +0.000 HD
ENDROOT
BRANCH   3   5
ATOM      5  N   UNL     1       1.259   7.924  20.840  0.00  0.00    +0.000 NA
ATOM      6  C   UNL     1       0.940   8.872  20.002  0.00  0.00    +0.000 C 
ATOM      7  C   UNL     1       1.432   8.867  18.548  0.00  0.00    +0.000 C 
ATOM      8  C   UNL     1       0.659   9.997  17.928  0.00  0.00    +0.000 C 
ATOM      9  C   UNL     1       0.661  10.898  19.117  0.00  0.00    +0.000 A 
ATOM     10  C   UNL     1       1.320  12.113  19.259  0.00  0.00    +0.000 A 
ATOM     11 CL   UNL     1       2.251  12.776  17.973  0.00  0.00    +0.000 Cl
ATOM     12  C   UNL     1       1.376  12.718  20.513  0.00  0.00    +0.000 A 
ATOM     13  C   UNL     1       0.692  12.145  21.589  0.00  0.00    +0.000 A 
ATOM     14  C   UNL     1       0.101  10.889  21.447  0.00  0.00    +0.000 A 
ATOM     15  C   UNL     1       0.256  10.190  20.258  0.00  0.00    +0.000 A 
BRANCH  14  16
ATOM     16  O   UNL     1      -0.853  10.524  22.358  0.00  0.00    +0.000 OA
ATOM     17  H   UNL     1      -1.402   9.843  21.928  0.00  0.00    +0.000 HD
ENDBRANCH  14  16
ENDBRANCH   3   5
BRANCH   1  21
ATOM     18  C   UNL     1       5.560   4.794  17.329  0.00  0.00    +0.000 A 
ATOM     19  C   UNL     1       5.832   5.370  18.573  0.00  0.00    +0.000 A 
ATOM     20  C   UNL     1       4.774   5.660  19.459  0.00  0.00    +0.000 A 
ATOM     21  C   UNL     1       3.440   5.369  19.129  0.00  0.00    +0.000 A 
ATOM     22  C   UNL     1       3.190   4.756  17.890  0.00  0.00    +0.000 A 
ATOM     23  C   UNL     1       4.242   4.471  16.992  0.00  0.00    +0.000 A 
BRANCH  18  24
ATOM     24  S   UNL     1       6.853   4.691  16.104  0.00  0.00    +0.000 S 
ATOM     25  O   UNL     1       8.002   4.081  16.736  0.00  0.00    +0.000 OA
ATOM     26  O   UNL     1       6.949   5.973  15.447  0.00  0.00    +0.000 OA
BRANCH  24  28
ATOM     27  C   UNL     1       6.371   3.901  13.569  0.00  0.00    +0.000 C 
ATOM     28  N   UNL     1       6.317   3.548  14.987  0.00  0.00    +0.000 NA
ATOM     29  H   UNL     1       6.694   2.630  15.232  0.00  0.00    +0.000 HD
ENDBRANCH  24  28
ENDBRANCH  18  24
ENDBRANCH   1  21
TORSDOF 5
ENDMDL
MODEL 5
REMARK VINA RESULT:      -7.6      1.065      1.437
REMARK  Name = 
REMARK  6 active torsions:
REMARK  status: ('A' for Active; 'I' for Inactive)
REMARK    1  A    between atoms: C_1  and  N_2
REMARK    2  A    between atoms: N_2  and  S_3
REMARK    3  A    between atoms: S_3  and  C_6
REMARK    4  A    between atoms: C_9  and  C_10
REMARK    5  A    between atoms: N_12  and  N_13
REMARK    6  A    between atoms: C_22  and  O_23
REMARK                            x       y       z     vdW  Elec       q    Type
REMARK                         _______ _______ _______ _____ _____    ______ ____
ROOT
ATOM      1  C   UNL     1       2.121   6.151  19.952  0.00  0.00    +0.000 C 
ATOM      2  O   UNL     1       1.419   5.286  20.453  0.00  0.00    +0.000 OA
ATOM      3  N   UNL     1       2.088   7.493  20.246  0.00  0.00    +0.000 N 
ATOM      4  H   UNL     1       2.811   8.101  19.862  0.00  0.00    +0.000 HD
ENDROOT
BRANCH   3   5
ATOM      5  N   UNL     1       1.075   8.180  20.908  0.00  0.00    +0.000 NA
ATOM      6  C   UNL     1       0.560   9.128  20.172  0.00  0.00    +0.000 C 
ATOM      7  C   UNL     1       0.804   9.200  18.659  0.00  0.00    +0.000 C 
ATOM      8  C   UNL     1      -0.134  10.289  18.219  0.00  0.00    +0.000 C 
ATOM      9  C   UNL     1       0.006  11.153  19.428  0.00  0.00    +0.000 A 
ATOM     10  C   UNL     1       0.598  12.407  19.509  0.00  0.00    +0.000 A 
ATOM     11 CL   UNL     1       1.257  13.173  18.116  0.00  0.00    +0.000 Cl
ATOM     12  C   UNL     1       0.820  12.979  20.760  0.00  0.00    +0.000 A 
ATOM     13  C   UNL     1       0.363  12.327  21.910  0.00  0.00    +0.000 A 
ATOM     14  C   UNL     1      -0.159  11.036  21.816  0.00  0.00    +0.000 A 
ATOM     15  C   UNL     1      -0.158  10.385  20.589  0.00  0.00    +0.000 A 
BRANCH  14  16
ATOM     16  O   UNL     1      -0.923  10.578  22.854  0.00  0.00    +0.000 OA
ATOM     17  H   UNL     1      -0.900   9.604  22.807  0.00  0.00    +0.000 HD
ENDBRANCH  14  16
ENDBRANCH   3   5
BRANCH   1  21
ATOM     18  C   UNL     1       5.215   5.142  17.046  0.00  0.00    +0.000 A 
ATOM     19  C   UNL     1       4.557   4.121  17.738  0.00  0.00    +0.000 A 
ATOM     20  C   UNL     1       3.522   4.439  18.641  0.00  0.00    +0.000 A 
ATOM     21  C   UNL     1       3.119   5.766  18.858  0.00  0.00    +0.000 A 
ATOM     22  C   UNL     1       3.766   6.775  18.126  0.00  0.00    +0.000 A 
ATOM     23  C   UNL     1       4.811   6.468  17.227  0.00  0.00    +0.000 A 
BRANCH  18  24
ATOM     24  S   UNL     1       6.700   4.770  16.129  0.00  0.00    +0.000 S 
ATOM     25  O   UNL     1       7.209   6.018  15.604  0.00  0.00    +0.000 OA
ATOM     26  O   UNL     1       6.422   3.648  15.264  0.00  0.00    +0.000 OA
BRANCH  24  28
ATOM     27  C   UNL     1       7.894   5.060  18.532  0.00  0.00    +0.000 C 
ATOM     28  N   UNL     1       7.830   4.296  17.286  0.00  0.00    +0.000 NA
ATOM     29  H   UNL     1       7.807   3.280  17.388  0.00  0.00    +0.000 HD
ENDBRANCH  24  28
ENDBRANCH  18  24
ENDBRANCH   1  21
TORSDOF 5
ENDMDL
MODEL 6
REMARK VINA RESULT:      -7.4      1.206      1.357
REMARK  Name = 
REMARK  6 active torsions:
REMARK  status: ('A' for Active; 'I' for Inactive)
REMARK    1  A    between atoms: C_1  and  N_2
REMARK    2  A    between atoms: N_2  and  S_3
REMARK    3  A    between atoms: S_3  and  C_6
REMARK    4  A    between atoms: C_9  and  C_10
REMARK    5  A    between atoms: N_12  and  N_13
REMARK    6  A    between atoms: C_22  and  O_23
REMARK                            x       y       z     vdW  Elec       q    Type
REMARK                         _______ _______ _______ _____ _____    ______ ____
ROOT
ATOM      1  C   UNL     1       2.194   5.740  20.184  0.00  0.00    +0.000 C 
ATOM      2  O   UNL     1       1.313   4.962  20.514  0.00  0.00    +0.000 OA
ATOM      3  N   UNL     1       2.243   7.082  20.478  0.00  0.00    +0.000 N 
ATOM      4  H   UNL     1       3.093   7.603  20.264  0.00  0.00    +0.000 HD
ENDROOT
BRANCH   3   5
ATOM      5  N   UNL     1       1.193   7.882  20.916  0.00  0.00    +0.000 NA
ATOM      6  C   UNL     1       0.903   8.825  20.060  0.00  0.00    +0.000 C 
ATOM      7  C   UNL     1       1.419   8.795  18.616  0.00  0.00    +0.000 C 
ATOM      8  C   UNL     1       0.675   9.929  17.969  0.00  0.00    +0.000 C 
ATOM      9  C   UNL     1       0.671  10.844  19.148  0.00  0.00    +0.000 A 
ATOM     10  C   UNL     1       1.346  12.050  19.287  0.00  0.00    +0.000 A 
ATOM     11 CL   UNL     1       2.309  12.684  18.010  0.00  0.00    +0.000 Cl
ATOM     12  C   UNL     1       1.390  12.670  20.535  0.00  0.00    +0.000 A 
ATOM     13  C   UNL     1       0.678  12.120  21.605  0.00  0.00    +0.000 A 
ATOM     14  C   UNL     1       0.070  10.871  21.468  0.00  0.00    +0.000 A 
ATOM     15  C   UNL     1       0.235  10.156  20.290  0.00  0.00    +0.000 A 
BRANCH  14  16
ATOM     16  O   UNL     1      -0.904  10.532  22.367  0.00  0.00    +0.000 OA
ATOM     17  H   UNL     1      -0.864  11.194  23.083  0.00  0.00    +0.000 HD
ENDBRANCH  14  16
ENDBRANCH   3   5
BRANCH   1  21
ATOM     18  C   UNL     1       5.423   4.543  17.504  0.00  0.00    +0.000 A 
ATOM     19  C   UNL     1       5.717   5.282  18.653  0.00  0.00    +0.000 A 
ATOM     20  C   UNL     1       4.684   5.629  19.549  0.00  0.00    +0.000 A 
ATOM     21  C   UNL     1       3.355   5.236  19.324  0.00  0.00    +0.000 A 
ATOM     22  C   UNL     1       3.085   4.461  18.184  0.00  0.00    +0.000 A 
ATOM     23  C   UNL     1       4.110   4.118  17.276  0.00  0.00    +0.000 A 
BRANCH  18  24
ATOM     24  S   UNL     1       6.665   4.350  16.238  0.00  0.00    +0.000 S 
ATOM     25  O   UNL     1       6.172   3.373  15.292  0.00  0.00    +0.000 OA
ATOM     26  O   UNL     1       7.944   4.188  16.887  0.00  0.00    +0.000 OA
BRANCH  24  28
ATOM     27  C   UNL     1       5.405   6.540  15.290  0.00  0.00    +0.000 C 
ATOM     28  N   UNL     1       6.666   5.808  15.392  0.00  0.00    +0.000 NA
ATOM     29  H   UNL     1       7.481   6.361  15.668  0.00  0.00    +0.000 HD
ENDBRANCH  24  28
ENDBRANCH  18  24
ENDBRANCH   1  21
TORSDOF 5
ENDMDL
MODEL 7
REMARK VINA RESULT:      -7.4      1.251      1.719
REMARK  Name = 
REMARK  6 active torsions:
REMARK  status: ('A' for Active; 'I' for Inactive)
REMARK    1  A    between atoms: C_1  and  N_2
REMARK    2  A    between atoms: N_2  and  S_3
REMARK    3  A    between atoms: S_3  and  C_6
REMARK    4  A    between atoms: C_9  and  C_10
REMARK    5  A    between atoms: N_12  and  N_13
REMARK    6  A    between atoms: C_22  and  O_23
REMARK                            x       y       z     vdW  Elec       q    Type
REMARK                         _______ _______ _______ _____ _____    ______ ____
ROOT
ATOM      1  C   UNL     1       1.882   6.702  20.444  0.00  0.00    +0.000 C 
ATOM      2  O   UNL     1       1.166   5.789  20.824  0.00  0.00    +0.000 OA
ATOM      3  N   UNL     1       1.773   8.023  20.808  0.00  0.00    +0.000 N 
ATOM      4  H   UNL     1       2.508   8.673  20.533  0.00  0.00    +0.000 HD
ENDROOT
BRANCH   3   5
ATOM      5  N   UNL     1       0.678   8.638  21.406  0.00  0.00    +0.000 NA
ATOM      6  C   UNL     1       0.132   9.534  20.628  0.00  0.00    +0.000 C 
ATOM      7  C   UNL     1       0.449   9.605  19.128  0.00  0.00    +0.000 C 
ATOM      8  C   UNL     1      -0.544  10.614  18.622  0.00  0.00    +0.000 C 
ATOM      9  C   UNL     1      -0.534  11.502  19.822  0.00  0.00    +0.000 A 
ATOM     10  C   UNL     1      -0.044  12.798  19.912  0.00  0.00    +0.000 A 
ATOM     11 CL   UNL     1       0.628  13.594  18.543  0.00  0.00    +0.000 Cl
ATOM     12  C   UNL     1       0.068  13.401  21.164  0.00  0.00    +0.000 A 
ATOM     13  C   UNL     1      -0.399  12.731  22.299  0.00  0.00    +0.000 A 
ATOM     14  C   UNL     1      -0.816  11.403  22.199  0.00  0.00    +0.000 A 
ATOM     15  C   UNL     1      -0.700  10.738  20.986  0.00  0.00    +0.000 A 
BRANCH  14  16
ATOM     16  O   UNL     1      -1.596  10.901  23.205  0.00  0.00    +0.000 OA
ATOM     17  H   UNL     1      -0.991  10.647  23.926  0.00  0.00    +0.000 HD
ENDBRANCH  14  16
ENDBRANCH   3   5
BRANCH   1  21
ATOM     18  C   UNL     1       4.840   5.653  17.413  0.00  0.00    +0.000 A 
ATOM     19  C   UNL     1       4.146   6.862  17.312  0.00  0.00    +0.000 A 
ATOM     20  C   UNL     1       3.226   7.229  18.315  0.00  0.00    +0.000 A 
ATOM     21  C   UNL     1       2.994   6.412  19.433  0.00  0.00    +0.000 A 
ATOM     22  C   UNL     1       3.728   5.219  19.537  0.00  0.00    +0.000 A 
ATOM     23  C   UNL     1       4.644   4.838  18.532  0.00  0.00    +0.000 A 
BRANCH  18  24
ATOM     24  S   UNL     1       5.781   5.057  16.019  0.00  0.00    +0.000 S 
ATOM     25  O   UNL     1       5.612   6.009  14.943  0.00  0.00    +0.000 OA
ATOM     26  O   UNL     1       5.477   3.657  15.840  0.00  0.00    +0.000 OA
BRANCH  24  28
ATOM     27  C   UNL     1       7.808   4.593  17.739  0.00  0.00    +0.000 C 
ATOM     28  N   UNL     1       7.396   5.207  16.477  0.00  0.00    +0.000 NA
ATOM     29  H   UNL     1       7.998   5.016  15.673  0.00  0.00    +0.000 HD
ENDBRANCH  24  28
ENDBRANCH  18  24
ENDBRANCH   1  21
TORSDOF 5
ENDMDL
MODEL 8
REMARK VINA RESULT:      -7.4      5.529      8.188
REMARK  Name = 
REMARK  6 active torsions:
REMARK  status: ('A' for Active; 'I' for Inactive)
REMARK    1  A    between atoms: C_1  and  N_2
REMARK    2  A    between atoms: N_2  and  S_3
REMARK    3  A    between atoms: S_3  and  C_6
REMARK    4  A    between atoms: C_9  and  C_10
REMARK    5  A    between atoms: N_12  and  N_13
REMARK    6  A    between atoms: C_22  and  O_23
REMARK                            x       y       z     vdW  Elec       q    Type
REMARK                         _______ _______ _______ _____ _____    ______ ____
ROOT
ATOM      1  C   UNL     1       7.991   8.163  18.188  0.00  0.00    +0.000 C 
ATOM      2  O   UNL     1       8.501   7.281  18.860  0.00  0.00    +0.000 OA
ATOM      3  N   UNL     1       6.955   8.010  17.299  0.00  0.00    +0.000 N 
ATOM      4  H   UNL     1       6.524   8.840  16.894  0.00  0.00    +0.000 HD
ENDROOT
BRANCH   3   5
ATOM      5  N   UNL     1       6.494   6.817  16.749  0.00  0.00    +0.000 NA
ATOM      6  C   UNL     1       5.236   6.602  17.027  0.00  0.00    +0.000 C 
ATOM      7  C   UNL     1       4.325   7.712  17.566  0.00  0.00    +0.000 C 
ATOM      8  C   UNL     1       2.963   7.077  17.528  0.00  0.00    +0.000 C 
ATOM      9  C   UNL     1       3.393   5.694  17.888  0.00  0.00    +0.000 A 
ATOM     10  C   UNL     1       3.115   4.997  19.057  0.00  0.00    +0.000 A 
ATOM     11 CL   UNL     1       2.148   5.692  20.299  0.00  0.00    +0.000 Cl
ATOM     12  C   UNL     1       3.770   3.793  19.308  0.00  0.00    +0.000 A 
ATOM     13  C   UNL     1       4.626   3.256  18.341  0.00  0.00    +0.000 A 
ATOM     14  C   UNL     1       4.951   4.004  17.209  0.00  0.00    +0.000 A 
ATOM     15  C   UNL     1       4.475   5.303  17.086  0.00  0.00    +0.000 A 
BRANCH  14  16
ATOM     16  O   UNL     1       5.468   3.340  16.130  0.00  0.00    +0.000 OA
ATOM     17  H   UNL     1       5.057   3.733  15.338  0.00  0.00    +0.000 HD
ENDBRANCH  14  16
ENDBRANCH   3   5
BRANCH   1  21
ATOM     18  C   UNL     1       9.294  12.308  18.596  0.00  0.00    +0.000 A 
ATOM     19  C   UNL     1       9.844  11.326  19.425  0.00  0.00    +0.000 A 
ATOM     20  C   UNL     1       9.463   9.978  19.264  0.00  0.00    +0.000 A 
ATOM     21  C   UNL     1       8.548   9.586  18.274  0.00  0.00    +0.000 A 
ATOM     22  C   UNL     1       8.034  10.581  17.426  0.00  0.00    +0.000 A 
ATOM     23  C   UNL     1       8.401  11.936  17.586  0.00  0.00    +0.000 A 
BRANCH  18  24
ATOM     24  S   UNL     1       9.551  14.031  18.980  0.00  0.00    +0.000 S 
ATOM     25  O   UNL     1      10.713  14.116  19.837  0.00  0.00    +0.000 OA
ATOM     26  O   UNL     1       8.282  14.595  19.375  0.00  0.00    +0.000 OA
BRANCH  24  28
ATOM     27  C   UNL     1      11.300  14.308  16.943  0.00  0.00    +0.000 C 
ATOM     28  N   UNL     1      10.033  14.742  17.529  0.00  0.00    +0.000 NA
ATOM     29  H   UNL     1       9.237  14.783  16.889  0.00  0.00    +0.000 HD
ENDBRANCH  24  28
ENDBRANCH  18  24
ENDBRANCH   1  21
TORSDOF 5
ENDMDL
MODEL 9
REMARK VINA RESULT:      -7.2      1.763      2.120
REMARK  Name = 
REMARK  6 active torsions:
REMARK  status: ('A' for Active; 'I' for Inactive)
REMARK    1  A    between atoms: C_1  and  N_2
REMARK    2  A    between atoms: N_2  and  S_3
REMARK    3  A    between atoms: S_3  and  C_6
REMARK    4  A    between atoms: C_9  and  C_10
REMARK    5  A    between atoms: N_12  and  N_13
REMARK    6  A    between atoms: C_22  and  O_23
REMARK                            x       y       z     vdW  Elec       q    Type
REMARK                         _______ _______ _______ _____ _____    ______ ____
ROOT
ATOM      1  C   UNL     1       1.932   8.145  19.201  0.00  0.00    +0.000 C 
ATOM      2  O   UNL     1       1.497   7.903  20.316  0.00  0.00    +0.000 OA
ATOM      3  N   UNL     1       1.535   9.174  18.381  0.00  0.00    +0.000 N 
ATOM      4  H   UNL     1       2.062   9.357  17.528  0.00  0.00    +0.000 HD
ENDROOT
BRANCH   3   5
ATOM      5  N   UNL     1       0.378   9.937  18.497  0.00  0.00    +0.000 NA
ATOM      6  C   UNL     1       0.639  11.206  18.659  0.00  0.00    +0.000 C 
ATOM      7  C   UNL     1       2.031  11.788  18.379  0.00  0.00    +0.000 C 
ATOM      8  C   UNL     1       1.804  13.270  18.488  0.00  0.00    +0.000 C 
ATOM      9  C   UNL     1       0.801  13.223  19.593  0.00  0.00    +0.000 A 
ATOM     10  C   UNL     1       0.956  13.673  20.897  0.00  0.00    +0.000 A 
ATOM     11 CL   UNL     1       2.418  14.418  21.415  0.00  0.00    +0.000 Cl
ATOM     12  C   UNL     1      -0.014  13.362  21.848  0.00  0.00    +0.000 A 
ATOM     13  C   UNL     1      -1.173  12.683  21.457  0.00  0.00    +0.000 A 
ATOM     14  C   UNL     1      -1.276  12.172  20.163  0.00  0.00    +0.000 A 
ATOM     15  C   UNL     1      -0.198  12.285  19.294  0.00  0.00    +0.000 A 
BRANCH  14  16
ATOM     16  O   UNL     1      -2.523  11.853  19.699  0.00  0.00    +0.000 OA
ATOM     17  H   UNL     1      -2.469  10.939  19.363  0.00  0.00    +0.000 HD
ENDBRANCH  14  16
ENDBRANCH   3   5
BRANCH   1  21
ATOM     18  C   UNL     1       5.184   5.739  17.565  0.00  0.00    +0.000 A 
ATOM     19  C   UNL     1       4.588   5.366  18.773  0.00  0.00    +0.000 A 
ATOM     20  C   UNL     1       3.504   6.111  19.281  0.00  0.00    +0.000 A 
ATOM     21  C   UNL     1       2.990   7.221  18.593  0.00  0.00    +0.000 A 
ATOM     22  C   UNL     1       3.577   7.559  17.363  0.00  0.00    +0.000 A 
ATOM     23  C   UNL     1       4.670   6.825  16.851  0.00  0.00    +0.000 A 
BRANCH  18  24
ATOM     24  S   UNL     1       6.721   4.981  17.069  0.00  0.00    +0.000 S 
ATOM     25  O   UNL     1       7.310   4.383  18.247  0.00  0.00    +0.000 OA
ATOM     26  O   UNL     1       7.449   5.933  16.264  0.00  0.00    +0.000 OA
BRANCH  24  28
ATOM     27  C   UNL     1       6.155   3.907  14.659  0.00  0.00    +0.000 C 
ATOM     28  N   UNL     1       6.279   3.676  16.097  0.00  0.00    +0.000 NA
ATOM     29  H   UNL     1       6.816   2.851  16.371  0.00  0.00    +0.000 HD
ENDBRANCH  24  28
ENDBRANCH  18  24
ENDBRANCH   1  21
TORSDOF 5
ENDMDL
