MODEL 1
REMARK VINA RESULT:      -7.4      0.000      0.000
REMARK  Name = 
REMARK  3 active torsions:
REMARK  status: ('A' for Active; 'I' for Inactive)
REMARK    1  A    between atoms: C_2  and  O_3
REMARK    2  A    between atoms: C_2  and  C_4
REMARK    3  A    between atoms: N_6  and  C_7
REMARK                            x       y       z     vdW  Elec       q    Type
REMARK                         _______ _______ _______ _____ _____    ______ ____
ROOT
ATOM      1  C   UNL     1       6.578   5.283  18.404  0.00  0.00    +0.000 A 
ATOM      2  N   UNL     1       5.624   4.941  19.221  0.00  0.00    +0.000 NA
ATOM      3  N   UNL     1       4.540   4.244  18.700  0.00  0.00    +0.000 N 
ATOM      4  C   UNL     1       4.389   3.953  17.332  0.00  0.00    +0.000 A 
ATOM      5  O   UNL     1       3.421   3.400  16.818  0.00  0.00    +0.000 OA
ATOM      6  C   UNL     1       5.495   4.412  16.476  0.00  0.00    +0.000 A 
ATOM      7  C   UNL     1       6.573   5.035  16.956  0.00  0.00    +0.000 A 
ATOM      8  C   UNL     1       7.642   5.445  16.015  0.00  0.00    +0.000 C 
ATOM      9  S   UNL     1       6.990   5.043  14.373  0.00  0.00    +0.000 S 
ATOM     10  C   UNL     1       5.555   4.261  15.016  0.00  0.00    +0.000 C 
ATOM     11  O   UNL     1       4.751   3.686  14.306  0.00  0.00    +0.000 OA
ENDROOT
BRANCH   3  12
ATOM     12  C   UNL     1       3.568   3.834  19.676  0.00  0.00    +0.000 A 
ATOM     13  C   UNL     1       3.761   2.685  20.466  0.00  0.00    +0.000 A 
ATOM     14  C   UNL     1       2.797   2.268  21.389  0.00  0.00    +0.000 A 
ATOM     15  C   UNL     1       1.626   2.993  21.527  0.00  0.00    +0.000 A 
ATOM     16  F   UNL     1       0.692   2.581  22.395  0.00  0.00    +0.000 F 
ATOM     17  C   UNL     1       1.411   4.142  20.777  0.00  0.00    +0.000 A 
ATOM     18  C   UNL     1       2.386   4.570  19.866  0.00  0.00    +0.000 A 
ENDBRANCH   3  12
BRANCH   1  20
ATOM     19  O   UNL     1       8.176   7.087  18.680  0.00  0.00    +0.000 OA
ATOM     20  C   UNL     1       7.789   5.993  19.031  0.00  0.00    +0.000 C 
BRANCH  20  21
ATOM     21  O   UNL     1       8.350   5.244  19.996  0.00  0.00    +0.000 OA
ATOM     22  H   UNL     1       8.954   5.796  20.544  0.00  0.00    +0.000 HD
ENDBRANCH  20  21
ENDBRANCH   1  20
TORSDOF 3
ENDMDL
MODEL 2
REMARK VINA RESULT:      -7.3      0.064      1.054
REMARK  Name = 
REMARK  3 active torsions:
REMARK  status: ('A' for Active; 'I' for Inactive)
REMARK    1  A    between atoms: C_2  and  O_3
REMARK    2  A    between atoms: C_2  and  C_4
REMARK    3  A    between atoms: N_6  and  C_7
REMARK                            x       y       z     vdW  Elec       q    Type
REMARK                         _______ _______ _______ _____ _____    ______ ____
ROOT
ATOM      1  C   UNL     1       6.560   5.258  18.428  0.00  0.00    +0.000 A 
ATOM      2  N   UNL     1       5.591   4.904  19.223  0.00  0.00    +0.000 NA
ATOM      3  N   UNL     1       4.520   4.210  18.673  0.00  0.00    +0.000 N 
ATOM      4  C   UNL     1       4.396   3.933  17.300  0.00  0.00    +0.000 A 
ATOM      5  O   UNL     1       3.441   3.383  16.761  0.00  0.00    +0.000 OA
ATOM      6  C   UNL     1       5.517   4.405  16.471  0.00  0.00    +0.000 A 
ATOM      7  C   UNL     1       6.584   5.026  16.978  0.00  0.00    +0.000 A 
ATOM      8  C   UNL     1       7.669   5.450  16.062  0.00  0.00    +0.000 C 
ATOM      9  S   UNL     1       7.050   5.064  14.403  0.00  0.00    +0.000 S 
ATOM     10  C   UNL     1       5.605   4.270  15.010  0.00  0.00    +0.000 C 
ATOM     11  O   UNL     1       4.817   3.701  14.278  0.00  0.00    +0.000 OA
ENDROOT
BRANCH   3  12
ATOM     12  C   UNL     1       3.531   3.786  19.626  0.00  0.00    +0.000 A 
ATOM     13  C   UNL     1       2.334   4.502  19.810  0.00  0.00    +0.000 A 
ATOM     14  C   UNL     1       1.390   4.108  20.763  0.00  0.00    +0.000 A 
ATOM     15  C   UNL     1       1.637   2.995  21.548  0.00  0.00    +0.000 A 
ATOM     16  F   UNL     1       0.745   2.629  22.477  0.00  0.00    +0.000 F 
ATOM     17  C   UNL     1       2.800   2.253  21.381  0.00  0.00    +0.000 A 
ATOM     18  C   UNL     1       3.736   2.638  20.412  0.00  0.00    +0.000 A 
ENDBRANCH   3  12
BRANCH   1  20
ATOM     19  O   UNL     1       8.163   7.052  18.736  0.00  0.00    +0.000 OA
ATOM     20  C   UNL     1       7.756   5.965  19.086  0.00  0.00    +0.000 C 
BRANCH  20  21
ATOM     21  O   UNL     1       8.280   5.222  20.076  0.00  0.00    +0.000 OA
ATOM     22  H   UNL     1       8.013   4.281  19.970  0.00  0.00    +0.000 HD
ENDBRANCH  20  21
ENDBRANCH   1  20
TORSDOF 3
ENDMDL
MODEL 3
REMARK VINA RESULT:      -7.2      4.474      5.840
REMARK  Name = 
REMARK  3 active torsions:
REMARK  status: ('A' for Active; 'I' for Inactive)
REMARK    1  A    between atoms: C_2  and  O_3
REMARK    2  A    between atoms: C_2  and  C_4
REMARK    3  A    between atoms: N_6  and  C_7
REMARK                            x       y       z     vdW  Elec       q    Type
REMARK                         _______ _______ _______ _____ _____    ______ ____
ROOT
ATOM      1  C   UNL     1       2.072   4.869  20.289  0.00  0.00    +0.000 A 
ATOM      2  N   UNL     1       1.637   6.024  20.702  0.00  0.00    +0.000 NA
ATOM      3  N   UNL     1       1.948   7.146  19.942  0.00  0.00    +0.000 N 
ATOM      4  C   UNL     1       2.761   7.106  18.796  0.00  0.00    +0.000 A 
ATOM      5  O   UNL     1       3.117   8.076  18.133  0.00  0.00    +0.000 OA
ATOM      6  C   UNL     1       3.243   5.766  18.425  0.00  0.00    +0.000 A 
ATOM      7  C   UNL     1       2.916   4.664  19.104  0.00  0.00    +0.000 A 
ATOM      8  C   UNL     1       3.439   3.356  18.642  0.00  0.00    +0.000 C 
ATOM      9  S   UNL     1       4.553   3.762  17.272  0.00  0.00    +0.000 S 
ATOM     10  C   UNL     1       4.134   5.468  17.295  0.00  0.00    +0.000 C 
ATOM     11  O   UNL     1       4.551   6.254  16.465  0.00  0.00    +0.000 OA
ENDROOT
BRANCH   3  12
ATOM     12  C   UNL     1       1.366   8.370  20.419  0.00  0.00    +0.000 A 
ATOM     13  C   UNL     1       1.194   8.615  21.794  0.00  0.00    +0.000 A 
ATOM     14  C   UNL     1       0.594   9.791  22.254  0.00  0.00    +0.000 A 
ATOM     15  C   UNL     1       0.153  10.734  21.341  0.00  0.00    +0.000 A 
ATOM     16  F   UNL     1      -0.442  11.851  21.779  0.00  0.00    +0.000 F 
ATOM     17  C   UNL     1       0.324  10.534  19.977  0.00  0.00    +0.000 A 
ATOM     18  C   UNL     1       0.943   9.363  19.518  0.00  0.00    +0.000 A 
ENDBRANCH   3  12
BRANCH   1  20
ATOM     19  O   UNL     1       2.260   3.261  22.095  0.00  0.00    +0.000 OA
ATOM     20  C   UNL     1       1.651   3.646  21.120  0.00  0.00    +0.000 C 
BRANCH  20  21
ATOM     21  O   UNL     1       0.543   3.073  20.620  0.00  0.00    +0.000 OA
ATOM     22  H   UNL     1       0.224   2.366  21.228  0.00  0.00    +0.000 HD
ENDBRANCH  20  21
ENDBRANCH   1  20
TORSDOF 3
ENDMDL
MODEL 4
REMARK VINA RESULT:      -7.2      4.477      5.891
REMARK  Name = 
REMARK  3 active torsions:
REMARK  status: ('A' for Active; 'I' for Inactive)
REMARK    1  A    between atoms: C_2  and  O_3
REMARK    2  A    between atoms: C_2  and  C_4
REMARK    3  A    between atoms: N_6  and  C_7
REMARK                            x       y       z     vdW  Elec       q    Type
REMARK                         _______ _______ _______ _____ _____    ______ ____
ROOT
ATOM      1  C   UNL     1       2.085   4.866  20.277  0.00  0.00    +0.000 A 
ATOM      2  N   UNL     1       1.649   6.023  20.685  0.00  0.00    +0.000 NA
ATOM      3  N   UNL     1       1.959   7.142  19.922  0.00  0.00    +0.000 N 
ATOM      4  C   UNL     1       2.774   7.098  18.776  0.00  0.00    +0.000 A 
ATOM      5  O   UNL     1       3.129   8.066  18.110  0.00  0.00    +0.000 OA
ATOM      6  C   UNL     1       3.258   5.757  18.411  0.00  0.00    +0.000 A 
ATOM      7  C   UNL     1       2.931   4.658  19.095  0.00  0.00    +0.000 A 
ATOM      8  C   UNL     1       3.456   3.349  18.638  0.00  0.00    +0.000 C 
ATOM      9  S   UNL     1       4.571   3.751  17.268  0.00  0.00    +0.000 S 
ATOM     10  C   UNL     1       4.150   5.456  17.283  0.00  0.00    +0.000 C 
ATOM     11  O   UNL     1       4.567   6.239  16.451  0.00  0.00    +0.000 OA
ENDROOT
BRANCH   3  12
ATOM     12  C   UNL     1       1.375   8.367  20.393  0.00  0.00    +0.000 A 
ATOM     13  C   UNL     1       0.994   9.389  19.503  0.00  0.00    +0.000 A 
ATOM     14  C   UNL     1       0.460  10.594  19.968  0.00  0.00    +0.000 A 
ATOM     15  C   UNL     1       0.307  10.795  21.329  0.00  0.00    +0.000 A 
ATOM     16  F   UNL     1      -0.183  11.958  21.776  0.00  0.00    +0.000 F 
ATOM     17  C   UNL     1       0.656   9.800  22.235  0.00  0.00    +0.000 A 
ATOM     18  C   UNL     1       1.173   8.585  21.767  0.00  0.00    +0.000 A 
ENDBRANCH   3  12
BRANCH   1  20
ATOM     19  O   UNL     1       2.273   3.265  22.090  0.00  0.00    +0.000 OA
ATOM     20  C   UNL     1       1.665   3.646  21.112  0.00  0.00    +0.000 C 
BRANCH  20  21
ATOM     21  O   UNL     1       0.558   3.070  20.614  0.00  0.00    +0.000 OA
ATOM     22  H   UNL     1      -0.230   3.340  21.139  0.00  0.00    +0.000 HD
ENDBRANCH  20  21
ENDBRANCH   1  20
TORSDOF 3
ENDMDL
MODEL 5
REMARK VINA RESULT:      -7.2      4.161      6.567
REMARK  Name = 
REMARK  3 active torsions:
REMARK  status: ('A' for Active; 'I' for Inactive)
REMARK    1  A    between atoms: C_2  and  O_3
REMARK    2  A    between atoms: C_2  and  C_4
REMARK    3  A    between atoms: N_6  and  C_7
REMARK                            x       y       z     vdW  Elec       q    Type
REMARK                         _______ _______ _______ _____ _____    ______ ____
ROOT
ATOM      1  C   UNL     1       4.128   3.633  18.069  0.00  0.00    +0.000 A 
ATOM      2  N   UNL     1       4.735   3.529  16.922  0.00  0.00    +0.000 NA
ATOM      3  N   UNL     1       4.922   4.688  16.178  0.00  0.00    +0.000 N 
ATOM      4  C   UNL     1       4.431   5.948  16.567  0.00  0.00    +0.000 A 
ATOM      5  O   UNL     1       4.514   6.983  15.913  0.00  0.00    +0.000 OA
ATOM      6  C   UNL     1       3.722   5.965  17.856  0.00  0.00    +0.000 A 
ATOM      7  C   UNL     1       3.575   4.878  18.617  0.00  0.00    +0.000 A 
ATOM      8  C   UNL     1       2.858   5.000  19.909  0.00  0.00    +0.000 C 
ATOM      9  S   UNL     1       2.258   6.709  19.944  0.00  0.00    +0.000 S 
ATOM     10  C   UNL     1       3.088   7.145  18.459  0.00  0.00    +0.000 C 
ATOM     11  O   UNL     1       3.106   8.284  18.031  0.00  0.00    +0.000 OA
ENDROOT
BRANCH   3  12
ATOM     12  C   UNL     1       5.668   4.505  14.965  0.00  0.00    +0.000 A 
ATOM     13  C   UNL     1       6.944   5.074  14.793  0.00  0.00    +0.000 A 
ATOM     14  C   UNL     1       7.652   4.924  13.598  0.00  0.00    +0.000 A 
ATOM     15  C   UNL     1       7.089   4.208  12.556  0.00  0.00    +0.000 A 
ATOM     16  F   UNL     1       7.757   4.083  11.402  0.00  0.00    +0.000 F 
ATOM     17  C   UNL     1       5.840   3.616  12.696  0.00  0.00    +0.000 A 
ATOM     18  C   UNL     1       5.139   3.751  13.902  0.00  0.00    +0.000 A 
ENDBRANCH   3  12
BRANCH   1  20
ATOM     19  O   UNL     1       3.079   1.561  18.770  0.00  0.00    +0.000 OA
ATOM     20  C   UNL     1       4.000   2.340  18.891  0.00  0.00    +0.000 C 
BRANCH  20  21
ATOM     21  O   UNL     1       5.026   2.201  19.748  0.00  0.00    +0.000 OA
ATOM     22  H   UNL     1       4.890   1.405  20.312  0.00  0.00    +0.000 HD
ENDBRANCH  20  21
ENDBRANCH   1  20
TORSDOF 3
ENDMDL
MODEL 6
REMARK VINA RESULT:      -7.0      4.072      6.494
REMARK  Name = 
REMARK  3 active torsions:
REMARK  status: ('A' for Active; 'I' for Inactive)
REMARK    1  A    between atoms: C_2  and  O_3
REMARK    2  A    between atoms: C_2  and  C_4
REMARK    3  A    between atoms: N_6  and  C_7
REMARK                            x       y       z     vdW  Elec       q    Type
REMARK                         _______ _______ _______ _____ _____    ______ ____
ROOT
ATOM      1  C   UNL     1       4.097   3.322  18.596  0.00  0.00    +0.000 A 
ATOM      2  N   UNL     1       4.721   3.382  17.455  0.00  0.00    +0.000 NA
ATOM      3  N   UNL     1       4.762   4.608  16.801  0.00  0.00    +0.000 N 
ATOM      4  C   UNL     1       4.111   5.762  17.271  0.00  0.00    +0.000 A 
ATOM      5  O   UNL     1       4.064   6.846  16.697  0.00  0.00    +0.000 OA
ATOM      6  C   UNL     1       3.397   5.592  18.547  0.00  0.00    +0.000 A 
ATOM      7  C   UNL     1       3.385   4.442  19.224  0.00  0.00    +0.000 A 
ATOM      8  C   UNL     1       2.649   4.375  20.509  0.00  0.00    +0.000 C 
ATOM      9  S   UNL     1       1.834   5.986  20.659  0.00  0.00    +0.000 S 
ATOM     10  C   UNL     1       2.612   6.634  19.224  0.00  0.00    +0.000 C 
ATOM     11  O   UNL     1       2.486   7.794  18.880  0.00  0.00    +0.000 OA
ENDROOT
BRANCH   3  12
ATOM     12  C   UNL     1       5.535   4.612  15.589  0.00  0.00    +0.000 A 
ATOM     13  C   UNL     1       5.045   4.033  14.403  0.00  0.00    +0.000 A 
ATOM     14  C   UNL     1       5.814   4.007  13.236  0.00  0.00    +0.000 A 
ATOM     15  C   UNL     1       7.085   4.555  13.243  0.00  0.00    +0.000 A 
ATOM     16  F   UNL     1       7.831   4.510  12.132  0.00  0.00    +0.000 F 
ATOM     17  C   UNL     1       7.593   5.152  14.390  0.00  0.00    +0.000 A 
ATOM     18  C   UNL     1       6.814   5.194  15.555  0.00  0.00    +0.000 A 
ENDBRANCH   3  12
BRANCH   1  20
ATOM     19  O   UNL     1       4.816   1.746  20.295  0.00  0.00    +0.000 OA
ATOM     20  C   UNL     1       4.131   1.965  19.319  0.00  0.00    +0.000 C 
BRANCH  20  21
ATOM     21  O   UNL     1       3.317   1.075  18.726  0.00  0.00    +0.000 OA
ATOM     22  H   UNL     1       2.544   1.536  18.327  0.00  0.00    +0.000 HD
ENDBRANCH  20  21
ENDBRANCH   1  20
TORSDOF 3
ENDMDL
MODEL 7
REMARK VINA RESULT:      -6.8      3.830      5.204
REMARK  Name = 
REMARK  3 active torsions:
REMARK  status: ('A' for Active; 'I' for Inactive)
REMARK    1  A    between atoms: C_2  and  O_3
REMARK    2  A    between atoms: C_2  and  C_4
REMARK    3  A    between atoms: N_6  and  C_7
REMARK                            x       y       z     vdW  Elec       q    Type
REMARK                         _______ _______ _______ _____ _____    ______ ____
ROOT
ATOM      1  C   UNL     1       2.715   4.485  18.844  0.00  0.00    +0.000 A 
ATOM      2  N   UNL     1       2.181   5.515  19.434  0.00  0.00    +0.000 NA
ATOM      3  N   UNL     1       2.510   6.780  18.960  0.00  0.00    +0.000 N 
ATOM      4  C   UNL     1       3.438   7.005  17.928  0.00  0.00    +0.000 A 
ATOM      5  O   UNL     1       3.809   8.102  17.523  0.00  0.00    +0.000 OA
ATOM      6  C   UNL     1       4.024   5.787  17.347  0.00  0.00    +0.000 A 
ATOM      7  C   UNL     1       3.686   4.558  17.744  0.00  0.00    +0.000 A 
ATOM      8  C   UNL     1       4.321   3.392  17.085  0.00  0.00    +0.000 C 
ATOM      9  S   UNL     1       5.548   4.108  15.960  0.00  0.00    +0.000 S 
ATOM     10  C   UNL     1       5.041   5.758  16.286  0.00  0.00    +0.000 C 
ATOM     11  O   UNL     1       5.500   6.713  15.687  0.00  0.00    +0.000 OA
ENDROOT
BRANCH   3  12
ATOM     12  C   UNL     1       1.819   7.859  19.610  0.00  0.00    +0.000 A 
ATOM     13  C   UNL     1       1.400   8.998  18.898  0.00  0.00    +0.000 A 
ATOM     14  C   UNL     1       0.761  10.063  19.540  0.00  0.00    +0.000 A 
ATOM     15  C   UNL     1       0.539  10.003  20.905  0.00  0.00    +0.000 A 
ATOM     16  F   UNL     1      -0.052  11.032  21.524  0.00  0.00    +0.000 F 
ATOM     17  C   UNL     1       0.923   8.886  21.637  0.00  0.00    +0.000 A 
ATOM     18  C   UNL     1       1.546   7.811  20.989  0.00  0.00    +0.000 A 
ENDBRANCH   3  12
BRANCH   1  20
ATOM     19  O   UNL     1       2.839   2.512  20.250  0.00  0.00    +0.000 OA
ATOM     20  C   UNL     1       2.275   3.103  19.354  0.00  0.00    +0.000 C 
BRANCH  20  21
ATOM     21  O   UNL     1       1.205   2.650  18.678  0.00  0.00    +0.000 OA
ATOM     22  H   UNL     1       0.381   3.040  19.049  0.00  0.00    +0.000 HD
ENDBRANCH  20  21
ENDBRANCH   1  20
TORSDOF 3
ENDMDL
MODEL 8
REMARK VINA RESULT:      -6.8      3.845      5.141
REMARK  Name = 
REMARK  3 active torsions:
REMARK  status: ('A' for Active; 'I' for Inactive)
REMARK    1  A    between atoms: C_2  and  O_3
REMARK    2  A    between atoms: C_2  and  C_4
REMARK    3  A    between atoms: N_6  and  C_7
REMARK                            x       y       z     vdW  Elec       q    Type
REMARK                         _______ _______ _______ _____ _____    ______ ____
ROOT
ATOM      1  C   UNL     1       2.730   4.515  18.885  0.00  0.00    +0.000 A 
ATOM      2  N   UNL     1       2.195   5.553  19.458  0.00  0.00    +0.000 NA
ATOM      3  N   UNL     1       2.519   6.810  18.960  0.00  0.00    +0.000 N 
ATOM      4  C   UNL     1       3.443   7.019  17.921  0.00  0.00    +0.000 A 
ATOM      5  O   UNL     1       3.809   8.109  17.493  0.00  0.00    +0.000 OA
ATOM      6  C   UNL     1       4.030   5.792  17.359  0.00  0.00    +0.000 A 
ATOM      7  C   UNL     1       3.697   4.570  17.781  0.00  0.00    +0.000 A 
ATOM      8  C   UNL     1       4.333   3.393  17.140  0.00  0.00    +0.000 C 
ATOM      9  S   UNL     1       5.553   4.093  15.998  0.00  0.00    +0.000 S 
ATOM     10  C   UNL     1       5.042   5.747  16.295  0.00  0.00    +0.000 C 
ATOM     11  O   UNL     1       5.496   6.692  15.676  0.00  0.00    +0.000 OA
ENDROOT
BRANCH   3  12
ATOM     12  C   UNL     1       1.828   7.899  19.593  0.00  0.00    +0.000 A 
ATOM     13  C   UNL     1       1.560   7.896  20.975  0.00  0.00    +0.000 A 
ATOM     14  C   UNL     1       0.855   8.940  21.581  0.00  0.00    +0.000 A 
ATOM     15  C   UNL     1       0.405   9.998  20.810  0.00  0.00    +0.000 A 
ATOM     16  F   UNL     1      -0.290  10.987  21.385  0.00  0.00    +0.000 F 
ATOM     17  C   UNL     1       0.668  10.044  19.446  0.00  0.00    +0.000 A 
ATOM     18  C   UNL     1       1.391   9.006  18.843  0.00  0.00    +0.000 A 
ENDBRANCH   3  12
BRANCH   1  20
ATOM     19  O   UNL     1       2.872   2.563  20.320  0.00  0.00    +0.000 OA
ATOM     20  C   UNL     1       2.296   3.141  19.422  0.00  0.00    +0.000 C 
BRANCH  20  21
ATOM     21  O   UNL     1       1.217   2.678  18.768  0.00  0.00    +0.000 OA
ATOM     22  H   UNL     1       1.129   3.132  17.899  0.00  0.00    +0.000 HD
ENDBRANCH  20  21
ENDBRANCH   1  20
TORSDOF 3
ENDMDL
MODEL 9
REMARK VINA RESULT:      -6.6      4.002      5.101
REMARK  Name = 
REMARK  3 active torsions:
REMARK  status: ('A' for Active; 'I' for Inactive)
REMARK    1  A    between atoms: C_2  and  O_3
REMARK    2  A    between atoms: C_2  and  C_4
REMARK    3  A    between atoms: N_6  and  C_7
REMARK                            x       y       z     vdW  Elec       q    Type
REMARK                         _______ _______ _______ _____ _____    ______ ____
ROOT
ATOM      1  C   UNL     1       4.026   5.872  17.829  0.00  0.00    +0.000 A 
ATOM      2  N   UNL     1       3.411   6.902  18.333  0.00  0.00    +0.000 NA
ATOM      3  N   UNL     1       2.419   6.670  19.278  0.00  0.00    +0.000 N 
ATOM      4  C   UNL     1       2.000   5.384  19.664  0.00  0.00    +0.000 A 
ATOM      5  O   UNL     1       1.085   5.130  20.442  0.00  0.00    +0.000 OA
ATOM      6  C   UNL     1       2.720   4.278  19.014  0.00  0.00    +0.000 A 
ATOM      7  C   UNL     1       3.714   4.471  18.144  0.00  0.00    +0.000 A 
ATOM      8  C   UNL     1       4.389   3.291  17.554  0.00  0.00    +0.000 C 
ATOM      9  S   UNL     1       3.455   1.867  18.172  0.00  0.00    +0.000 S 
ATOM     10  C   UNL     1       2.444   2.850  19.220  0.00  0.00    +0.000 C 
ATOM     11  O   UNL     1       1.639   2.364  19.994  0.00  0.00    +0.000 OA
ENDROOT
BRANCH   3  12
ATOM     12  C   UNL     1       1.844   7.859  19.845  0.00  0.00    +0.000 A 
ATOM     13  C   UNL     1       1.600   7.970  21.227  0.00  0.00    +0.000 A 
ATOM     14  C   UNL     1       1.006   9.113  21.770  0.00  0.00    +0.000 A 
ATOM     15  C   UNL     1       0.644  10.157  20.936  0.00  0.00    +0.000 A 
ATOM     16  F   UNL     1       0.056  11.243  21.452  0.00  0.00    +0.000 F 
ATOM     17  C   UNL     1       0.888  10.089  19.569  0.00  0.00    +0.000 A 
ATOM     18  C   UNL     1       1.500   8.951  19.028  0.00  0.00    +0.000 A 
ENDBRANCH   3  12
BRANCH   1  20
ATOM     19  O   UNL     1       4.981   6.355  15.652  0.00  0.00    +0.000 OA
ATOM     20  C   UNL     1       5.161   6.173  16.838  0.00  0.00    +0.000 C 
BRANCH  20  21
ATOM     21  O   UNL     1       6.355   6.201  17.454  0.00  0.00    +0.000 OA
ATOM     22  H   UNL     1       7.049   5.829  16.864  0.00  0.00    +0.000 HD
ENDBRANCH  20  21
ENDBRANCH   1  20
TORSDOF 3
ENDMDL
