MODEL 1
REMARK VINA RESULT:      -8.5      0.000      0.000
REMARK  Name = 
REMARK  8 active torsions:
REMARK  status: ('A' for Active; 'I' for Inactive)
REMARK    1  A    between atoms: C_1  and  C_2
REMARK    2  A    between atoms: C_7  and  C_9
REMARK    3  A    between atoms: C_15  and  C_17
REMARK    4  A    between atoms: C_17  and  C_18
REMARK    5  A    between atoms: C_17  and  C_24
REMARK    6  A    between atoms: C_18  and  C_19
REMARK    7  A    between atoms: C_24  and  N_25
REMARK    8  A    between atoms: N_25  and  O_26
REMARK                            x       y       z     vdW  Elec       q    Type
REMARK                         _______ _______ _______ _____ _____    ______ ____
ROOT
ATOM      1  C   UNL     1       2.559   5.416  17.859  0.00  0.00    +0.000 C 
ATOM      2  C   UNL     1       1.805   4.120  18.220  0.00  0.00    +0.000 C 
ATOM      3  C   UNL     1       2.867   3.290  18.904  0.00  0.00    +0.000 C 
ATOM      4  F   UNL     1       3.078   3.753  20.166  0.00  0.00    +0.000 F 
ATOM      5  C   UNL     1       4.102   3.580  18.077  0.00  0.00    +0.000 C 
ATOM      6  N   UNL     1       3.960   4.982  17.680  0.00  0.00    +0.000 N 
ATOM      7  C   UNL     1       4.860   5.768  17.002  0.00  0.00    +0.000 C 
ATOM      8  O   UNL     1       4.492   6.885  16.617  0.00  0.00    +0.000 OA
ENDROOT
BRANCH   1  15
ATOM      9  C   UNL     1       0.764  12.392  20.372  0.00  0.00    +0.000 C 
ATOM     10  C   UNL     1       0.977  10.944  20.117  0.00  0.00    +0.000 A 
ATOM     11  C   UNL     1       0.830   9.889  20.995  0.00  0.00    +0.000 A 
ATOM     12  N   UNL     1       1.156   8.652  20.494  0.00  0.00    +0.000 NA
ATOM     13  C   UNL     1       1.532   8.758  19.246  0.00  0.00    +0.000 A 
ATOM     14  N   UNL     1       1.956   7.758  18.409  0.00  0.00    +0.000 N 
ATOM     15  C   UNL     1       2.293   6.531  18.921  0.00  0.00    +0.000 C 
ATOM     16  O   UNL     1       2.308   6.238  20.116  0.00  0.00    +0.000 OA
ATOM     17  S   UNL     1       1.471  10.334  18.584  0.00  0.00    +0.000 S 
ATOM     18  H   UNL     1       2.064   7.954  17.422  0.00  0.00    +0.000 HD
ENDBRANCH   1  15
BRANCH   7  19
ATOM     19  C   UNL     1       6.294   5.268  16.737  0.00  0.00    +0.000 C 
BRANCH  19  20
ATOM     20  C   UNL     1       6.423   4.132  15.691  0.00  0.00    +0.000 C 
BRANCH  20  21
ATOM     21  C   UNL     1       6.427   4.556  14.217  0.00  0.00    +0.000 C 
ATOM     22  C   UNL     1       7.736   5.125  13.686  0.00  0.00    +0.000 C 
ATOM     23  C   UNL     1       7.562   5.111  12.181  0.00  0.00    +0.000 C 
ATOM     24  C   UNL     1       6.646   3.925  11.896  0.00  0.00    +0.000 C 
ATOM     25  C   UNL     1       6.204   3.386  13.257  0.00  0.00    +0.000 C 
ENDBRANCH  20  21
ENDBRANCH  19  20
BRANCH  19  26
ATOM     26  C   UNL     1       6.969   4.798  18.050  0.00  0.00    +0.000 C 
BRANCH  26  27
ATOM     27  N   UNL     1       7.761   5.786  18.770  0.00  0.00    +0.000 N 
ATOM     28  C   UNL     1       7.967   7.056  18.282  0.00  0.00    +0.000 C 
ATOM     29  O   UNL     1       7.730   7.436  17.143  0.00  0.00    +0.000 OA
BRANCH  27  30
ATOM     30  O   UNL     1       7.714   5.683  20.173  0.00  0.00    +0.000 OA
ATOM     31  H   UNL     1       8.477   5.086  20.325  0.00  0.00    +0.000 HD
ENDBRANCH  27  30
ENDBRANCH  26  27
ENDBRANCH  19  26
ENDBRANCH   7  19
TORSDOF 7
ENDMDL
MODEL 2
REMARK VINA RESULT:      -8.5      2.636      7.294
REMARK  Name = 
REMARK  8 active torsions:
REMARK  status: ('A' for Active; 'I' for Inactive)
REMARK    1  A    between atoms: C_1  and  C_2
REMARK    2  A    between atoms: C_7  and  C_9
REMARK    3  A    between atoms: C_15  and  C_17
REMARK    4  A    between atoms: C_17  and  C_18
REMARK    5  A    between atoms: C_17  and  C_24
REMARK    6  A    between atoms: C_18  and  C_19
REMARK    7  A    between atoms: C_24  and  N_25
REMARK    8  A    between atoms: N_25  and  O_26
REMARK                            x       y       z     vdW  Elec       q    Type
REMARK                         _______ _______ _______ _____ _____    ______ ____
ROOT
ATOM      1  C   UNL     1       6.682   6.738  17.366  0.00  0.00    +0.000 C 
ATOM      2  C   UNL     1       7.814   6.613  18.406  0.00  0.00    +0.000 C 
ATOM      3  C   UNL     1       7.361   5.451  19.261  0.00  0.00    +0.000 C 
ATOM      4  F   UNL     1       7.569   4.280  18.602  0.00  0.00    +0.000 F 
ATOM      5  C   UNL     1       5.868   5.679  19.369  0.00  0.00    +0.000 C 
ATOM      6  N   UNL     1       5.484   6.240  18.072  0.00  0.00    +0.000 N 
ATOM      7  C   UNL     1       4.223   6.532  17.612  0.00  0.00    +0.000 C 
ATOM      8  O   UNL     1       4.114   7.151  16.548  0.00  0.00    +0.000 OA
ENDROOT
BRANCH   1  15
ATOM      9  C   UNL     1       5.664   2.188  11.328  0.00  0.00    +0.000 C 
ATOM     10  C   UNL     1       6.016   3.234  12.322  0.00  0.00    +0.000 A 
ATOM     11  C   UNL     1       6.992   4.205  12.235  0.00  0.00    +0.000 A 
ATOM     12  N   UNL     1       7.132   5.006  13.344  0.00  0.00    +0.000 NA
ATOM     13  C   UNL     1       6.263   4.661  14.258  0.00  0.00    +0.000 A 
ATOM     14  N   UNL     1       6.101   5.201  15.508  0.00  0.00    +0.000 N 
ATOM     15  C   UNL     1       7.069   6.020  16.032  0.00  0.00    +0.000 C 
ATOM     16  O   UNL     1       8.143   6.287  15.495  0.00  0.00    +0.000 OA
ATOM     17  S   UNL     1       5.197   3.394  13.829  0.00  0.00    +0.000 S 
ATOM     18  H   UNL     1       5.287   4.948  16.053  0.00  0.00    +0.000 HD
ENDBRANCH   1  15
BRANCH   7  19
ATOM     19  C   UNL     1       2.978   6.089  18.406  0.00  0.00    +0.000 C 
BRANCH  19  20
ATOM     20  C   UNL     1       1.940   5.256  17.611  0.00  0.00    +0.000 C 
BRANCH  20  21
ATOM     21  C   UNL     1       1.979   3.737  17.818  0.00  0.00    +0.000 C 
ATOM     22  C   UNL     1       3.358   3.125  18.033  0.00  0.00    +0.000 C 
ATOM     23  C   UNL     1       3.066   1.733  18.556  0.00  0.00    +0.000 C 
ATOM     24  C   UNL     1       1.753   1.860  19.322  0.00  0.00    +0.000 C 
ATOM     25  C   UNL     1       1.257   3.287  19.089  0.00  0.00    +0.000 C 
ENDBRANCH  20  21
ENDBRANCH  19  20
BRANCH  19  26
ATOM     26  C   UNL     1       2.249   7.309  19.023  0.00  0.00    +0.000 C 
BRANCH  26  27
ATOM     27  N   UNL     1       2.026   7.280  20.463  0.00  0.00    +0.000 N 
ATOM     28  C   UNL     1       1.175   8.161  21.089  0.00  0.00    +0.000 C 
ATOM     29  O   UNL     1       0.699   9.176  20.595  0.00  0.00    +0.000 OA
BRANCH  27  30
ATOM     30  O   UNL     1       2.115   6.007  21.056  0.00  0.00    +0.000 OA
ATOM     31  H   UNL     1       3.071   5.986  21.269  0.00  0.00    +0.000 HD
ENDBRANCH  27  30
ENDBRANCH  26  27
ENDBRANCH  19  26
ENDBRANCH   7  19
TORSDOF 7
ENDMDL
MODEL 3
REMARK VINA RESULT:      -8.4      2.764      7.569
REMARK  Name = 
REMARK  8 active torsions:
REMARK  status: ('A' for Active; 'I' for Inactive)
REMARK    1  A    between atoms: C_1  and  C_2
REMARK    2  A    between atoms: C_7  and  C_9
REMARK    3  A    between atoms: C_15  and  C_17
REMARK    4  A    between atoms: C_17  and  C_18
REMARK    5  A    between atoms: C_17  and  C_24
REMARK    6  A    between atoms: C_18  and  C_19
REMARK    7  A    between atoms: C_24  and  N_25
REMARK    8  A    between atoms: N_25  and  O_26
REMARK                            x       y       z     vdW  Elec       q    Type
REMARK                         _______ _______ _______ _____ _____    ______ ____
ROOT
ATOM      1  C   UNL     1       6.669   6.650  17.229  0.00  0.00    +0.000 C 
ATOM      2  C   UNL     1       7.854   6.722  18.211  0.00  0.00    +0.000 C 
ATOM      3  C   UNL     1       7.582   5.574  19.157  0.00  0.00    +0.000 C 
ATOM      4  F   UNL     1       7.894   4.394  18.557  0.00  0.00    +0.000 F 
ATOM      5  C   UNL     1       6.079   5.636  19.332  0.00  0.00    +0.000 C 
ATOM      6  N   UNL     1       5.571   6.065  18.027  0.00  0.00    +0.000 N 
ATOM      7  C   UNL     1       4.265   6.181  17.620  0.00  0.00    +0.000 C 
ATOM      8  O   UNL     1       4.034   6.713  16.528  0.00  0.00    +0.000 OA
ENDROOT
BRANCH   1  15
ATOM      9  C   UNL     1       5.677   2.069  11.210  0.00  0.00    +0.000 C 
ATOM     10  C   UNL     1       6.038   3.110  12.205  0.00  0.00    +0.000 A 
ATOM     11  C   UNL     1       7.062   4.033  12.146  0.00  0.00    +0.000 A 
ATOM     12  N   UNL     1       7.195   4.842  13.249  0.00  0.00    +0.000 NA
ATOM     13  C   UNL     1       6.275   4.551  14.132  0.00  0.00    +0.000 A 
ATOM     14  N   UNL     1       6.090   5.116  15.368  0.00  0.00    +0.000 N 
ATOM     15  C   UNL     1       7.073   5.896  15.920  0.00  0.00    +0.000 C 
ATOM     16  O   UNL     1       8.179   6.105  15.424  0.00  0.00    +0.000 OA
ATOM     17  S   UNL     1       5.168   3.329  13.676  0.00  0.00    +0.000 S 
ATOM     18  H   UNL     1       5.243   4.908  15.883  0.00  0.00    +0.000 HD
ENDBRANCH   1  15
BRANCH   7  19
ATOM     19  C   UNL     1       3.118   5.651  18.504  0.00  0.00    +0.000 C 
BRANCH  19  20
ATOM     20  C   UNL     1       2.557   4.261  18.110  0.00  0.00    +0.000 C 
BRANCH  20  21
ATOM     21  C   UNL     1       2.308   3.274  19.256  0.00  0.00    +0.000 C 
ATOM     22  C   UNL     1       3.369   3.233  20.349  0.00  0.00    +0.000 C 
ATOM     23  C   UNL     1       2.705   2.475  21.480  0.00  0.00    +0.000 C 
ATOM     24  C   UNL     1       1.218   2.795  21.358  0.00  0.00    +0.000 C 
ATOM     25  C   UNL     1       1.058   3.607  20.072  0.00  0.00    +0.000 C 
ENDBRANCH  20  21
ENDBRANCH  19  20
BRANCH  19  26
ATOM     26  C   UNL     1       1.940   6.656  18.547  0.00  0.00    +0.000 C 
BRANCH  26  27
ATOM     27  N   UNL     1       2.185   7.927  19.214  0.00  0.00    +0.000 N 
ATOM     28  C   UNL     1       2.029   9.133  18.571  0.00  0.00    +0.000 C 
ATOM     29  O   UNL     1       1.901   9.294  17.364  0.00  0.00    +0.000 OA
BRANCH  27  30
ATOM     30  O   UNL     1       1.905   7.942  20.594  0.00  0.00    +0.000 OA
ATOM     31  H   UNL     1       1.840   6.979  20.764  0.00  0.00    +0.000 HD
ENDBRANCH  27  30
ENDBRANCH  26  27
ENDBRANCH  19  26
ENDBRANCH   7  19
TORSDOF 7
ENDMDL
MODEL 4
REMARK VINA RESULT:      -8.4      0.545      1.292
REMARK  Name = 
REMARK  8 active torsions:
REMARK  status: ('A' for Active; 'I' for Inactive)
REMARK    1  A    between atoms: C_1  and  C_2
REMARK    2  A    between atoms: C_7  and  C_9
REMARK    3  A    between atoms: C_15  and  C_17
REMARK    4  A    between atoms: C_17  and  C_18
REMARK    5  A    between atoms: C_17  and  C_24
REMARK    6  A    between atoms: C_18  and  C_19
REMARK    7  A    between atoms: C_24  and  N_25
REMARK    8  A    between atoms: N_25  and  O_26
REMARK                            x       y       z     vdW  Elec       q    Type
REMARK                         _______ _______ _______ _____ _____    ______ ____
ROOT
ATOM      1  C   UNL     1       2.352   5.301  17.893  0.00  0.00    +0.000 C 
ATOM      2  C   UNL     1       1.625   4.001  18.293  0.00  0.00    +0.000 C 
ATOM      3  C   UNL     1       2.751   3.121  18.788  0.00  0.00    +0.000 C 
ATOM      4  F   UNL     1       3.139   3.520  20.030  0.00  0.00    +0.000 F 
ATOM      5  C   UNL     1       3.869   3.433  17.816  0.00  0.00    +0.000 C 
ATOM      6  N   UNL     1       3.706   4.854  17.506  0.00  0.00    +0.000 N 
ATOM      7  C   UNL     1       4.523   5.658  16.749  0.00  0.00    +0.000 C 
ATOM      8  O   UNL     1       4.132   6.797  16.469  0.00  0.00    +0.000 OA
ENDROOT
BRANCH   1  15
ATOM      9  C   UNL     1       0.755  12.081  21.004  0.00  0.00    +0.000 C 
ATOM     10  C   UNL     1       0.987  10.656  20.652  0.00  0.00    +0.000 A 
ATOM     11  C   UNL     1       1.084   9.570  21.498  0.00  0.00    +0.000 A 
ATOM     12  N   UNL     1       1.363   8.369  20.891  0.00  0.00    +0.000 NA
ATOM     13  C   UNL     1       1.463   8.534  19.597  0.00  0.00    +0.000 A 
ATOM     14  N   UNL     1       1.754   7.585  18.650  0.00  0.00    +0.000 N 
ATOM     15  C   UNL     1       2.255   6.367  19.032  0.00  0.00    +0.000 C 
ATOM     16  O   UNL     1       2.537   6.042  20.185  0.00  0.00    +0.000 OA
ATOM     17  S   UNL     1       1.180  10.121  19.026  0.00  0.00    +0.000 S 
ATOM     18  H   UNL     1       1.642   7.815  17.671  0.00  0.00    +0.000 HD
ENDBRANCH   1  15
BRANCH   7  19
ATOM     19  C   UNL     1       5.897   5.149  16.270  0.00  0.00    +0.000 C 
BRANCH  19  20
ATOM     20  C   UNL     1       5.875   3.828  15.458  0.00  0.00    +0.000 C 
BRANCH  20  21
ATOM     21  C   UNL     1       6.679   3.814  14.153  0.00  0.00    +0.000 C 
ATOM     22  C   UNL     1       5.880   3.589  12.876  0.00  0.00    +0.000 C 
ATOM     23  C   UNL     1       6.838   3.978  11.767  0.00  0.00    +0.000 C 
ATOM     24  C   UNL     1       7.727   5.062  12.369  0.00  0.00    +0.000 C 
ATOM     25  C   UNL     1       7.349   5.155  13.848  0.00  0.00    +0.000 C 
ENDBRANCH  20  21
ENDBRANCH  19  20
BRANCH  19  26
ATOM     26  C   UNL     1       6.870   4.969  17.463  0.00  0.00    +0.000 C 
BRANCH  26  27
ATOM     27  N   UNL     1       7.368   6.185  18.092  0.00  0.00    +0.000 N 
ATOM     28  C   UNL     1       7.886   6.189  19.366  0.00  0.00    +0.000 C 
ATOM     29  O   UNL     1       7.793   5.283  20.185  0.00  0.00    +0.000 OA
BRANCH  27  30
ATOM     30  O   UNL     1       7.933   7.127  17.211  0.00  0.00    +0.000 OA
ATOM     31  H   UNL     1       7.805   6.658  16.359  0.00  0.00    +0.000 HD
ENDBRANCH  27  30
ENDBRANCH  26  27
ENDBRANCH  19  26
ENDBRANCH   7  19
TORSDOF 7
ENDMDL
MODEL 5
REMARK VINA RESULT:      -8.3      3.032      5.263
REMARK  Name = 
REMARK  8 active torsions:
REMARK  status: ('A' for Active; 'I' for Inactive)
REMARK    1  A    between atoms: C_1  and  C_2
REMARK    2  A    between atoms: C_7  and  C_9
REMARK    3  A    between atoms: C_15  and  C_17
REMARK    4  A    between atoms: C_17  and  C_18
REMARK    5  A    between atoms: C_17  and  C_24
REMARK    6  A    between atoms: C_18  and  C_19
REMARK    7  A    between atoms: C_24  and  N_25
REMARK    8  A    between atoms: N_25  and  O_26
REMARK                            x       y       z     vdW  Elec       q    Type
REMARK                         _______ _______ _______ _____ _____    ______ ____
ROOT
ATOM      1  C   UNL     1       0.620   9.870  18.843  0.00  0.00    +0.000 C 
ATOM      2  C   UNL     1      -0.329   9.989  20.053  0.00  0.00    +0.000 C 
ATOM      3  C   UNL     1       0.520   9.487  21.200  0.00  0.00    +0.000 C 
ATOM      4  F   UNL     1       1.421  10.439  21.562  0.00  0.00    +0.000 F 
ATOM      5  C   UNL     1       1.273   8.331  20.575  0.00  0.00    +0.000 C 
ATOM      6  N   UNL     1       1.516   8.749  19.194  0.00  0.00    +0.000 N 
ATOM      7  C   UNL     1       2.250   8.106  18.228  0.00  0.00    +0.000 C 
ATOM      8  O   UNL     1       2.207   8.539  17.070  0.00  0.00    +0.000 OA
ENDROOT
BRANCH   1  15
ATOM      9  C   UNL     1       1.261  17.470  18.688  0.00  0.00    +0.000 C 
ATOM     10  C   UNL     1       1.420  15.995  18.753  0.00  0.00    +0.000 A 
ATOM     11  C   UNL     1       2.576  15.252  18.634  0.00  0.00    +0.000 A 
ATOM     12  N   UNL     1       2.411  13.888  18.677  0.00  0.00    +0.000 NA
ATOM     13  C   UNL     1       1.148  13.594  18.843  0.00  0.00    +0.000 A 
ATOM     14  N   UNL     1       0.578  12.349  18.913  0.00  0.00    +0.000 N 
ATOM     15  C   UNL     1       1.293  11.245  18.526  0.00  0.00    +0.000 C 
ATOM     16  O   UNL     1       2.427  11.262  18.048  0.00  0.00    +0.000 OA
ATOM     17  S   UNL     1       0.091  14.929  19.007  0.00  0.00    +0.000 S 
ATOM     18  H   UNL     1      -0.388  12.264  19.204  0.00  0.00    +0.000 HD
ENDBRANCH   1  15
BRANCH   7  19
ATOM     19  C   UNL     1       3.111   6.878  18.586  0.00  0.00    +0.000 C 
BRANCH  19  20
ATOM     20  C   UNL     1       4.495   6.806  17.891  0.00  0.00    +0.000 C 
BRANCH  20  21
ATOM     21  C   UNL     1       4.656   5.743  16.798  0.00  0.00    +0.000 C 
ATOM     22  C   UNL     1       5.274   6.215  15.488  0.00  0.00    +0.000 C 
ATOM     23  C   UNL     1       5.635   4.933  14.766  0.00  0.00    +0.000 C 
ATOM     24  C   UNL     1       5.953   3.928  15.869  0.00  0.00    +0.000 C 
ATOM     25  C   UNL     1       5.621   4.622  17.191  0.00  0.00    +0.000 C 
ENDBRANCH  20  21
ENDBRANCH  19  20
BRANCH  19  26
ATOM     26  C   UNL     1       2.350   5.561  18.290  0.00  0.00    +0.000 C 
BRANCH  26  27
ATOM     27  N   UNL     1       1.863   4.812  19.441  0.00  0.00    +0.000 N 
ATOM     28  C   UNL     1       1.299   3.564  19.316  0.00  0.00    +0.000 C 
ATOM     29  O   UNL     1       0.936   3.039  18.271  0.00  0.00    +0.000 OA
BRANCH  27  30
ATOM     30  O   UNL     1       2.564   5.037  20.641  0.00  0.00    +0.000 OA
ATOM     31  H   UNL     1       3.396   4.558  20.444  0.00  0.00    +0.000 HD
ENDBRANCH  27  30
ENDBRANCH  26  27
ENDBRANCH  19  26
ENDBRANCH   7  19
TORSDOF 7
ENDMDL
MODEL 6
REMARK VINA RESULT:      -8.3      4.766      8.876
REMARK  Name = 
REMARK  8 active torsions:
REMARK  status: ('A' for Active; 'I' for Inactive)
REMARK    1  A    between atoms: C_1  and  C_2
REMARK    2  A    between atoms: C_7  and  C_9
REMARK    3  A    between atoms: C_15  and  C_17
REMARK    4  A    between atoms: C_17  and  C_18
REMARK    5  A    between atoms: C_17  and  C_24
REMARK    6  A    between atoms: C_18  and  C_19
REMARK    7  A    between atoms: C_24  and  N_25
REMARK    8  A    between atoms: N_25  and  O_26
REMARK                            x       y       z     vdW  Elec       q    Type
REMARK                         _______ _______ _______ _____ _____    ______ ____
ROOT
ATOM      1  C   UNL     1       1.191   9.434  21.454  0.00  0.00    +0.000 C 
ATOM      2  C   UNL     1       1.167   9.463  22.996  0.00  0.00    +0.000 C 
ATOM      3  C   UNL     1      -0.267   9.829  23.306  0.00  0.00    +0.000 C 
ATOM      4  F   UNL     1      -1.072   8.749  23.117  0.00  0.00    +0.000 F 
ATOM      5  C   UNL     1      -0.587  10.855  22.240  0.00  0.00    +0.000 C 
ATOM      6  N   UNL     1       0.149  10.404  21.058  0.00  0.00    +0.000 N 
ATOM      7  C   UNL     1       0.121  10.927  19.788  0.00  0.00    +0.000 C 
ATOM      8  O   UNL     1       0.936  10.505  18.960  0.00  0.00    +0.000 OA
ENDROOT
BRANCH   1  15
ATOM      9  C   UNL     1       3.532   2.741  18.641  0.00  0.00    +0.000 C 
ATOM     10  C   UNL     1       2.882   3.887  19.327  0.00  0.00    +0.000 A 
ATOM     11  C   UNL     1       1.660   3.921  19.965  0.00  0.00    +0.000 A 
ATOM     12  N   UNL     1       1.285   5.146  20.464  0.00  0.00    +0.000 NA
ATOM     13  C   UNL     1       2.217   6.031  20.223  0.00  0.00    +0.000 A 
ATOM     14  N   UNL     1       2.208   7.366  20.539  0.00  0.00    +0.000 N 
ATOM     15  C   UNL     1       1.039   7.972  20.921  0.00  0.00    +0.000 C 
ATOM     16  O   UNL     1      -0.065   7.432  20.957  0.00  0.00    +0.000 OA
ATOM     17  S   UNL     1       3.614   5.442  19.432  0.00  0.00    +0.000 S 
ATOM     18  H   UNL     1       3.061   7.902  20.439  0.00  0.00    +0.000 HD
ENDBRANCH   1  15
BRANCH   7  19
ATOM     19  C   UNL     1      -0.911  12.008  19.409  0.00  0.00    +0.000 C 
BRANCH  19  20
ATOM     20  C   UNL     1      -2.287  11.480  18.929  0.00  0.00    +0.000 C 
BRANCH  20  21
ATOM     21  C   UNL     1      -2.448  11.263  17.420  0.00  0.00    +0.000 C 
ATOM     22  C   UNL     1      -2.117   9.869  16.903  0.00  0.00    +0.000 C 
ATOM     23  C   UNL     1      -2.696   9.847  15.503  0.00  0.00    +0.000 C 
ATOM     24  C   UNL     1      -3.905  10.776  15.556  0.00  0.00    +0.000 C 
ATOM     25  C   UNL     1      -3.893  11.418  16.944  0.00  0.00    +0.000 C 
ENDBRANCH  20  21
ENDBRANCH  19  20
BRANCH  19  26
ATOM     26  C   UNL     1      -0.349  12.956  18.320  0.00  0.00    +0.000 C 
BRANCH  26  27
ATOM     27  N   UNL     1       0.206  14.223  18.776  0.00  0.00    +0.000 N 
ATOM     28  C   UNL     1       1.560  14.465  18.795  0.00  0.00    +0.000 C 
ATOM     29  O   UNL     1       2.443  13.626  18.664  0.00  0.00    +0.000 OA
BRANCH  27  30
ATOM     30  O   UNL     1      -0.602  15.351  18.535  0.00  0.00    +0.000 OA
ATOM     31  H   UNL     1      -0.696  15.690  19.450  0.00  0.00    +0.000 HD
ENDBRANCH  27  30
ENDBRANCH  26  27
ENDBRANCH  19  26
ENDBRANCH   7  19
TORSDOF 7
ENDMDL
MODEL 7
REMARK VINA RESULT:      -8.2      2.902      5.066
REMARK  Name = 
REMARK  8 active torsions:
REMARK  status: ('A' for Active; 'I' for Inactive)
REMARK    1  A    between atoms: C_1  and  C_2
REMARK    2  A    between atoms: C_7  and  C_9
REMARK    3  A    between atoms: C_15  and  C_17
REMARK    4  A    between atoms: C_17  and  C_18
REMARK    5  A    between atoms: C_17  and  C_24
REMARK    6  A    between atoms: C_18  and  C_19
REMARK    7  A    between atoms: C_24  and  N_25
REMARK    8  A    between atoms: N_25  and  O_26
REMARK                            x       y       z     vdW  Elec       q    Type
REMARK                         _______ _______ _______ _____ _____    ______ ____
ROOT
ATOM      1  C   UNL     1       0.485   9.694  20.034  0.00  0.00    +0.000 C 
ATOM      2  C   UNL     1      -0.347   9.274  21.262  0.00  0.00    +0.000 C 
ATOM      3  C   UNL     1       0.615   8.408  22.043  0.00  0.00    +0.000 C 
ATOM      4  F   UNL     1       1.529   9.188  22.681  0.00  0.00    +0.000 F 
ATOM      5  C   UNL     1       1.327   7.634  20.954  0.00  0.00    +0.000 C 
ATOM      6  N   UNL     1       1.432   8.576  19.838  0.00  0.00    +0.000 N 
ATOM      7  C   UNL     1       2.083   8.406  18.640  0.00  0.00    +0.000 C 
ATOM      8  O   UNL     1       1.923   9.258  17.758  0.00  0.00    +0.000 OA
ENDROOT
BRANCH   1  15
ATOM      9  C   UNL     1       3.771  16.252  17.939  0.00  0.00    +0.000 C 
ATOM     10  C   UNL     1       2.996  15.137  18.541  0.00  0.00    +0.000 A 
ATOM     11  C   UNL     1       2.319  15.115  19.742  0.00  0.00    +0.000 A 
ATOM     12  N   UNL     1       1.736  13.915  20.072  0.00  0.00    +0.000 NA
ATOM     13  C   UNL     1       1.952  13.037  19.127  0.00  0.00    +0.000 A 
ATOM     14  N   UNL     1       1.555  11.724  19.094  0.00  0.00    +0.000 N 
ATOM     15  C   UNL     1       1.101  11.117  20.236  0.00  0.00    +0.000 C 
ATOM     16  O   UNL     1       1.063  11.634  21.352  0.00  0.00    +0.000 OA
ATOM     17  S   UNL     1       2.820  13.607  17.768  0.00  0.00    +0.000 S 
ATOM     18  H   UNL     1       1.650  11.202  18.232  0.00  0.00    +0.000 HD
ENDBRANCH   1  15
BRANCH   7  19
ATOM     19  C   UNL     1       2.996   7.186  18.411  0.00  0.00    +0.000 C 
BRANCH  19  20
ATOM     20  C   UNL     1       4.100   7.368  17.338  0.00  0.00    +0.000 C 
BRANCH  20  21
ATOM     21  C   UNL     1       4.949   6.133  17.014  0.00  0.00    +0.000 C 
ATOM     22  C   UNL     1       5.362   5.967  15.557  0.00  0.00    +0.000 C 
ATOM     23  C   UNL     1       6.451   4.914  15.600  0.00  0.00    +0.000 C 
ATOM     24  C   UNL     1       7.129   5.095  16.955  0.00  0.00    +0.000 C 
ATOM     25  C   UNL     1       6.313   6.146  17.706  0.00  0.00    +0.000 C 
ENDBRANCH  20  21
ENDBRANCH  19  20
BRANCH  19  26
ATOM     26  C   UNL     1       2.165   5.931  18.044  0.00  0.00    +0.000 C 
BRANCH  26  27
ATOM     27  N   UNL     1       2.441   4.717  18.800  0.00  0.00    +0.000 N 
ATOM     28  C   UNL     1       2.496   3.479  18.202  0.00  0.00    +0.000 C 
ATOM     29  O   UNL     1       2.114   3.209  17.070  0.00  0.00    +0.000 OA
BRANCH  27  30
ATOM     30  O   UNL     1       3.289   4.884  19.912  0.00  0.00    +0.000 OA
ATOM     31  H   UNL     1       2.999   5.771  20.213  0.00  0.00    +0.000 HD
ENDBRANCH  27  30
ENDBRANCH  26  27
ENDBRANCH  19  26
ENDBRANCH   7  19
TORSDOF 7
ENDMDL
MODEL 8
REMARK VINA RESULT:      -8.1      2.667      7.269
REMARK  Name = 
REMARK  8 active torsions:
REMARK  status: ('A' for Active; 'I' for Inactive)
REMARK    1  A    between atoms: C_1  and  C_2
REMARK    2  A    between atoms: C_7  and  C_9
REMARK    3  A    between atoms: C_15  and  C_17
REMARK    4  A    between atoms: C_17  and  C_18
REMARK    5  A    between atoms: C_17  and  C_24
REMARK    6  A    between atoms: C_18  and  C_19
REMARK    7  A    between atoms: C_24  and  N_25
REMARK    8  A    between atoms: N_25  and  O_26
REMARK                            x       y       z     vdW  Elec       q    Type
REMARK                         _______ _______ _______ _____ _____    ______ ____
ROOT
ATOM      1  C   UNL     1       6.701   6.699  17.392  0.00  0.00    +0.000 C 
ATOM      2  C   UNL     1       7.746   6.424  18.492  0.00  0.00    +0.000 C 
ATOM      3  C   UNL     1       7.100   5.325  19.306  0.00  0.00    +0.000 C 
ATOM      4  F   UNL     1       7.194   4.141  18.644  0.00  0.00    +0.000 F 
ATOM      5  C   UNL     1       5.645   5.743  19.333  0.00  0.00    +0.000 C 
ATOM      6  N   UNL     1       5.411   6.356  18.025  0.00  0.00    +0.000 N 
ATOM      7  C   UNL     1       4.226   6.810  17.500  0.00  0.00    +0.000 C 
ATOM      8  O   UNL     1       4.258   7.444  16.438  0.00  0.00    +0.000 OA
ENDROOT
BRANCH   1  15
ATOM      9  C   UNL     1       5.495   2.218  11.338  0.00  0.00    +0.000 C 
ATOM     10  C   UNL     1       5.902   3.236  12.340  0.00  0.00    +0.000 A 
ATOM     11  C   UNL     1       6.956   4.123  12.280  0.00  0.00    +0.000 A 
ATOM     12  N   UNL     1       7.128   4.916  13.391  0.00  0.00    +0.000 NA
ATOM     13  C   UNL     1       6.207   4.648  14.279  0.00  0.00    +0.000 A 
ATOM     14  N   UNL     1       6.052   5.206  15.522  0.00  0.00    +0.000 N 
ATOM     15  C   UNL     1       7.067   5.945  16.073  0.00  0.00    +0.000 C 
ATOM     16  O   UNL     1       8.175   6.121  15.568  0.00  0.00    +0.000 OA
ATOM     17  S   UNL     1       5.053   3.471  13.821  0.00  0.00    +0.000 S 
ATOM     18  H   UNL     1       5.203   5.023  16.042  0.00  0.00    +0.000 HD
ENDBRANCH   1  15
BRANCH   7  19
ATOM     19  C   UNL     1       2.891   6.527  18.217  0.00  0.00    +0.000 C 
BRANCH  19  20
ATOM     20  C   UNL     1       2.105   5.293  17.704  0.00  0.00    +0.000 C 
BRANCH  20  21
ATOM     21  C   UNL     1       2.403   3.957  18.396  0.00  0.00    +0.000 C 
ATOM     22  C   UNL     1       1.233   2.990  18.520  0.00  0.00    +0.000 C 
ATOM     23  C   UNL     1       1.880   1.672  18.892  0.00  0.00    +0.000 C 
ATOM     24  C   UNL     1       3.257   1.703  18.236  0.00  0.00    +0.000 C 
ATOM     25  C   UNL     1       3.413   3.100  17.633  0.00  0.00    +0.000 C 
ENDBRANCH  20  21
ENDBRANCH  19  20
BRANCH  19  26
ATOM     26  C   UNL     1       1.953   7.759  18.153  0.00  0.00    +0.000 C 
BRANCH  26  27
ATOM     27  N   UNL     1       1.790   8.523  19.383  0.00  0.00    +0.000 N 
ATOM     28  C   UNL     1       0.853   9.523  19.504  0.00  0.00    +0.000 C 
ATOM     29  O   UNL     1       0.230  10.040  18.585  0.00  0.00    +0.000 OA
BRANCH  27  30
ATOM     30  O   UNL     1       2.068   7.815  20.568  0.00  0.00    +0.000 OA
ATOM     31  H   UNL     1       1.376   8.188  21.154  0.00  0.00    +0.000 HD
ENDBRANCH  27  30
ENDBRANCH  26  27
ENDBRANCH  19  26
ENDBRANCH   7  19
TORSDOF 7
ENDMDL
MODEL 9
REMARK VINA RESULT:      -8.1      2.710      7.556
REMARK  Name = 
REMARK  8 active torsions:
REMARK  status: ('A' for Active; 'I' for Inactive)
REMARK    1  A    between atoms: C_1  and  C_2
REMARK    2  A    between atoms: C_7  and  C_9
REMARK    3  A    between atoms: C_15  and  C_17
REMARK    4  A    between atoms: C_17  and  C_18
REMARK    5  A    between atoms: C_17  and  C_24
REMARK    6  A    between atoms: C_18  and  C_19
REMARK    7  A    between atoms: C_24  and  N_25
REMARK    8  A    between atoms: N_25  and  O_26
REMARK                            x       y       z     vdW  Elec       q    Type
REMARK                         _______ _______ _______ _____ _____    ______ ____
ROOT
ATOM      1  C   UNL     1       6.563   6.736  17.440  0.00  0.00    +0.000 C 
ATOM      2  C   UNL     1       7.584   6.465  18.563  0.00  0.00    +0.000 C 
ATOM      3  C   UNL     1       6.946   5.335  19.338  0.00  0.00    +0.000 C 
ATOM      4  F   UNL     1       7.089   4.166  18.656  0.00  0.00    +0.000 F 
ATOM      5  C   UNL     1       5.480   5.713  19.333  0.00  0.00    +0.000 C 
ATOM      6  N   UNL     1       5.265   6.346  18.030  0.00  0.00    +0.000 N 
ATOM      7  C   UNL     1       4.083   6.780  17.481  0.00  0.00    +0.000 C 
ATOM      8  O   UNL     1       4.127   7.435  16.433  0.00  0.00    +0.000 OA
ENDROOT
BRANCH   1  15
ATOM      9  C   UNL     1       5.686   2.231  11.347  0.00  0.00    +0.000 C 
ATOM     10  C   UNL     1       6.020   3.266  12.359  0.00  0.00    +0.000 A 
ATOM     11  C   UNL     1       7.014   4.221  12.311  0.00  0.00    +0.000 A 
ATOM     12  N   UNL     1       7.127   5.014  13.428  0.00  0.00    +0.000 NA
ATOM     13  C   UNL     1       6.221   4.680  14.309  0.00  0.00    +0.000 A 
ATOM     14  N   UNL     1       6.023   5.217  15.555  0.00  0.00    +0.000 N 
ATOM     15  C   UNL     1       6.985   6.017  16.117  0.00  0.00    +0.000 C 
ATOM     16  O   UNL     1       8.081   6.270  15.620  0.00  0.00    +0.000 OA
ATOM     17  S   UNL     1       5.150   3.432  13.836  0.00  0.00    +0.000 S 
ATOM     18  H   UNL     1       5.186   4.974  16.070  0.00  0.00    +0.000 HD
ENDBRANCH   1  15
BRANCH   7  19
ATOM     19  C   UNL     1       2.737   6.448  18.155  0.00  0.00    +0.000 C 
BRANCH  19  20
ATOM     20  C   UNL     1       2.245   4.988  17.983  0.00  0.00    +0.000 C 
BRANCH  20  21
ATOM     21  C   UNL     1       2.331   4.087  19.220  0.00  0.00    +0.000 C 
ATOM     22  C   UNL     1       2.319   4.796  20.569  0.00  0.00    +0.000 C 
ATOM     23  C   UNL     1       2.052   3.688  21.567  0.00  0.00    +0.000 C 
ATOM     24  C   UNL     1       1.198   2.671  20.816  0.00  0.00    +0.000 C 
ATOM     25  C   UNL     1       1.127   3.156  19.368  0.00  0.00    +0.000 C 
ENDBRANCH  20  21
ENDBRANCH  19  20
BRANCH  19  26
ATOM     26  C   UNL     1       1.618   7.398  17.660  0.00  0.00    +0.000 C 
BRANCH  26  27
ATOM     27  N   UNL     1       1.610   8.746  18.213  0.00  0.00    +0.000 N 
ATOM     28  C   UNL     1       1.626   8.981  19.568  0.00  0.00    +0.000 C 
ATOM     29  O   UNL     1       1.424   8.150  20.445  0.00  0.00    +0.000 OA
BRANCH  27  30
ATOM     30  O   UNL     1       2.257   9.718  17.427  0.00  0.00    +0.000 OA
ATOM     31  H   UNL     1       1.634   9.769  16.672  0.00  0.00    +0.000 HD
ENDBRANCH  27  30
ENDBRANCH  26  27
ENDBRANCH  19  26
ENDBRANCH   7  19
TORSDOF 7
ENDMDL
