MODEL 1
REMARK VINA RESULT:      -6.8      0.000      0.000
REMARK  Name = 
REMARK  8 active torsions:
REMARK  status: ('A' for Active; 'I' for Inactive)
REMARK    1  A    between atoms: C_1  and  C_2
REMARK    2  A    between atoms: C_2  and  O_4
REMARK    3  A    between atoms: O_4  and  C_5
REMARK    4  A    between atoms: C_8  and  O_9
REMARK    5  A    between atoms: C_11  and  C_12
REMARK    6  A    between atoms: C_13  and  O_14
REMARK    7  A    between atoms: O_14  and  C_15
REMARK    8  A    between atoms: C_15  and  C_16
REMARK                            x       y       z     vdW  Elec       q    Type
REMARK                         _______ _______ _______ _____ _____    ______ ____
ROOT
ATOM      1  C   UNL     1       5.936   5.516  16.237  0.00  0.00    +0.000 C 
ATOM      2  C   UNL     1       7.159   6.073  16.999  0.00  0.00    +0.000 C 
ATOM      3 CL   UNL     1       6.899   7.762  17.559  0.00  0.00    +0.000 Cl
ATOM      4  C   UNL     1       7.551   5.151  18.175  0.00  0.00    +0.000 C 
ATOM      5  O   UNL     1       6.459   4.667  18.954  0.00  0.00    +0.000 OA
ATOM      6  C   UNL     1       5.416   4.056  18.188  0.00  0.00    +0.000 C 
ATOM      7  C   UNL     1       4.425   3.423  19.152  0.00  0.00    +0.000 C 
ATOM      8  C   UNL     1       4.813   5.084  17.213  0.00  0.00    +0.000 C 
ENDROOT
BRANCH   4   9
ATOM      9  O   UNL     1       8.340   4.047  17.729  0.00  0.00    +0.000 OA
ATOM     10  H   UNL     1       9.193   4.086  18.187  0.00  0.00    +0.000 HD
ENDBRANCH   4   9
BRANCH   1  11
ATOM     11  O   UNL     1       6.344   4.346  15.469  0.00  0.00    +0.000 OA
BRANCH  11  13
ATOM     12  C   UNL     1       6.032   3.751  13.220  0.00  0.00    +0.000 C 
ATOM     13  C   UNL     1       6.796   4.580  14.204  0.00  0.00    +0.000 C 
ATOM     14  O   UNL     1       7.736   5.305  13.928  0.00  0.00    +0.000 OA
ENDBRANCH  11  13
ENDBRANCH   1  11
BRANCH   8  15
ATOM     15  O   UNL     1       4.380   6.287  17.889  0.00  0.00    +0.000 OA
BRANCH  15  16
ATOM     16  C   UNL     1       3.066   6.589  17.979  0.00  0.00    +0.000 C 
ATOM     17  C   UNL     1       2.881   8.078  17.901  0.00  0.00    +0.000 C 
ATOM     18  O   UNL     1       2.157   5.775  18.041  0.00  0.00    +0.000 OA
ENDBRANCH  15  16
ENDBRANCH   8  15
TORSDOF 5
ENDMDL
MODEL 2
REMARK VINA RESULT:      -6.5      1.904      2.373
REMARK  Name = 
REMARK  8 active torsions:
REMARK  status: ('A' for Active; 'I' for Inactive)
REMARK    1  A    between atoms: C_1  and  C_2
REMARK    2  A    between atoms: C_2  and  O_4
REMARK    3  A    between atoms: O_4  and  C_5
REMARK    4  A    between atoms: C_8  and  O_9
REMARK    5  A    between atoms: C_11  and  C_12
REMARK    6  A    between atoms: C_13  and  O_14
REMARK    7  A    between atoms: O_14  and  C_15
REMARK    8  A    between atoms: C_15  and  C_16
REMARK                            x       y       z     vdW  Elec       q    Type
REMARK                         _______ _______ _______ _____ _____    ______ ____
ROOT
ATOM      1  C   UNL     1       4.521   4.402  16.845  0.00  0.00    +0.000 C 
ATOM      2  C   UNL     1       5.052   5.698  17.495  0.00  0.00    +0.000 C 
ATOM      3 CL   UNL     1       3.759   6.928  17.712  0.00  0.00    +0.000 Cl
ATOM      4  C   UNL     1       5.765   5.399  18.833  0.00  0.00    +0.000 C 
ATOM      5  O   UNL     1       5.096   4.468  19.680  0.00  0.00    +0.000 OA
ATOM      6  C   UNL     1       4.739   3.239  19.037  0.00  0.00    +0.000 C 
ATOM      7  C   UNL     1       4.215   2.282  20.097  0.00  0.00    +0.000 C 
ATOM      8  C   UNL     1       3.770   3.521  17.874  0.00  0.00    +0.000 C 
ENDROOT
BRANCH   4   9
ATOM      9  O   UNL     1       7.108   4.964  18.620  0.00  0.00    +0.000 OA
ATOM     10  H   UNL     1       7.193   4.068  18.981  0.00  0.00    +0.000 HD
ENDBRANCH   4   9
BRANCH   1  11
ATOM     11  O   UNL     1       5.645   3.633  16.324  0.00  0.00    +0.000 OA
BRANCH  11  13
ATOM     12  C   UNL     1       5.709   4.198  14.047  0.00  0.00    +0.000 C 
ATOM     13  C   UNL     1       6.406   4.241  15.371  0.00  0.00    +0.000 C 
ATOM     14  O   UNL     1       7.523   4.691  15.559  0.00  0.00    +0.000 OA
ENDBRANCH  11  13
ENDBRANCH   1  11
BRANCH   8  15
ATOM     15  O   UNL     1       2.618   4.285  18.297  0.00  0.00    +0.000 OA
BRANCH  15  16
ATOM     16  C   UNL     1       1.506   3.662  18.743  0.00  0.00    +0.000 C 
ATOM     17  C   UNL     1       1.108   4.226  20.077  0.00  0.00    +0.000 C 
ATOM     18  O   UNL     1       0.873   2.818  18.126  0.00  0.00    +0.000 OA
ENDBRANCH  15  16
ENDBRANCH   8  15
TORSDOF 5
ENDMDL
MODEL 3
REMARK VINA RESULT:      -6.2      1.481      1.571
REMARK  Name = 
REMARK  8 active torsions:
REMARK  status: ('A' for Active; 'I' for Inactive)
REMARK    1  A    between atoms: C_1  and  C_2
REMARK    2  A    between atoms: C_2  and  O_4
REMARK    3  A    between atoms: O_4  and  C_5
REMARK    4  A    between atoms: C_8  and  O_9
REMARK    5  A    between atoms: C_11  and  C_12
REMARK    6  A    between atoms: C_13  and  O_14
REMARK    7  A    between atoms: O_14  and  C_15
REMARK    8  A    between atoms: C_15  and  C_16
REMARK                            x       y       z     vdW  Elec       q    Type
REMARK                         _______ _______ _______ _____ _____    ______ ____
ROOT
ATOM      1  C   UNL     1       5.062   4.865  16.246  0.00  0.00    +0.000 C 
ATOM      2  C   UNL     1       5.898   5.789  17.158  0.00  0.00    +0.000 C 
ATOM      3 CL   UNL     1       4.990   7.262  17.647  0.00  0.00    +0.000 Cl
ATOM      4  C   UNL     1       6.425   5.025  18.394  0.00  0.00    +0.000 C 
ATOM      5  O   UNL     1       5.477   4.166  19.023  0.00  0.00    +0.000 OA
ATOM      6  C   UNL     1       4.827   3.254  18.132  0.00  0.00    +0.000 C 
ATOM      7  C   UNL     1       3.999   2.285  18.962  0.00  0.00    +0.000 C 
ATOM      8  C   UNL     1       4.040   4.038  17.065  0.00  0.00    +0.000 C 
ENDROOT
BRANCH   4   9
ATOM      9  O   UNL     1       7.603   4.281  18.080  0.00  0.00    +0.000 OA
ATOM     10  H   UNL     1       8.134   4.808  17.465  0.00  0.00    +0.000 HD
ENDBRANCH   4   9
BRANCH   1  11
ATOM     11  O   UNL     1       5.953   3.936  15.561  0.00  0.00    +0.000 OA
BRANCH  11  13
ATOM     12  C   UNL     1       6.109   3.730  13.229  0.00  0.00    +0.000 C 
ATOM     13  C   UNL     1       6.603   4.416  14.464  0.00  0.00    +0.000 C 
ATOM     14  O   UNL     1       7.506   5.235  14.496  0.00  0.00    +0.000 OA
ENDBRANCH  11  13
ENDBRANCH   1  11
BRANCH   8  15
ATOM     15  O   UNL     1       3.127   4.992  17.653  0.00  0.00    +0.000 OA
BRANCH  15  16
ATOM     16  C   UNL     1       1.897   4.606  18.059  0.00  0.00    +0.000 C 
ATOM     17  C   UNL     1       1.710   4.949  19.510  0.00  0.00    +0.000 C 
ATOM     18  O   UNL     1       1.037   4.118  17.341  0.00  0.00    +0.000 OA
ENDBRANCH  15  16
ENDBRANCH   8  15
TORSDOF 5
ENDMDL
MODEL 4
REMARK VINA RESULT:      -6.2      2.593      5.516
REMARK  Name = 
REMARK  8 active torsions:
REMARK  status: ('A' for Active; 'I' for Inactive)
REMARK    1  A    between atoms: C_1  and  C_2
REMARK    2  A    between atoms: C_2  and  O_4
REMARK    3  A    between atoms: O_4  and  C_5
REMARK    4  A    between atoms: C_8  and  O_9
REMARK    5  A    between atoms: C_11  and  C_12
REMARK    6  A    between atoms: C_13  and  O_14
REMARK    7  A    between atoms: O_14  and  C_15
REMARK    8  A    between atoms: C_15  and  C_16
REMARK                            x       y       z     vdW  Elec       q    Type
REMARK                         _______ _______ _______ _____ _____    ______ ____
ROOT
ATOM      1  C   UNL     1       3.638   4.088  19.688  0.00  0.00    +0.000 C 
ATOM      2  C   UNL     1       2.562   5.074  19.184  0.00  0.00    +0.000 C 
ATOM      3 CL   UNL     1       2.920   6.771  19.658  0.00  0.00    +0.000 Cl
ATOM      4  C   UNL     1       2.365   4.953  17.656  0.00  0.00    +0.000 C 
ATOM      5  O   UNL     1       3.568   4.854  16.898  0.00  0.00    +0.000 OA
ATOM      6  C   UNL     1       4.467   3.836  17.352  0.00  0.00    +0.000 C 
ATOM      7  C   UNL     1       5.601   3.718  16.345  0.00  0.00    +0.000 C 
ATOM      8  C   UNL     1       4.905   4.133  18.798  0.00  0.00    +0.000 C 
ENDROOT
BRANCH   4   9
ATOM      9  O   UNL     1       1.507   3.860  17.328  0.00  0.00    +0.000 OA
ATOM     10  H   UNL     1       1.133   3.516  18.154  0.00  0.00    +0.000 HD
ENDBRANCH   4   9
BRANCH   1  11
ATOM     11  O   UNL     1       3.102   2.732  19.645  0.00  0.00    +0.000 OA
BRANCH  11  13
ATOM     12  C   UNL     1       2.070   2.665  21.752  0.00  0.00    +0.000 C 
ATOM     13  C   UNL     1       1.907   2.533  20.270  0.00  0.00    +0.000 C 
ATOM     14  O   UNL     1       0.873   2.222  19.704  0.00  0.00    +0.000 OA
ENDBRANCH  11  13
ENDBRANCH   1  11
BRANCH   8  15
ATOM     15  O   UNL     1       5.451   5.465  18.939  0.00  0.00    +0.000 OA
BRANCH  15  16
ATOM     16  C   UNL     1       6.772   5.647  19.156  0.00  0.00    +0.000 C 
ATOM     17  C   UNL     1       7.364   6.453  18.036  0.00  0.00    +0.000 C 
ATOM     18  O   UNL     1       7.382   5.277  20.148  0.00  0.00    +0.000 OA
ENDBRANCH  15  16
ENDBRANCH   8  15
TORSDOF 5
ENDMDL
MODEL 5
REMARK VINA RESULT:      -6.2      2.259      2.975
REMARK  Name = 
REMARK  8 active torsions:
REMARK  status: ('A' for Active; 'I' for Inactive)
REMARK    1  A    between atoms: C_1  and  C_2
REMARK    2  A    between atoms: C_2  and  O_4
REMARK    3  A    between atoms: O_4  and  C_5
REMARK    4  A    between atoms: C_8  and  O_9
REMARK    5  A    between atoms: C_11  and  C_12
REMARK    6  A    between atoms: C_13  and  O_14
REMARK    7  A    between atoms: O_14  and  C_15
REMARK    8  A    between atoms: C_15  and  C_16
REMARK                            x       y       z     vdW  Elec       q    Type
REMARK                         _______ _______ _______ _____ _____    ______ ____
ROOT
ATOM      1  C   UNL     1       3.907   4.864  17.074  0.00  0.00    +0.000 C 
ATOM      2  C   UNL     1       4.649   5.536  18.250  0.00  0.00    +0.000 C 
ATOM      3 CL   UNL     1       3.548   6.527  19.270  0.00  0.00    +0.000 Cl
ATOM      4  C   UNL     1       5.407   4.492  19.101  0.00  0.00    +0.000 C 
ATOM      5  O   UNL     1       4.680   3.298  19.382  0.00  0.00    +0.000 OA
ATOM      6  C   UNL     1       4.120   2.665  18.226  0.00  0.00    +0.000 C 
ATOM      7  C   UNL     1       3.547   1.321  18.649  0.00  0.00    +0.000 C 
ATOM      8  C   UNL     1       3.119   3.616  17.543  0.00  0.00    +0.000 C 
ENDROOT
BRANCH   4   9
ATOM      9  O   UNL     1       6.662   4.154  18.511  0.00  0.00    +0.000 OA
ATOM     10  H   UNL     1       6.486   3.717  17.663  0.00  0.00    +0.000 HD
ENDBRANCH   4   9
BRANCH   1  11
ATOM     11  O   UNL     1       4.880   4.437  16.076  0.00  0.00    +0.000 OA
BRANCH  11  13
ATOM     12  C   UNL     1       6.935   4.945  15.062  0.00  0.00    +0.000 C 
ATOM     13  C   UNL     1       5.568   5.425  15.439  0.00  0.00    +0.000 C 
ATOM     14  O   UNL     1       5.152   6.559  15.267  0.00  0.00    +0.000 OA
ENDBRANCH  11  13
ENDBRANCH   1  11
BRANCH   8  15
ATOM     15  O   UNL     1       2.111   4.096  18.462  0.00  0.00    +0.000 OA
BRANCH  15  16
ATOM     16  C   UNL     1       1.174   3.256  18.955  0.00  0.00    +0.000 C 
ATOM     17  C   UNL     1       1.050   3.448  20.439  0.00  0.00    +0.000 C 
ATOM     18  O   UNL     1       0.478   2.504  18.288  0.00  0.00    +0.000 OA
ENDBRANCH  15  16
ENDBRANCH   8  15
TORSDOF 5
ENDMDL
MODEL 6
REMARK VINA RESULT:      -6.1      2.715      4.430
REMARK  Name = 
REMARK  8 active torsions:
REMARK  status: ('A' for Active; 'I' for Inactive)
REMARK    1  A    between atoms: C_1  and  C_2
REMARK    2  A    between atoms: C_2  and  O_4
REMARK    3  A    between atoms: O_4  and  C_5
REMARK    4  A    between atoms: C_8  and  O_9
REMARK    5  A    between atoms: C_11  and  C_12
REMARK    6  A    between atoms: C_13  and  O_14
REMARK    7  A    between atoms: O_14  and  C_15
REMARK    8  A    between atoms: C_15  and  C_16
REMARK                            x       y       z     vdW  Elec       q    Type
REMARK                         _______ _______ _______ _____ _____    ______ ____
ROOT
ATOM      1  C   UNL     1       5.168   4.505  19.098  0.00  0.00    +0.000 C 
ATOM      2  C   UNL     1       4.794   4.418  17.602  0.00  0.00    +0.000 C 
ATOM      3 CL   UNL     1       4.105   2.816  17.166  0.00  0.00    +0.000 Cl
ATOM      4  C   UNL     1       3.838   5.564  17.198  0.00  0.00    +0.000 C 
ATOM      5  O   UNL     1       2.784   5.826  18.122  0.00  0.00    +0.000 OA
ATOM      6  C   UNL     1       3.220   6.013  19.473  0.00  0.00    +0.000 C 
ATOM      7  C   UNL     1       2.027   6.470  20.299  0.00  0.00    +0.000 C 
ATOM      8  C   UNL     1       3.915   4.735  19.979  0.00  0.00    +0.000 C 
ENDROOT
BRANCH   4   9
ATOM      9  O   UNL     1       4.555   6.772  16.943  0.00  0.00    +0.000 OA
ATOM     10  H   UNL     1       4.199   7.164  16.131  0.00  0.00    +0.000 HD
ENDBRANCH   4   9
BRANCH   1  11
ATOM     11  O   UNL     1       6.076   5.627  19.300  0.00  0.00    +0.000 OA
BRANCH  11  13
ATOM     12  C   UNL     1       7.763   6.849  18.219  0.00  0.00    +0.000 C 
ATOM     13  C   UNL     1       7.309   5.517  18.730  0.00  0.00    +0.000 C 
ATOM     14  O   UNL     1       7.920   4.470  18.594  0.00  0.00    +0.000 OA
ENDBRANCH  11  13
ENDBRANCH   1  11
BRANCH   8  15
ATOM     15  O   UNL     1       3.084   3.562  19.817  0.00  0.00    +0.000 OA
BRANCH  15  16
ATOM     16  C   UNL     1       2.429   3.033  20.873  0.00  0.00    +0.000 C 
ATOM     17  C   UNL     1       0.955   2.988  20.586  0.00  0.00    +0.000 C 
ATOM     18  O   UNL     1       2.957   2.587  21.881  0.00  0.00    +0.000 OA
ENDBRANCH  15  16
ENDBRANCH   8  15
TORSDOF 5
ENDMDL
MODEL 7
REMARK VINA RESULT:      -6.1      1.937      4.944
REMARK  Name = 
REMARK  8 active torsions:
REMARK  status: ('A' for Active; 'I' for Inactive)
REMARK    1  A    between atoms: C_1  and  C_2
REMARK    2  A    between atoms: C_2  and  O_4
REMARK    3  A    between atoms: O_4  and  C_5
REMARK    4  A    between atoms: C_8  and  O_9
REMARK    5  A    between atoms: C_11  and  C_12
REMARK    6  A    between atoms: C_13  and  O_14
REMARK    7  A    between atoms: O_14  and  C_15
REMARK    8  A    between atoms: C_15  and  C_16
REMARK                            x       y       z     vdW  Elec       q    Type
REMARK                         _______ _______ _______ _____ _____    ______ ____
ROOT
ATOM      1  C   UNL     1       4.084   6.011  17.437  0.00  0.00    +0.000 C 
ATOM      2  C   UNL     1       3.433   4.770  18.085  0.00  0.00    +0.000 C 
ATOM      3 CL   UNL     1       3.167   3.445  16.899  0.00  0.00    +0.000 Cl
ATOM      4  C   UNL     1       4.255   4.276  19.297  0.00  0.00    +0.000 C 
ATOM      5  O   UNL     1       5.667   4.245  19.097  0.00  0.00    +0.000 OA
ATOM      6  C   UNL     1       6.218   5.472  18.606  0.00  0.00    +0.000 C 
ATOM      7  C   UNL     1       7.734   5.355  18.626  0.00  0.00    +0.000 C 
ATOM      8  C   UNL     1       5.606   5.806  17.233  0.00  0.00    +0.000 C 
ENDROOT
BRANCH   4   9
ATOM      9  O   UNL     1       3.959   5.035  20.469  0.00  0.00    +0.000 OA
ATOM     10  H   UNL     1       4.383   4.598  21.223  0.00  0.00    +0.000 HD
ENDBRANCH   4   9
BRANCH   1  11
ATOM     11  O   UNL     1       3.895   7.162  18.312  0.00  0.00    +0.000 OA
BRANCH  11  13
ATOM     12  C   UNL     1       2.039   8.419  17.615  0.00  0.00    +0.000 C 
ATOM     13  C   UNL     1       2.607   7.476  18.629  0.00  0.00    +0.000 C 
ATOM     14  O   UNL     1       2.030   7.098  19.635  0.00  0.00    +0.000 OA
ENDBRANCH  11  13
ENDBRANCH   1  11
BRANCH   8  15
ATOM     15  O   UNL     1       5.745   4.716  16.294  0.00  0.00    +0.000 OA
BRANCH  15  16
ATOM     16  C   UNL     1       6.536   4.842  15.205  0.00  0.00    +0.000 C 
ATOM     17  C   UNL     1       5.950   4.068  14.060  0.00  0.00    +0.000 C 
ATOM     18  O   UNL     1       7.537   5.540  15.137  0.00  0.00    +0.000 OA
ENDBRANCH  15  16
ENDBRANCH   8  15
TORSDOF 5
ENDMDL
MODEL 8
REMARK VINA RESULT:      -6.1      2.495      5.267
REMARK  Name = 
REMARK  8 active torsions:
REMARK  status: ('A' for Active; 'I' for Inactive)
REMARK    1  A    between atoms: C_1  and  C_2
REMARK    2  A    between atoms: C_2  and  O_4
REMARK    3  A    between atoms: O_4  and  C_5
REMARK    4  A    between atoms: C_8  and  O_9
REMARK    5  A    between atoms: C_11  and  C_12
REMARK    6  A    between atoms: C_13  and  O_14
REMARK    7  A    between atoms: O_14  and  C_15
REMARK    8  A    between atoms: C_15  and  C_16
REMARK                            x       y       z     vdW  Elec       q    Type
REMARK                         _______ _______ _______ _____ _____    ______ ____
ROOT
ATOM      1  C   UNL     1       2.876   6.231  18.036  0.00  0.00    +0.000 C 
ATOM      2  C   UNL     1       2.191   4.957  18.575  0.00  0.00    +0.000 C 
ATOM      3 CL   UNL     1       1.951   3.720  17.292  0.00  0.00    +0.000 Cl
ATOM      4  C   UNL     1       2.969   4.370  19.775  0.00  0.00    +0.000 C 
ATOM      5  O   UNL     1       4.386   4.336  19.618  0.00  0.00    +0.000 OA
ATOM      6  C   UNL     1       4.964   5.587  19.232  0.00  0.00    +0.000 C 
ATOM      7  C   UNL     1       6.478   5.450  19.291  0.00  0.00    +0.000 C 
ATOM      8  C   UNL     1       4.401   6.023  17.866  0.00  0.00    +0.000 C 
ENDROOT
BRANCH   4   9
ATOM      9  O   UNL     1       2.643   5.050  20.987  0.00  0.00    +0.000 OA
ATOM     10  H   UNL     1       3.393   5.617  21.222  0.00  0.00    +0.000 HD
ENDBRANCH   4   9
BRANCH   1  11
ATOM     11  O   UNL     1       2.670   7.321  18.982  0.00  0.00    +0.000 OA
BRANCH  11  13
ATOM     12  C   UNL     1       1.250   9.111  19.518  0.00  0.00    +0.000 C 
ATOM     13  C   UNL     1       2.111   8.459  18.482  0.00  0.00    +0.000 C 
ATOM     14  O   UNL     1       2.239   8.847  17.333  0.00  0.00    +0.000 OA
ENDBRANCH  11  13
ENDBRANCH   1  11
BRANCH   8  15
ATOM     15  O   UNL     1       4.560   4.998  16.859  0.00  0.00    +0.000 OA
BRANCH  15  16
ATOM     16  C   UNL     1       5.320   5.222  15.764  0.00  0.00    +0.000 C 
ATOM     17  C   UNL     1       5.922   3.930  15.290  0.00  0.00    +0.000 C 
ATOM     18  O   UNL     1       5.444   6.298  15.198  0.00  0.00    +0.000 OA
ENDBRANCH  15  16
ENDBRANCH   8  15
TORSDOF 5
ENDMDL
MODEL 9
REMARK VINA RESULT:      -6.1      2.524      4.899
REMARK  Name = 
REMARK  8 active torsions:
REMARK  status: ('A' for Active; 'I' for Inactive)
REMARK    1  A    between atoms: C_1  and  C_2
REMARK    2  A    between atoms: C_2  and  O_4
REMARK    3  A    between atoms: O_4  and  C_5
REMARK    4  A    between atoms: C_8  and  O_9
REMARK    5  A    between atoms: C_11  and  C_12
REMARK    6  A    between atoms: C_13  and  O_14
REMARK    7  A    between atoms: O_14  and  C_15
REMARK    8  A    between atoms: C_15  and  C_16
REMARK                            x       y       z     vdW  Elec       q    Type
REMARK                         _______ _______ _______ _____ _____    ______ ____
ROOT
ATOM      1  C   UNL     1       4.007   5.639  18.257  0.00  0.00    +0.000 C 
ATOM      2  C   UNL     1       3.883   4.970  16.871  0.00  0.00    +0.000 C 
ATOM      3 CL   UNL     1       5.407   5.083  15.923  0.00  0.00    +0.000 Cl
ATOM      4  C   UNL     1       3.415   3.503  16.999  0.00  0.00    +0.000 C 
ATOM      5  O   UNL     1       4.050   2.754  18.033  0.00  0.00    +0.000 OA
ATOM      6  C   UNL     1       4.022   3.385  19.318  0.00  0.00    +0.000 C 
ATOM      7  C   UNL     1       4.556   2.398  20.345  0.00  0.00    +0.000 C 
ATOM      8  C   UNL     1       4.767   4.731  19.255  0.00  0.00    +0.000 C 
ENDROOT
BRANCH   4   9
ATOM      9  O   UNL     1       1.998   3.422  17.158  0.00  0.00    +0.000 OA
ATOM     10  H   UNL     1       1.760   2.486  17.241  0.00  0.00    +0.000 HD
ENDBRANCH   4   9
BRANCH   1  11
ATOM     11  O   UNL     1       2.673   5.883  18.792  0.00  0.00    +0.000 OA
BRANCH  11  13
ATOM     12  C   UNL     1       2.685   8.084  17.978  0.00  0.00    +0.000 C 
ATOM     13  C   UNL     1       2.381   7.172  19.125  0.00  0.00    +0.000 C 
ATOM     14  O   UNL     1       1.995   7.533  20.224  0.00  0.00    +0.000 OA
ENDBRANCH  11  13
ENDBRANCH   1  11
BRANCH   8  15
ATOM     15  O   UNL     1       6.108   4.587  18.732  0.00  0.00    +0.000 OA
BRANCH  15  16
ATOM     16  C   UNL     1       7.115   5.357  19.201  0.00  0.00    +0.000 C 
ATOM     17  C   UNL     1       7.573   6.302  18.128  0.00  0.00    +0.000 C 
ATOM     18  O   UNL     1       7.541   5.341  20.346  0.00  0.00    +0.000 OA
ENDBRANCH  15  16
ENDBRANCH   8  15
TORSDOF 5
ENDMDL
