MODEL 1
REMARK VINA RESULT:      -8.1      0.000      0.000
REMARK  Name = 
REMARK  5 active torsions:
REMARK  status: ('A' for Active; 'I' for Inactive)
REMARK    1  A    between atoms: C_2  and  C_3
REMARK    2  A    between atoms: C_3  and  C_4
REMARK    3  A    between atoms: C_3  and  C_10
REMARK    4  A    between atoms: N_15  and  C_16
REMARK    5  A    between atoms: C_16  and  C_17
REMARK                            x       y       z     vdW  Elec       q    Type
REMARK                         _______ _______ _______ _____ _____    ______ ____
ROOT
ATOM      1  C   UNL     1       2.484   6.917  18.793  0.00  0.00    +0.000 A 
ATOM      2  C   UNL     1       2.198   6.658  20.078  0.00  0.00    +0.000 A 
ATOM      3 CL   UNL     1       2.532   5.193  20.903  0.00  0.00    +0.000 Cl
ATOM      4  C   UNL     1       1.558   7.705  20.882  0.00  0.00    +0.000 A 
ATOM      5  N   UNL     1       1.207   8.873  20.449  0.00  0.00    +0.000 NA
ATOM      6  N   UNL     1       1.458   9.138  19.132  0.00  0.00    +0.000 N 
ATOM      7  C   UNL     1       2.090   8.256  18.251  0.00  0.00    +0.000 A 
ATOM      8  O   UNL     1       2.333   8.517  17.076  0.00  0.00    +0.000 OA
ENDROOT
BRANCH   1   9
ATOM      9  C   UNL     1       3.192   5.982  17.823  0.00  0.00    +0.000 C 
BRANCH   9  10
ATOM     10  C   UNL     1       2.900   4.499  18.074  0.00  0.00    +0.000 A 
ATOM     11  C   UNL     1       1.611   3.985  17.941  0.00  0.00    +0.000 A 
ATOM     12  C   UNL     1       1.393   2.629  18.200  0.00  0.00    +0.000 A 
ATOM     13  C   UNL     1       2.457   1.817  18.567  0.00  0.00    +0.000 A 
ATOM     14  C   UNL     1       3.708   2.391  18.655  0.00  0.00    +0.000 A 
ATOM     15  N   UNL     1       3.943   3.701  18.418  0.00  0.00    +0.000 NA
ENDBRANCH   9  10
BRANCH   9  17
ATOM     16  N   UNL     1       5.920   6.502  17.975  0.00  0.00    +0.000 NA
ATOM     17  C   UNL     1       4.683   6.267  17.906  0.00  0.00    +0.000 C 
ENDBRANCH   9  17
ENDBRANCH   1   9
BRANCH   6  18
ATOM     18  C   UNL     1       1.019  10.458  18.683  0.00  0.00    +0.000 C 
BRANCH  18  19
ATOM     19  C   UNL     1      -0.480  10.576  18.580  0.00  0.00    +0.000 A 
ATOM     20  C   UNL     1      -1.057   9.927  17.450  0.00  0.00    +0.000 A 
ATOM     21  C   UNL     1      -2.418  10.036  17.169  0.00  0.00    +0.000 A 
ATOM     22  C   UNL     1      -3.188  10.862  17.952  0.00  0.00    +0.000 A 
ATOM     23  C   UNL     1      -2.652  11.509  19.093  0.00  0.00    +0.000 A 
ATOM     24  C   UNL     1      -3.442  12.479  19.700  0.00  0.00    +0.000 A 
ATOM     25  C   UNL     1      -2.897  13.191  20.734  0.00  0.00    +0.000 A 
ATOM     26  C   UNL     1      -1.834  12.667  21.454  0.00  0.00    +0.000 A 
ATOM     27  C   UNL     1      -0.979  11.825  20.760  0.00  0.00    +0.000 A 
ATOM     28  C   UNL     1      -1.316  11.300  19.493  0.00  0.00    +0.000 A 
ENDBRANCH  18  19
ENDBRANCH   6  18
TORSDOF 5
ENDMDL
MODEL 2
REMARK VINA RESULT:      -7.6      0.843      2.100
REMARK  Name = 
REMARK  5 active torsions:
REMARK  status: ('A' for Active; 'I' for Inactive)
REMARK    1  A    between atoms: C_2  and  C_3
REMARK    2  A    between atoms: C_3  and  C_4
REMARK    3  A    between atoms: C_3  and  C_10
REMARK    4  A    between atoms: N_15  and  C_16
REMARK    5  A    between atoms: C_16  and  C_17
REMARK                            x       y       z     vdW  Elec       q    Type
REMARK                         _______ _______ _______ _____ _____    ______ ____
ROOT
ATOM      1  C   UNL     1       2.633   6.678  18.957  0.00  0.00    +0.000 A 
ATOM      2  C   UNL     1       2.105   6.604  20.188  0.00  0.00    +0.000 A 
ATOM      3 CL   UNL     1       2.149   5.231  21.215  0.00  0.00    +0.000 Cl
ATOM      4  C   UNL     1       1.439   7.787  20.742  0.00  0.00    +0.000 A 
ATOM      5  N   UNL     1       1.282   8.915  20.127  0.00  0.00    +0.000 NA
ATOM      6  N   UNL     1       1.783   8.995  18.857  0.00  0.00    +0.000 N 
ATOM      7  C   UNL     1       2.470   7.964  18.209  0.00  0.00    +0.000 A 
ATOM      8  O   UNL     1       2.938   8.058  17.077  0.00  0.00    +0.000 OA
ENDROOT
BRANCH   1   9
ATOM      9  C   UNL     1       3.406   5.579  18.241  0.00  0.00    +0.000 C 
BRANCH   9  10
ATOM     10  C   UNL     1       2.797   4.184  18.418  0.00  0.00    +0.000 A 
ATOM     11  C   UNL     1       1.439   3.956  18.200  0.00  0.00    +0.000 A 
ATOM     12  C   UNL     1       0.928   2.670  18.392  0.00  0.00    +0.000 A 
ATOM     13  C   UNL     1       1.776   1.642  18.781  0.00  0.00    +0.000 A 
ATOM     14  C   UNL     1       3.113   1.938  18.956  0.00  0.00    +0.000 A 
ATOM     15  N   UNL     1       3.628   3.175  18.783  0.00  0.00    +0.000 NA
ENDBRANCH   9  10
BRANCH   9  17
ATOM     16  N   UNL     1       6.031   5.647  19.158  0.00  0.00    +0.000 NA
ATOM     17  C   UNL     1       4.841   5.616  18.742  0.00  0.00    +0.000 C 
ENDBRANCH   9  17
ENDBRANCH   1   9
BRANCH   6  18
ATOM     18  C   UNL     1       1.558  10.278  18.194  0.00  0.00    +0.000 C 
BRANCH  18  19
ATOM     19  C   UNL     1       0.310  10.976  18.672  0.00  0.00    +0.000 A 
ATOM     20  C   UNL     1       0.509  11.892  19.746  0.00  0.00    +0.000 A 
ATOM     21  C   UNL     1      -0.566  12.534  20.359  0.00  0.00    +0.000 A 
ATOM     22  C   UNL     1      -1.841  12.197  19.971  0.00  0.00    +0.000 A 
ATOM     23  C   UNL     1      -2.075  11.304  18.897  0.00  0.00    +0.000 A 
ATOM     24  C   UNL     1      -3.382  10.866  18.711  0.00  0.00    +0.000 A 
ATOM     25  C   UNL     1      -3.607   9.919  17.750  0.00  0.00    +0.000 A 
ATOM     26  C   UNL     1      -2.710   9.762  16.704  0.00  0.00    +0.000 A 
ATOM     27  C   UNL     1      -1.385  10.063  16.984  0.00  0.00    +0.000 A 
ATOM     28  C   UNL     1      -1.009  10.754  18.156  0.00  0.00    +0.000 A 
ENDBRANCH  18  19
ENDBRANCH   6  18
TORSDOF 5
ENDMDL
MODEL 3
REMARK VINA RESULT:      -7.6      2.489      8.220
REMARK  Name = 
REMARK  5 active torsions:
REMARK  status: ('A' for Active; 'I' for Inactive)
REMARK    1  A    between atoms: C_2  and  C_3
REMARK    2  A    between atoms: C_3  and  C_4
REMARK    3  A    between atoms: C_3  and  C_10
REMARK    4  A    between atoms: N_15  and  C_16
REMARK    5  A    between atoms: C_16  and  C_17
REMARK                            x       y       z     vdW  Elec       q    Type
REMARK                         _______ _______ _______ _____ _____    ______ ____
ROOT
ATOM      1  C   UNL     1       0.571   9.764  19.464  0.00  0.00    +0.000 A 
ATOM      2  C   UNL     1       0.150   9.812  20.737  0.00  0.00    +0.000 A 
ATOM      3 CL   UNL     1      -0.963  10.946  21.382  0.00  0.00    +0.000 Cl
ATOM      4  C   UNL     1       0.654   8.812  21.684  0.00  0.00    +0.000 A 
ATOM      5  N   UNL     1       1.511   7.883  21.407  0.00  0.00    +0.000 NA
ATOM      6  N   UNL     1       1.977   7.843  20.123  0.00  0.00    +0.000 N 
ATOM      7  C   UNL     1       1.567   8.706  19.102  0.00  0.00    +0.000 A 
ATOM      8  O   UNL     1       1.974   8.643  17.946  0.00  0.00    +0.000 OA
ENDROOT
BRANCH   1   9
ATOM      9  C   UNL     1       0.120  10.676  18.332  0.00  0.00    +0.000 C 
BRANCH   9  10
ATOM     10  C   UNL     1       0.471  12.151  18.553  0.00  0.00    +0.000 A 
ATOM     11  C   UNL     1       1.788  12.555  18.765  0.00  0.00    +0.000 A 
ATOM     12  C   UNL     1       2.055  13.910  18.981  0.00  0.00    +0.000 A 
ATOM     13  C   UNL     1       1.014  14.828  18.966  0.00  0.00    +0.000 A 
ATOM     14  C   UNL     1      -0.260  14.357  18.727  0.00  0.00    +0.000 A 
ATOM     15  N   UNL     1      -0.544  13.052  18.524  0.00  0.00    +0.000 NA
ENDBRANCH   9  10
BRANCH   9  17
ATOM     16  N   UNL     1      -2.622  10.340  18.007  0.00  0.00    +0.000 NA
ATOM     17  C   UNL     1      -1.379  10.492  18.154  0.00  0.00    +0.000 C 
ENDBRANCH   9  17
ENDBRANCH   1   9
BRANCH   6  18
ATOM     18  C   UNL     1       2.963   6.795  19.866  0.00  0.00    +0.000 C 
BRANCH  18  19
ATOM     19  C   UNL     1       2.336   5.454  19.582  0.00  0.00    +0.000 A 
ATOM     20  C   UNL     1       1.268   5.094  20.455  0.00  0.00    +0.000 A 
ATOM     21  C   UNL     1       0.660   3.842  20.379  0.00  0.00    +0.000 A 
ATOM     22  C   UNL     1       1.172   2.915  19.502  0.00  0.00    +0.000 A 
ATOM     23  C   UNL     1       2.220   3.243  18.608  0.00  0.00    +0.000 A 
ATOM     24  C   UNL     1       2.808   2.195  17.909  0.00  0.00    +0.000 A 
ATOM     25  C   UNL     1       3.893   2.478  17.126  0.00  0.00    +0.000 A 
ATOM     26  C   UNL     1       4.099   3.769  16.664  0.00  0.00    +0.000 A 
ATOM     27  C   UNL     1       3.633   4.792  17.476  0.00  0.00    +0.000 A 
ATOM     28  C   UNL     1       2.755   4.547  18.555  0.00  0.00    +0.000 A 
ENDBRANCH  18  19
ENDBRANCH   6  18
TORSDOF 5
ENDMDL
MODEL 4
REMARK VINA RESULT:      -7.5      2.588      7.841
REMARK  Name = 
REMARK  5 active torsions:
REMARK  status: ('A' for Active; 'I' for Inactive)
REMARK    1  A    between atoms: C_2  and  C_3
REMARK    2  A    between atoms: C_3  and  C_4
REMARK    3  A    between atoms: C_3  and  C_10
REMARK    4  A    between atoms: N_15  and  C_16
REMARK    5  A    between atoms: C_16  and  C_17
REMARK                            x       y       z     vdW  Elec       q    Type
REMARK                         _______ _______ _______ _____ _____    ______ ____
ROOT
ATOM      1  C   UNL     1       0.620   9.810  19.279  0.00  0.00    +0.000 A 
ATOM      2  C   UNL     1       0.222   9.703  20.555  0.00  0.00    +0.000 A 
ATOM      3 CL   UNL     1      -0.902  10.730  21.344  0.00  0.00    +0.000 Cl
ATOM      4  C   UNL     1       0.763   8.613  21.373  0.00  0.00    +0.000 A 
ATOM      5  N   UNL     1       1.634   7.740  20.977  0.00  0.00    +0.000 NA
ATOM      6  N   UNL     1       2.077   7.859  19.690  0.00  0.00    +0.000 N 
ATOM      7  C   UNL     1       1.630   8.823  18.782  0.00  0.00    +0.000 A 
ATOM      8  O   UNL     1       2.017   8.902  17.619  0.00  0.00    +0.000 OA
ENDROOT
BRANCH   1   9
ATOM      9  C   UNL     1       0.129  10.835  18.267  0.00  0.00    +0.000 C 
BRANCH   9  10
ATOM     10  C   UNL     1       0.458  12.282  18.648  0.00  0.00    +0.000 A 
ATOM     11  C   UNL     1      -0.515  13.279  18.604  0.00  0.00    +0.000 A 
ATOM     12  C   UNL     1      -0.161  14.588  18.943  0.00  0.00    +0.000 A 
ATOM     13  C   UNL     1       1.142  14.871  19.331  0.00  0.00    +0.000 A 
ATOM     14  C   UNL     1       2.044  13.829  19.373  0.00  0.00    +0.000 A 
ATOM     15  N   UNL     1       1.728  12.558  19.042  0.00  0.00    +0.000 NA
ENDBRANCH   9  10
BRANCH   9  17
ATOM     16  N   UNL     1      -2.613  10.484  17.957  0.00  0.00    +0.000 NA
ATOM     17  C   UNL     1      -1.370  10.643  18.097  0.00  0.00    +0.000 C 
ENDBRANCH   9  17
ENDBRANCH   1   9
BRANCH   6  18
ATOM     18  C   UNL     1       3.079   6.869  19.298  0.00  0.00    +0.000 C 
BRANCH  18  19
ATOM     19  C   UNL     1       2.481   5.526  18.965  0.00  0.00    +0.000 A 
ATOM     20  C   UNL     1       2.069   5.372  17.609  0.00  0.00    +0.000 A 
ATOM     21  C   UNL     1       1.406   4.223  17.180  0.00  0.00    +0.000 A 
ATOM     22  C   UNL     1       1.070   3.271  18.112  0.00  0.00    +0.000 A 
ATOM     23  C   UNL     1       1.478   3.383  19.464  0.00  0.00    +0.000 A 
ATOM     24  C   UNL     1       0.923   2.486  20.369  0.00  0.00    +0.000 A 
ATOM     25  C   UNL     1       1.220   2.650  21.695  0.00  0.00    +0.000 A 
ATOM     26  C   UNL     1       2.366   3.334  22.071  0.00  0.00    +0.000 A 
ATOM     27  C   UNL     1       2.795   4.331  21.208  0.00  0.00    +0.000 A 
ATOM     28  C   UNL     1       2.280   4.458  19.899  0.00  0.00    +0.000 A 
ENDBRANCH  18  19
ENDBRANCH   6  18
TORSDOF 5
ENDMDL
MODEL 5
REMARK VINA RESULT:      -7.5      2.036      3.570
REMARK  Name = 
REMARK  5 active torsions:
REMARK  status: ('A' for Active; 'I' for Inactive)
REMARK    1  A    between atoms: C_2  and  C_3
REMARK    2  A    between atoms: C_3  and  C_4
REMARK    3  A    between atoms: C_3  and  C_10
REMARK    4  A    between atoms: N_15  and  C_16
REMARK    5  A    between atoms: C_16  and  C_17
REMARK                            x       y       z     vdW  Elec       q    Type
REMARK                         _______ _______ _______ _____ _____    ______ ____
ROOT
ATOM      1  C   UNL     1       3.056   6.535  18.677  0.00  0.00    +0.000 A 
ATOM      2  C   UNL     1       3.340   7.394  17.688  0.00  0.00    +0.000 A 
ATOM      3 CL   UNL     1       4.402   7.095  16.375  0.00  0.00    +0.000 Cl
ATOM      4  C   UNL     1       2.690   8.709  17.688  0.00  0.00    +0.000 A 
ATOM      5  N   UNL     1       1.871   9.140  18.594  0.00  0.00    +0.000 NA
ATOM      6  N   UNL     1       1.600   8.289  19.628  0.00  0.00    +0.000 N 
ATOM      7  C   UNL     1       2.116   6.995  19.748  0.00  0.00    +0.000 A 
ATOM      8  O   UNL     1       1.844   6.231  20.670  0.00  0.00    +0.000 OA
ENDROOT
BRANCH   1   9
ATOM      9  C   UNL     1       3.586   5.114  18.815  0.00  0.00    +0.000 C 
BRANCH   9  10
ATOM     10  C   UNL     1       5.066   4.972  18.447  0.00  0.00    +0.000 A 
ATOM     11  C   UNL     1       6.067   5.491  19.267  0.00  0.00    +0.000 A 
ATOM     12  C   UNL     1       7.402   5.351  18.879  0.00  0.00    +0.000 A 
ATOM     13  C   UNL     1       7.711   4.689  17.698  0.00  0.00    +0.000 A 
ATOM     14  C   UNL     1       6.669   4.181  16.950  0.00  0.00    +0.000 A 
ATOM     15  N   UNL     1       5.370   4.311  17.301  0.00  0.00    +0.000 NA
ENDBRANCH   9  10
BRANCH   9  17
ATOM     16  N   UNL     1       2.002   3.457  17.241  0.00  0.00    +0.000 NA
ATOM     17  C   UNL     1       2.720   4.208  17.955  0.00  0.00    +0.000 C 
ENDBRANCH   9  17
ENDBRANCH   1   9
BRANCH   6  18
ATOM     18  C   UNL     1       0.693   8.830  20.639  0.00  0.00    +0.000 C 
BRANCH  18  19
ATOM     19  C   UNL     1       0.239  10.233  20.330  0.00  0.00    +0.000 A 
ATOM     20  C   UNL     1       0.928  11.257  21.043  0.00  0.00    +0.000 A 
ATOM     21  C   UNL     1       0.548  12.595  20.938  0.00  0.00    +0.000 A 
ATOM     22  C   UNL     1      -0.570  12.904  20.201  0.00  0.00    +0.000 A 
ATOM     23  C   UNL     1      -1.269  11.916  19.466  0.00  0.00    +0.000 A 
ATOM     24  C   UNL     1      -2.496  12.280  18.922  0.00  0.00    +0.000 A 
ATOM     25  C   UNL     1      -3.234  11.307  18.305  0.00  0.00    +0.000 A 
ATOM     26  C   UNL     1      -2.613  10.169  17.814  0.00  0.00    +0.000 A 
ATOM     27  C   UNL     1      -1.475   9.752  18.489  0.00  0.00    +0.000 A 
ATOM     28  C   UNL     1      -0.822  10.579  19.429  0.00  0.00    +0.000 A 
ENDBRANCH  18  19
ENDBRANCH   6  18
TORSDOF 5
ENDMDL
MODEL 6
REMARK VINA RESULT:      -7.4      2.299      8.362
REMARK  Name = 
REMARK  5 active torsions:
REMARK  status: ('A' for Active; 'I' for Inactive)
REMARK    1  A    between atoms: C_2  and  C_3
REMARK    2  A    between atoms: C_3  and  C_4
REMARK    3  A    between atoms: C_3  and  C_10
REMARK    4  A    between atoms: N_15  and  C_16
REMARK    5  A    between atoms: C_16  and  C_17
REMARK                            x       y       z     vdW  Elec       q    Type
REMARK                         _______ _______ _______ _____ _____    ______ ____
ROOT
ATOM      1  C   UNL     1       0.996  10.010  19.393  0.00  0.00    +0.000 A 
ATOM      2  C   UNL     1       0.859   9.400  20.580  0.00  0.00    +0.000 A 
ATOM      3 CL   UNL     1       0.022  10.028  21.938  0.00  0.00    +0.000 Cl
ATOM      4  C   UNL     1       1.450   8.071  20.761  0.00  0.00    +0.000 A 
ATOM      5  N   UNL     1       2.136   7.427  19.871  0.00  0.00    +0.000 NA
ATOM      6  N   UNL     1       2.315   8.052  18.668  0.00  0.00    +0.000 N 
ATOM      7  C   UNL     1       1.786   9.302  18.336  0.00  0.00    +0.000 A 
ATOM      8  O   UNL     1       1.933   9.841  17.243  0.00  0.00    +0.000 OA
ENDROOT
BRANCH   1   9
ATOM      9  C   UNL     1       0.409  11.359  19.001  0.00  0.00    +0.000 C 
BRANCH   9  10
ATOM     10  C   UNL     1       0.791  12.496  19.954  0.00  0.00    +0.000 A 
ATOM     11  C   UNL     1       2.114  12.921  20.076  0.00  0.00    +0.000 A 
ATOM     12  C   UNL     1       2.414  13.950  20.973  0.00  0.00    +0.000 A 
ATOM     13  C   UNL     1       1.398  14.541  21.711  0.00  0.00    +0.000 A 
ATOM     14  C   UNL     1       0.110  14.084  21.519  0.00  0.00    +0.000 A 
ATOM     15  N   UNL     1      -0.204  13.085  20.665  0.00  0.00    +0.000 NA
ENDBRANCH   9  10
BRANCH   9  17
ATOM     16  N   UNL     1      -2.353  11.073  18.845  0.00  0.00    +0.000 NA
ATOM     17  C   UNL     1      -1.101  11.203  18.916  0.00  0.00    +0.000 C 
ENDBRANCH   9  17
ENDBRANCH   1   9
BRANCH   6  18
ATOM     18  C   UNL     1       3.118   7.299  17.706  0.00  0.00    +0.000 C 
BRANCH  18  19
ATOM     19  C   UNL     1       3.726   6.052  18.295  0.00  0.00    +0.000 A 
ATOM     20  C   UNL     1       5.071   6.195  18.747  0.00  0.00    +0.000 A 
ATOM     21  C   UNL     1       5.796   5.103  19.220  0.00  0.00    +0.000 A 
ATOM     22  C   UNL     1       5.221   3.856  19.159  0.00  0.00    +0.000 A 
ATOM     23  C   UNL     1       3.883   3.679  18.732  0.00  0.00    +0.000 A 
ATOM     24  C   UNL     1       3.457   2.374  18.508  0.00  0.00    +0.000 A 
ATOM     25  C   UNL     1       2.204   2.192  17.990  0.00  0.00    +0.000 A 
ATOM     26  C   UNL     1       1.240   3.178  18.137  0.00  0.00    +0.000 A 
ATOM     27  C   UNL     1       1.704   4.483  18.199  0.00  0.00    +0.000 A 
ATOM     28  C   UNL     1       3.071   4.780  18.391  0.00  0.00    +0.000 A 
ENDBRANCH  18  19
ENDBRANCH   6  18
TORSDOF 5
ENDMDL
MODEL 7
REMARK VINA RESULT:      -7.4      2.389      8.266
REMARK  Name = 
REMARK  5 active torsions:
REMARK  status: ('A' for Active; 'I' for Inactive)
REMARK    1  A    between atoms: C_2  and  C_3
REMARK    2  A    between atoms: C_3  and  C_4
REMARK    3  A    between atoms: C_3  and  C_10
REMARK    4  A    between atoms: N_15  and  C_16
REMARK    5  A    between atoms: C_16  and  C_17
REMARK                            x       y       z     vdW  Elec       q    Type
REMARK                         _______ _______ _______ _____ _____    ______ ____
ROOT
ATOM      1  C   UNL     1       1.105   9.921  19.414  0.00  0.00    +0.000 A 
ATOM      2  C   UNL     1       1.002   9.386  20.640  0.00  0.00    +0.000 A 
ATOM      3 CL   UNL     1       0.329  10.157  22.016  0.00  0.00    +0.000 Cl
ATOM      4  C   UNL     1       1.482   8.017  20.854  0.00  0.00    +0.000 A 
ATOM      5  N   UNL     1       2.039   7.269  19.956  0.00  0.00    +0.000 NA
ATOM      6  N   UNL     1       2.184   7.813  18.710  0.00  0.00    +0.000 N 
ATOM      7  C   UNL     1       1.746   9.090  18.346  0.00  0.00    +0.000 A 
ATOM      8  O   UNL     1       1.860   9.558  17.216  0.00  0.00    +0.000 OA
ENDROOT
BRANCH   1   9
ATOM      9  C   UNL     1       0.615  11.298  18.989  0.00  0.00    +0.000 C 
BRANCH   9  10
ATOM     10  C   UNL     1       1.575  12.433  19.357  0.00  0.00    +0.000 A 
ATOM     11  C   UNL     1       1.558  13.010  20.626  0.00  0.00    +0.000 A 
ATOM     12  C   UNL     1       2.441  14.056  20.907  0.00  0.00    +0.000 A 
ATOM     13  C   UNL     1       3.326  14.492  19.930  0.00  0.00    +0.000 A 
ATOM     14  C   UNL     1       3.301  13.858  18.705  0.00  0.00    +0.000 A 
ATOM     15  N   UNL     1       2.452  12.850  18.408  0.00  0.00    +0.000 NA
ENDBRANCH   9  10
BRANCH   9  17
ATOM     16  N   UNL     1      -1.890  11.700  20.129  0.00  0.00    +0.000 NA
ATOM     17  C   UNL     1      -0.755  11.518  19.612  0.00  0.00    +0.000 C 
ENDBRANCH   9  17
ENDBRANCH   1   9
BRANCH   6  18
ATOM     18  C   UNL     1       2.841   6.942  17.738  0.00  0.00    +0.000 C 
BRANCH  18  19
ATOM     19  C   UNL     1       3.492   5.739  18.373  0.00  0.00    +0.000 A 
ATOM     20  C   UNL     1       4.863   5.913  18.722  0.00  0.00    +0.000 A 
ATOM     21  C   UNL     1       5.622   4.856  19.222  0.00  0.00    +0.000 A 
ATOM     22  C   UNL     1       5.050   3.608  19.288  0.00  0.00    +0.000 A 
ATOM     23  C   UNL     1       3.686   3.402  18.965  0.00  0.00    +0.000 A 
ATOM     24  C   UNL     1       3.252   2.085  18.863  0.00  0.00    +0.000 A 
ATOM     25  C   UNL     1       1.967   1.868  18.444  0.00  0.00    +0.000 A 
ATOM     26  C   UNL     1       1.012   2.863  18.585  0.00  0.00    +0.000 A 
ATOM     27  C   UNL     1       1.474   4.169  18.523  0.00  0.00    +0.000 A 
ATOM     28  C   UNL     1       2.850   4.478  18.601  0.00  0.00    +0.000 A 
ENDBRANCH  18  19
ENDBRANCH   6  18
TORSDOF 5
ENDMDL
MODEL 8
REMARK VINA RESULT:      -7.4      2.129      7.762
REMARK  Name = 
REMARK  5 active torsions:
REMARK  status: ('A' for Active; 'I' for Inactive)
REMARK    1  A    between atoms: C_2  and  C_3
REMARK    2  A    between atoms: C_3  and  C_4
REMARK    3  A    between atoms: C_3  and  C_10
REMARK    4  A    between atoms: N_15  and  C_16
REMARK    5  A    between atoms: C_16  and  C_17
REMARK                            x       y       z     vdW  Elec       q    Type
REMARK                         _______ _______ _______ _____ _____    ______ ____
ROOT
ATOM      1  C   UNL     1       0.678   9.775  19.721  0.00  0.00    +0.000 A 
ATOM      2  C   UNL     1       0.736   9.122  20.891  0.00  0.00    +0.000 A 
ATOM      3 CL   UNL     1      -0.044   9.598  22.343  0.00  0.00    +0.000 Cl
ATOM      4  C   UNL     1       1.511   7.880  20.968  0.00  0.00    +0.000 A 
ATOM      5  N   UNL     1       2.187   7.357  19.996  0.00  0.00    +0.000 NA
ATOM      6  N   UNL     1       2.168   8.030  18.806  0.00  0.00    +0.000 N 
ATOM      7  C   UNL     1       1.450   9.206  18.571  0.00  0.00    +0.000 A 
ATOM      8  O   UNL     1       1.421   9.787  17.490  0.00  0.00    +0.000 OA
ENDROOT
BRANCH   1   9
ATOM      9  C   UNL     1      -0.116  11.042  19.435  0.00  0.00    +0.000 C 
BRANCH   9  10
ATOM     10  C   UNL     1      -1.271  10.836  18.451  0.00  0.00    +0.000 A 
ATOM     11  C   UNL     1      -2.088   9.708  18.524  0.00  0.00    +0.000 A 
ATOM     12  C   UNL     1      -3.118   9.556  17.591  0.00  0.00    +0.000 A 
ATOM     13  C   UNL     1      -3.320  10.530  16.622  0.00  0.00    +0.000 A 
ATOM     14  C   UNL     1      -2.487  11.630  16.627  0.00  0.00    +0.000 A 
ATOM     15  N   UNL     1      -1.480  11.795  17.513  0.00  0.00    +0.000 NA
ENDBRANCH   9  10
BRANCH   9  17
ATOM     16  N   UNL     1       1.661  12.968  18.501  0.00  0.00    +0.000 NA
ATOM     17  C   UNL     1       0.855  12.095  18.924  0.00  0.00    +0.000 C 
ENDBRANCH   9  17
ENDBRANCH   1   9
BRANCH   6  18
ATOM     18  C   UNL     1       2.968   7.416  17.748  0.00  0.00    +0.000 C 
BRANCH  18  19
ATOM     19  C   UNL     1       3.686   6.171  18.200  0.00  0.00    +0.000 A 
ATOM     20  C   UNL     1       5.060   6.357  18.530  0.00  0.00    +0.000 A 
ATOM     21  C   UNL     1       5.877   5.278  18.866  0.00  0.00    +0.000 A 
ATOM     22  C   UNL     1       5.356   4.009  18.784  0.00  0.00    +0.000 A 
ATOM     23  C   UNL     1       3.992   3.788  18.475  0.00  0.00    +0.000 A 
ATOM     24  C   UNL     1       3.606   2.478  18.213  0.00  0.00    +0.000 A 
ATOM     25  C   UNL     1       2.318   2.261  17.806  0.00  0.00    +0.000 A 
ATOM     26  C   UNL     1       1.329   3.187  18.103  0.00  0.00    +0.000 A 
ATOM     27  C   UNL     1       1.738   4.509  18.200  0.00  0.00    +0.000 A 
ATOM     28  C   UNL     1       3.102   4.864  18.279  0.00  0.00    +0.000 A 
ENDBRANCH  18  19
ENDBRANCH   6  18
TORSDOF 5
ENDMDL
MODEL 9
REMARK VINA RESULT:      -7.3      2.441      7.839
REMARK  Name = 
REMARK  5 active torsions:
REMARK  status: ('A' for Active; 'I' for Inactive)
REMARK    1  A    between atoms: C_2  and  C_3
REMARK    2  A    between atoms: C_3  and  C_4
REMARK    3  A    between atoms: C_3  and  C_10
REMARK    4  A    between atoms: N_15  and  C_16
REMARK    5  A    between atoms: C_16  and  C_17
REMARK                            x       y       z     vdW  Elec       q    Type
REMARK                         _______ _______ _______ _____ _____    ______ ____
ROOT
ATOM      1  C   UNL     1       1.040   9.348  19.085  0.00  0.00    +0.000 A 
ATOM      2  C   UNL     1       0.615   9.170  20.345  0.00  0.00    +0.000 A 
ATOM      3 CL   UNL     1      -0.572  10.114  21.146  0.00  0.00    +0.000 Cl
ATOM      4  C   UNL     1       1.181   8.068  21.130  0.00  0.00    +0.000 A 
ATOM      5  N   UNL     1       2.099   7.251  20.722  0.00  0.00    +0.000 NA
ATOM      6  N   UNL     1       2.568   7.443  19.453  0.00  0.00    +0.000 N 
ATOM      7  C   UNL     1       2.104   8.427  18.575  0.00  0.00    +0.000 A 
ATOM      8  O   UNL     1       2.517   8.573  17.428  0.00  0.00    +0.000 OA
ENDROOT
BRANCH   1   9
ATOM      9  C   UNL     1       0.533  10.396  18.105  0.00  0.00    +0.000 C 
BRANCH   9  10
ATOM     10  C   UNL     1       0.911  11.831  18.487  0.00  0.00    +0.000 A 
ATOM     11  C   UNL     1       2.225  12.283  18.381  0.00  0.00    +0.000 A 
ATOM     12  C   UNL     1       2.523  13.595  18.759  0.00  0.00    +0.000 A 
ATOM     13  C   UNL     1       1.511  14.427  19.217  0.00  0.00    +0.000 A 
ATOM     14  C   UNL     1       0.230  13.918  19.272  0.00  0.00    +0.000 A 
ATOM     15  N   UNL     1      -0.081  12.651  18.919  0.00  0.00    +0.000 NA
ENDBRANCH   9  10
BRANCH   9  17
ATOM     16  N   UNL     1      -2.227  10.110  17.905  0.00  0.00    +0.000 NA
ATOM     17  C   UNL     1      -0.976  10.240  17.996  0.00  0.00    +0.000 C 
ENDBRANCH   9  17
ENDBRANCH   1   9
BRANCH   6  18
ATOM     18  C   UNL     1       3.621   6.514  19.047  0.00  0.00    +0.000 C 
BRANCH  18  19
ATOM     19  C   UNL     1       3.103   5.130  18.754  0.00  0.00    +0.000 A 
ATOM     20  C   UNL     1       3.028   4.797  17.370  0.00  0.00    +0.000 A 
ATOM     21  C   UNL     1       2.473   3.591  16.944  0.00  0.00    +0.000 A 
ATOM     22  C   UNL     1       1.909   2.759  17.882  0.00  0.00    +0.000 A 
ATOM     23  C   UNL     1       1.980   3.049  19.266  0.00  0.00    +0.000 A 
ATOM     24  C   UNL     1       1.211   2.265  20.118  0.00  0.00    +0.000 A 
ATOM     25  C   UNL     1       1.182   2.602  21.444  0.00  0.00    +0.000 A 
ATOM     26  C   UNL     1       2.213   3.348  21.994  0.00  0.00    +0.000 A 
ATOM     27  C   UNL     1       2.851   4.235  21.140  0.00  0.00    +0.000 A 
ATOM     28  C   UNL     1       2.668   4.185  19.741  0.00  0.00    +0.000 A 
ENDBRANCH  18  19
ENDBRANCH   6  18
TORSDOF 5
ENDMDL
