MODEL 1
REMARK VINA RESULT:      -7.7      0.000      0.000
REMARK  Name = 
REMARK  5 active torsions:
REMARK  status: ('A' for Active; 'I' for Inactive)
REMARK    1  A    between atoms: C_1  and  O_2
REMARK    2  A    between atoms: O_2  and  C_3
REMARK    3  A    between atoms: C_6  and  N_7
REMARK    4  A    between atoms: N_7  and  C_8
REMARK    5  A    between atoms: C_16  and  N_17
REMARK                            x       y       z     vdW  Elec       q    Type
REMARK                         _______ _______ _______ _____ _____    ______ ____
ROOT
ATOM      1  C   UNL     1       7.063   6.585  16.675  0.00  0.00    +0.000 A 
ATOM      2  C   UNL     1       6.057   6.608  17.636  0.00  0.00    +0.000 A 
ATOM      3  C   UNL     1       5.010   5.690  17.469  0.00  0.00    +0.000 A 
ATOM      4  C   UNL     1       3.787   5.382  18.132  0.00  0.00    +0.000 A 
ATOM      5  C   UNL     1       3.228   4.322  17.443  0.00  0.00    +0.000 A 
ATOM      6  O   UNL     1       3.984   3.996  16.370  0.00  0.00    +0.000 OA
ATOM      7  C   UNL     1       5.065   4.829  16.374  0.00  0.00    +0.000 A 
ATOM      8  C   UNL     1       6.095   4.856  15.445  0.00  0.00    +0.000 A 
ATOM      9 BR   UNL     1       6.124   3.705  13.950  0.00  0.00    +0.000 Br
ATOM     10  N   UNL     1       7.099   5.752  15.612  0.00  0.00    +0.000 NA
ENDROOT
BRANCH   5  11
ATOM     11  N   UNL     1       2.131   3.580  17.629  0.00  0.00    +0.000 N 
ATOM     12  H   UNL     1       1.292   3.724  17.079  0.00  0.00    +0.000 HD
ATOM     13  H   UNL     1       2.105   2.844  18.322  0.00  0.00    +0.000 HD
ENDBRANCH   5  11
BRANCH   1  15
ATOM     14  C   UNL     1       7.762   8.517  17.804  0.00  0.00    +0.000 C 
ATOM     15  O   UNL     1       8.077   7.509  16.847  0.00  0.00    +0.000 OA
ENDBRANCH   1  15
BRANCH   4  16
ATOM     16  N   UNL     1       3.295   5.996  19.247  0.00  0.00    +0.000 N 
ATOM     17  H   UNL     1       3.846   5.928  20.100  0.00  0.00    +0.000 HD
BRANCH  16  18
ATOM     18  C   UNL     1       2.514   7.179  19.292  0.00  0.00    +0.000 A 
ATOM     19  C   UNL     1       2.392   7.956  18.131  0.00  0.00    +0.000 A 
ATOM     20  C   UNL     1       1.601   9.109  18.128  0.00  0.00    +0.000 A 
ATOM     21  C   UNL     1       0.918   9.480  19.281  0.00  0.00    +0.000 A 
ATOM     22  F   UNL     1       0.148  10.578  19.250  0.00  0.00    +0.000 F 
ATOM     23  C   UNL     1       1.031   8.722  20.443  0.00  0.00    +0.000 A 
ATOM     24 CL   UNL     1       0.180   9.170  21.870  0.00  0.00    +0.000 Cl
ATOM     25  C   UNL     1       1.831   7.578  20.450  0.00  0.00    +0.000 A 
ENDBRANCH  16  18
ENDBRANCH   4  16
TORSDOF 4
ENDMDL
MODEL 2
REMARK VINA RESULT:      -7.4      1.148      1.548
REMARK  Name = 
REMARK  5 active torsions:
REMARK  status: ('A' for Active; 'I' for Inactive)
REMARK    1  A    between atoms: C_1  and  O_2
REMARK    2  A    between atoms: O_2  and  C_3
REMARK    3  A    between atoms: C_6  and  N_7
REMARK    4  A    between atoms: N_7  and  C_8
REMARK    5  A    between atoms: C_16  and  N_17
REMARK                            x       y       z     vdW  Elec       q    Type
REMARK                         _______ _______ _______ _____ _____    ______ ____
ROOT
ATOM      1  C   UNL     1       6.923   6.570  16.797  0.00  0.00    +0.000 A 
ATOM      2  C   UNL     1       5.949   6.394  17.774  0.00  0.00    +0.000 A 
ATOM      3  C   UNL     1       4.989   5.399  17.531  0.00  0.00    +0.000 A 
ATOM      4  C   UNL     1       3.822   4.905  18.180  0.00  0.00    +0.000 A 
ATOM      5  C   UNL     1       3.347   3.872  17.394  0.00  0.00    +0.000 A 
ATOM      6  O   UNL     1       4.100   3.735  16.278  0.00  0.00    +0.000 OA
ATOM      7  C   UNL     1       5.095   4.666  16.349  0.00  0.00    +0.000 A 
ATOM      8  C   UNL     1       6.091   4.890  15.409  0.00  0.00    +0.000 A 
ATOM      9 BR   UNL     1       6.186   3.909  13.800  0.00  0.00    +0.000 Br
ATOM     10  N   UNL     1       7.008   5.859  15.652  0.00  0.00    +0.000 NA
ENDROOT
BRANCH   5  11
ATOM     11  N   UNL     1       2.332   3.011  17.520  0.00  0.00    +0.000 N 
ATOM     12  H   UNL     1       2.485   2.010  17.565  0.00  0.00    +0.000 HD
ATOM     13  H   UNL     1       1.375   3.332  17.583  0.00  0.00    +0.000 HD
ENDBRANCH   5  11
BRANCH   1  15
ATOM     14  C   UNL     1       8.196   7.678  18.424  0.00  0.00    +0.000 C 
ATOM     15  O   UNL     1       7.849   7.567  17.047  0.00  0.00    +0.000 OA
ENDBRANCH   1  15
BRANCH   4  16
ATOM     16  N   UNL     1       3.305   5.349  19.363  0.00  0.00    +0.000 N 
ATOM     17  H   UNL     1       3.823   5.129  20.211  0.00  0.00    +0.000 HD
BRANCH  16  18
ATOM     18  C   UNL     1       2.554   6.534  19.572  0.00  0.00    +0.000 A 
ATOM     19  C   UNL     1       1.869   6.697  20.784  0.00  0.00    +0.000 A 
ATOM     20  C   UNL     1       1.148   7.868  21.041  0.00  0.00    +0.000 A 
ATOM     21  C   UNL     1       1.123   8.884  20.092  0.00  0.00    +0.000 A 
ATOM     22  F   UNL     1       0.443  10.006  20.368  0.00  0.00    +0.000 F 
ATOM     23  C   UNL     1       1.795   8.737  18.883  0.00  0.00    +0.000 A 
ATOM     24 CL   UNL     1       1.776   9.995  17.709  0.00  0.00    +0.000 Cl
ATOM     25  C   UNL     1       2.504   7.563  18.620  0.00  0.00    +0.000 A 
ENDBRANCH  16  18
ENDBRANCH   4  16
TORSDOF 4
ENDMDL
MODEL 3
REMARK VINA RESULT:      -7.3      5.136      7.562
REMARK  Name = 
REMARK  5 active torsions:
REMARK  status: ('A' for Active; 'I' for Inactive)
REMARK    1  A    between atoms: C_1  and  O_2
REMARK    2  A    between atoms: O_2  and  C_3
REMARK    3  A    between atoms: C_6  and  N_7
REMARK    4  A    between atoms: N_7  and  C_8
REMARK    5  A    between atoms: C_16  and  N_17
REMARK                            x       y       z     vdW  Elec       q    Type
REMARK                         _______ _______ _______ _____ _____    ______ ____
ROOT
ATOM      1  C   UNL     1      -0.357  10.346  21.990  0.00  0.00    +0.000 A 
ATOM      2  C   UNL     1       0.511   9.276  21.798  0.00  0.00    +0.000 A 
ATOM      3  C   UNL     1       0.995   9.087  20.495  0.00  0.00    +0.000 A 
ATOM      4  C   UNL     1       1.827   8.144  19.826  0.00  0.00    +0.000 A 
ATOM      5  C   UNL     1       1.920   8.570  18.514  0.00  0.00    +0.000 A 
ATOM      6  O   UNL     1       1.157   9.670  18.312  0.00  0.00    +0.000 OA
ATOM      7  C   UNL     1       0.585   9.985  19.510  0.00  0.00    +0.000 A 
ATOM      8  C   UNL     1      -0.287  11.034  19.762  0.00  0.00    +0.000 A 
ATOM      9 BR   UNL     1      -0.857  12.210  18.401  0.00  0.00    +0.000 Br
ATOM     10  N   UNL     1      -0.755  11.203  21.024  0.00  0.00    +0.000 NA
ENDROOT
BRANCH   5  11
ATOM     11  N   UNL     1       2.597   8.128  17.449  0.00  0.00    +0.000 N 
ATOM     12  H   UNL     1       2.447   8.515  16.524  0.00  0.00    +0.000 HD
ATOM     13  H   UNL     1       3.289   7.396  17.533  0.00  0.00    +0.000 HD
ENDBRANCH   5  11
BRANCH   1  15
ATOM     14  C   UNL     1      -1.886  11.466  23.369  0.00  0.00    +0.000 C 
ATOM     15  O   UNL     1      -0.838  10.505  23.277  0.00  0.00    +0.000 OA
ENDBRANCH   1  15
BRANCH   4  16
ATOM     16  N   UNL     1       2.435   7.060  20.389  0.00  0.00    +0.000 N 
ATOM     17  H   UNL     1       2.664   7.114  21.379  0.00  0.00    +0.000 HD
BRANCH  16  18
ATOM     18  C   UNL     1       2.254   5.701  20.028  0.00  0.00    +0.000 A 
ATOM     19  C   UNL     1       1.219   4.971  20.629  0.00  0.00    +0.000 A 
ATOM     20  C   UNL     1       0.987   3.639  20.272  0.00  0.00    +0.000 A 
ATOM     21  C   UNL     1       1.781   3.037  19.302  0.00  0.00    +0.000 A 
ATOM     22  F   UNL     1       1.528   1.766  18.959  0.00  0.00    +0.000 F 
ATOM     23  C   UNL     1       2.815   3.746  18.697  0.00  0.00    +0.000 A 
ATOM     24 CL   UNL     1       3.795   3.011  17.489  0.00  0.00    +0.000 Cl
ATOM     25  C   UNL     1       3.055   5.072  19.063  0.00  0.00    +0.000 A 
ENDBRANCH  16  18
ENDBRANCH   4  16
TORSDOF 4
ENDMDL
MODEL 4
REMARK VINA RESULT:      -7.2      4.766      7.543
REMARK  Name = 
REMARK  5 active torsions:
REMARK  status: ('A' for Active; 'I' for Inactive)
REMARK    1  A    between atoms: C_1  and  O_2
REMARK    2  A    between atoms: O_2  and  C_3
REMARK    3  A    between atoms: C_6  and  N_7
REMARK    4  A    between atoms: N_7  and  C_8
REMARK    5  A    between atoms: C_16  and  N_17
REMARK                            x       y       z     vdW  Elec       q    Type
REMARK                         _______ _______ _______ _____ _____    ______ ____
ROOT
ATOM      1  C   UNL     1       2.288   3.951  17.871  0.00  0.00    +0.000 A 
ATOM      2  C   UNL     1       3.540   3.810  17.281  0.00  0.00    +0.000 A 
ATOM      3  C   UNL     1       4.374   4.938  17.304  0.00  0.00    +0.000 A 
ATOM      4  C   UNL     1       5.664   5.283  16.807  0.00  0.00    +0.000 A 
ATOM      5  C   UNL     1       5.902   6.582  17.214  0.00  0.00    +0.000 A 
ATOM      6  O   UNL     1       4.830   7.083  17.869  0.00  0.00    +0.000 OA
ATOM      7  C   UNL     1       3.893   6.093  17.921  0.00  0.00    +0.000 A 
ATOM      8  C   UNL     1       2.630   6.173  18.490  0.00  0.00    +0.000 A 
ATOM      9 BR   UNL     1       1.990   7.761  19.283  0.00  0.00    +0.000 Br
ATOM     10  N   UNL     1       1.830   5.078  18.456  0.00  0.00    +0.000 NA
ENDROOT
BRANCH   5  11
ATOM     11  N   UNL     1       6.949   7.406  17.096  0.00  0.00    +0.000 N 
ATOM     12  H   UNL     1       7.445   7.756  17.907  0.00  0.00    +0.000 HD
ATOM     13  H   UNL     1       7.285   7.701  16.189  0.00  0.00    +0.000 HD
ENDBRANCH   5  11
BRANCH   1  15
ATOM     14  C   UNL     1       0.800   2.577  19.051  0.00  0.00    +0.000 C 
ATOM     15  O   UNL     1       1.474   2.834  17.822  0.00  0.00    +0.000 OA
ENDBRANCH   1  15
BRANCH   4  16
ATOM     16  N   UNL     1       6.503   4.469  16.103  0.00  0.00    +0.000 N 
ATOM     17  H   UNL     1       6.674   3.538  16.476  0.00  0.00    +0.000 HD
BRANCH  16  18
ATOM     18  C   UNL     1       6.682   4.445  14.697  0.00  0.00    +0.000 A 
ATOM     19  C   UNL     1       7.649   5.282  14.121  0.00  0.00    +0.000 A 
ATOM     20  C   UNL     1       7.880   5.258  12.742  0.00  0.00    +0.000 A 
ATOM     21  C   UNL     1       7.154   4.388  11.936  0.00  0.00    +0.000 A 
ATOM     22  F   UNL     1       7.406   4.367  10.620  0.00  0.00    +0.000 F 
ATOM     23  C   UNL     1       6.189   3.552  12.491  0.00  0.00    +0.000 A 
ATOM     24 CL   UNL     1       5.295   2.465  11.501  0.00  0.00    +0.000 Cl
ATOM     25  C   UNL     1       5.949   3.584  13.866  0.00  0.00    +0.000 A 
ENDBRANCH  16  18
ENDBRANCH   4  16
TORSDOF 4
ENDMDL
MODEL 5
REMARK VINA RESULT:      -7.2      3.245      4.921
REMARK  Name = 
REMARK  5 active torsions:
REMARK  status: ('A' for Active; 'I' for Inactive)
REMARK    1  A    between atoms: C_1  and  O_2
REMARK    2  A    between atoms: O_2  and  C_3
REMARK    3  A    between atoms: C_6  and  N_7
REMARK    4  A    between atoms: N_7  and  C_8
REMARK    5  A    between atoms: C_16  and  N_17
REMARK                            x       y       z     vdW  Elec       q    Type
REMARK                         _______ _______ _______ _____ _____    ______ ____
ROOT
ATOM      1  C   UNL     1       5.807   3.405  12.481  0.00  0.00    +0.000 A 
ATOM      2  C   UNL     1       5.373   3.211  13.788  0.00  0.00    +0.000 A 
ATOM      3  C   UNL     1       6.034   3.946  14.784  0.00  0.00    +0.000 A 
ATOM      4  C   UNL     1       5.984   4.044  16.204  0.00  0.00    +0.000 A 
ATOM      5  C   UNL     1       6.912   5.005  16.560  0.00  0.00    +0.000 A 
ATOM      6  O   UNL     1       7.574   5.459  15.470  0.00  0.00    +0.000 OA
ATOM      7  C   UNL     1       7.051   4.814  14.387  0.00  0.00    +0.000 A 
ATOM      8  C   UNL     1       7.442   4.963  13.064  0.00  0.00    +0.000 A 
ATOM      9 BR   UNL     1       8.849   6.115  12.562  0.00  0.00    +0.000 Br
ATOM     10  N   UNL     1       6.801   4.241  12.111  0.00  0.00    +0.000 NA
ENDROOT
BRANCH   5  11
ATOM     11  N   UNL     1       7.265   5.555  17.726  0.00  0.00    +0.000 N 
ATOM     12  H   UNL     1       7.133   5.069  18.606  0.00  0.00    +0.000 HD
ATOM     13  H   UNL     1       7.683   6.475  17.768  0.00  0.00    +0.000 HD
ENDBRANCH   5  11
BRANCH   1  15
ATOM     14  C   UNL     1       3.925   3.238  11.094  0.00  0.00    +0.000 C 
ATOM     15  O   UNL     1       5.156   2.658  11.516  0.00  0.00    +0.000 OA
ENDBRANCH   1  15
BRANCH   4  16
ATOM     16  N   UNL     1       5.153   3.349  17.033  0.00  0.00    +0.000 N 
ATOM     17  H   UNL     1       5.495   2.463  17.402  0.00  0.00    +0.000 HD
BRANCH  16  18
ATOM     18  C   UNL     1       4.201   3.890  17.934  0.00  0.00    +0.000 A 
ATOM     19  C   UNL     1       3.506   5.052  17.570  0.00  0.00    +0.000 A 
ATOM     20  C   UNL     1       2.533   5.594  18.416  0.00  0.00    +0.000 A 
ATOM     21  C   UNL     1       2.243   4.966  19.623  0.00  0.00    +0.000 A 
ATOM     22  F   UNL     1       1.292   5.491  20.409  0.00  0.00    +0.000 F 
ATOM     23  C   UNL     1       2.925   3.814  20.001  0.00  0.00    +0.000 A 
ATOM     24 CL   UNL     1       2.563   3.027  21.488  0.00  0.00    +0.000 Cl
ATOM     25  C   UNL     1       3.905   3.280  19.162  0.00  0.00    +0.000 A 
ENDBRANCH  16  18
ENDBRANCH   4  16
TORSDOF 4
ENDMDL
MODEL 6
REMARK VINA RESULT:      -7.1      4.556      6.382
REMARK  Name = 
REMARK  5 active torsions:
REMARK  status: ('A' for Active; 'I' for Inactive)
REMARK    1  A    between atoms: C_1  and  O_2
REMARK    2  A    between atoms: O_2  and  C_3
REMARK    3  A    between atoms: C_6  and  N_7
REMARK    4  A    between atoms: N_7  and  C_8
REMARK    5  A    between atoms: C_16  and  N_17
REMARK                            x       y       z     vdW  Elec       q    Type
REMARK                         _______ _______ _______ _____ _____    ______ ____
ROOT
ATOM      1  C   UNL     1       2.003   8.709  18.403  0.00  0.00    +0.000 A 
ATOM      2  C   UNL     1       2.363   7.388  18.152  0.00  0.00    +0.000 A 
ATOM      3  C   UNL     1       2.194   6.481  19.208  0.00  0.00    +0.000 A 
ATOM      4  C   UNL     1       2.455   5.099  19.439  0.00  0.00    +0.000 A 
ATOM      5  C   UNL     1       2.014   4.830  20.721  0.00  0.00    +0.000 A 
ATOM      6  O   UNL     1       1.559   5.955  21.318  0.00  0.00    +0.000 OA
ATOM      7  C   UNL     1       1.673   6.965  20.407  0.00  0.00    +0.000 A 
ATOM      8  C   UNL     1       1.335   8.298  20.599  0.00  0.00    +0.000 A 
ATOM      9 BR   UNL     1       0.670   8.933  22.246  0.00  0.00    +0.000 Br
ATOM     10  N   UNL     1       1.510   9.167  19.573  0.00  0.00    +0.000 NA
ENDROOT
BRANCH   5  11
ATOM     11  N   UNL     1       1.946   3.714  21.454  0.00  0.00    +0.000 N 
ATOM     12  H   UNL     1       2.175   3.711  22.442  0.00  0.00    +0.000 HD
ATOM     13  H   UNL     1       1.656   2.834  21.048  0.00  0.00    +0.000 HD
ENDBRANCH   5  11
BRANCH   1  15
ATOM     14  C   UNL     1       2.220  10.955  17.769  0.00  0.00    +0.000 C 
ATOM     15  O   UNL     1       2.194   9.591  17.355  0.00  0.00    +0.000 OA
ENDBRANCH   1  15
BRANCH   4  16
ATOM     16  N   UNL     1       3.000   4.220  18.549  0.00  0.00    +0.000 N 
ATOM     17  H   UNL     1       2.363   3.746  17.911  0.00  0.00    +0.000 HD
BRANCH  16  18
ATOM     18  C   UNL     1       4.282   4.300  17.951  0.00  0.00    +0.000 A 
ATOM     19  C   UNL     1       4.433   3.910  16.612  0.00  0.00    +0.000 A 
ATOM     20  C   UNL     1       5.675   4.009  15.977  0.00  0.00    +0.000 A 
ATOM     21  C   UNL     1       6.767   4.513  16.676  0.00  0.00    +0.000 A 
ATOM     22  F   UNL     1       7.944   4.619  16.042  0.00  0.00    +0.000 F 
ATOM     23  C   UNL     1       6.636   4.902  18.005  0.00  0.00    +0.000 A 
ATOM     24 CL   UNL     1       7.981   5.535  18.872  0.00  0.00    +0.000 Cl
ATOM     25  C   UNL     1       5.399   4.791  18.643  0.00  0.00    +0.000 A 
ENDBRANCH  16  18
ENDBRANCH   4  16
TORSDOF 4
ENDMDL
MODEL 7
REMARK VINA RESULT:      -7.0      2.903      4.721
REMARK  Name = 
REMARK  5 active torsions:
REMARK  status: ('A' for Active; 'I' for Inactive)
REMARK    1  A    between atoms: C_1  and  O_2
REMARK    2  A    between atoms: O_2  and  C_3
REMARK    3  A    between atoms: C_6  and  N_7
REMARK    4  A    between atoms: N_7  and  C_8
REMARK    5  A    between atoms: C_16  and  N_17
REMARK                            x       y       z     vdW  Elec       q    Type
REMARK                         _______ _______ _______ _____ _____    ______ ____
ROOT
ATOM      1  C   UNL     1       5.840   3.445  12.619  0.00  0.00    +0.000 A 
ATOM      2  C   UNL     1       5.399   3.357  13.936  0.00  0.00    +0.000 A 
ATOM      3  C   UNL     1       6.077   4.145  14.877  0.00  0.00    +0.000 A 
ATOM      4  C   UNL     1       6.027   4.348  16.287  0.00  0.00    +0.000 A 
ATOM      5  C   UNL     1       6.979   5.308  16.575  0.00  0.00    +0.000 A 
ATOM      6  O   UNL     1       7.654   5.665  15.457  0.00  0.00    +0.000 OA
ATOM      7  C   UNL     1       7.117   4.956  14.423  0.00  0.00    +0.000 A 
ATOM      8  C   UNL     1       7.513   4.999  13.093  0.00  0.00    +0.000 A 
ATOM      9 BR   UNL     1       8.950   6.074  12.513  0.00  0.00    +0.000 Br
ATOM     10  N   UNL     1       6.856   4.226  12.193  0.00  0.00    +0.000 NA
ENDROOT
BRANCH   5  11
ATOM     11  N   UNL     1       7.344   5.933  17.699  0.00  0.00    +0.000 N 
ATOM     12  H   UNL     1       7.867   6.801  17.681  0.00  0.00    +0.000 HD
ATOM     13  H   UNL     1       7.103   5.561  18.609  0.00  0.00    +0.000 HD
ENDBRANCH   5  11
BRANCH   1  15
ATOM     14  C   UNL     1       4.005   3.263  11.172  0.00  0.00    +0.000 C 
ATOM     15  O   UNL     1       5.172   2.646  11.709  0.00  0.00    +0.000 OA
ENDBRANCH   1  15
BRANCH   4  16
ATOM     16  N   UNL     1       5.177   3.736  17.162  0.00  0.00    +0.000 N 
ATOM     17  H   UNL     1       5.503   2.881  17.608  0.00  0.00    +0.000 HD
BRANCH  16  18
ATOM     18  C   UNL     1       4.223   4.364  18.001  0.00  0.00    +0.000 A 
ATOM     19  C   UNL     1       3.863   3.740  19.205  0.00  0.00    +0.000 A 
ATOM     20  C   UNL     1       2.953   4.347  20.076  0.00  0.00    +0.000 A 
ATOM     21  C   UNL     1       2.411   5.586  19.752  0.00  0.00    +0.000 A 
ATOM     22  F   UNL     1       1.556   6.160  20.612  0.00  0.00    +0.000 F 
ATOM     23  C   UNL     1       2.755   6.218  18.561  0.00  0.00    +0.000 A 
ATOM     24 CL   UNL     1       2.096   7.756  18.160  0.00  0.00    +0.000 Cl
ATOM     25  C   UNL     1       3.654   5.607  17.685  0.00  0.00    +0.000 A 
ENDBRANCH  16  18
ENDBRANCH   4  16
TORSDOF 4
ENDMDL
MODEL 8
REMARK VINA RESULT:      -7.0      4.744      6.588
REMARK  Name = 
REMARK  5 active torsions:
REMARK  status: ('A' for Active; 'I' for Inactive)
REMARK    1  A    between atoms: C_1  and  O_2
REMARK    2  A    between atoms: O_2  and  C_3
REMARK    3  A    between atoms: C_6  and  N_7
REMARK    4  A    between atoms: N_7  and  C_8
REMARK    5  A    between atoms: C_16  and  N_17
REMARK                            x       y       z     vdW  Elec       q    Type
REMARK                         _______ _______ _______ _____ _____    ______ ____
ROOT
ATOM      1  C   UNL     1       2.009   8.888  18.447  0.00  0.00    +0.000 A 
ATOM      2  C   UNL     1       2.350   7.570  18.161  0.00  0.00    +0.000 A 
ATOM      3  C   UNL     1       2.172   6.638  19.195  0.00  0.00    +0.000 A 
ATOM      4  C   UNL     1       2.416   5.248  19.390  0.00  0.00    +0.000 A 
ATOM      5  C   UNL     1       1.974   4.951  20.665  0.00  0.00    +0.000 A 
ATOM      6  O   UNL     1       1.535   6.067  21.292  0.00  0.00    +0.000 OA
ATOM      7  C   UNL     1       1.660   7.098  20.407  0.00  0.00    +0.000 A 
ATOM      8  C   UNL     1       1.340   8.429  20.634  0.00  0.00    +0.000 A 
ATOM      9 BR   UNL     1       0.686   9.031  22.298  0.00  0.00    +0.000 Br
ATOM     10  N   UNL     1       1.523   9.323  19.630  0.00  0.00    +0.000 NA
ENDROOT
BRANCH   5  11
ATOM     11  N   UNL     1       1.893   3.818  21.370  0.00  0.00    +0.000 N 
ATOM     12  H   UNL     1       1.746   2.921  20.922  0.00  0.00    +0.000 HD
ATOM     13  H   UNL     1       1.985   3.818  22.378  0.00  0.00    +0.000 HD
ENDBRANCH   5  11
BRANCH   1  15
ATOM     14  C   UNL     1       2.105  11.151  17.846  0.00  0.00    +0.000 C 
ATOM     15  O   UNL     1       2.209   9.795  17.422  0.00  0.00    +0.000 OA
ENDBRANCH   1  15
BRANCH   4  16
ATOM     16  N   UNL     1       2.947   4.385  18.476  0.00  0.00    +0.000 N 
ATOM     17  H   UNL     1       2.307   3.951  17.814  0.00  0.00    +0.000 HD
BRANCH  16  18
ATOM     18  C   UNL     1       4.239   4.449  17.897  0.00  0.00    +0.000 A 
ATOM     19  C   UNL     1       5.337   4.754  18.715  0.00  0.00    +0.000 A 
ATOM     20  C   UNL     1       6.630   4.789  18.186  0.00  0.00    +0.000 A 
ATOM     21  C   UNL     1       6.833   4.507  16.840  0.00  0.00    +0.000 A 
ATOM     22  F   UNL     1       8.084   4.526  16.358  0.00  0.00    +0.000 F 
ATOM     23  C   UNL     1       5.755   4.204  16.012  0.00  0.00    +0.000 A 
ATOM     24 CL   UNL     1       6.000   3.843  14.348  0.00  0.00    +0.000 Cl
ATOM     25  C   UNL     1       4.462   4.181  16.537  0.00  0.00    +0.000 A 
ENDBRANCH  16  18
ENDBRANCH   4  16
TORSDOF 4
ENDMDL
MODEL 9
REMARK VINA RESULT:      -7.0      4.996      7.449
REMARK  Name = 
REMARK  5 active torsions:
REMARK  status: ('A' for Active; 'I' for Inactive)
REMARK    1  A    between atoms: C_1  and  O_2
REMARK    2  A    between atoms: O_2  and  C_3
REMARK    3  A    between atoms: C_6  and  N_7
REMARK    4  A    between atoms: N_7  and  C_8
REMARK    5  A    between atoms: C_16  and  N_17
REMARK                            x       y       z     vdW  Elec       q    Type
REMARK                         _______ _______ _______ _____ _____    ______ ____
ROOT
ATOM      1  C   UNL     1      -0.201  10.236  22.076  0.00  0.00    +0.000 A 
ATOM      2  C   UNL     1       0.569   9.089  21.915  0.00  0.00    +0.000 A 
ATOM      3  C   UNL     1       1.108   8.869  20.639  0.00  0.00    +0.000 A 
ATOM      4  C   UNL     1       1.884   7.858  20.001  0.00  0.00    +0.000 A 
ATOM      5  C   UNL     1       2.093   8.288  18.704  0.00  0.00    +0.000 A 
ATOM      6  O   UNL     1       1.451   9.458  18.478  0.00  0.00    +0.000 OA
ATOM      7  C   UNL     1       0.843   9.813  19.647  0.00  0.00    +0.000 A 
ATOM      8  C   UNL     1       0.063  10.939  19.867  0.00  0.00    +0.000 A 
ATOM      9 BR   UNL     1      -0.312  12.179  18.496  0.00  0.00    +0.000 Br
ATOM     10  N   UNL     1      -0.459  11.137  21.104  0.00  0.00    +0.000 NA
ENDROOT
BRANCH   5  11
ATOM     11  N   UNL     1       2.785   7.795  17.672  0.00  0.00    +0.000 N 
ATOM     12  H   UNL     1       2.721   8.201  16.746  0.00  0.00    +0.000 HD
ATOM     13  H   UNL     1       3.402   7.001  17.784  0.00  0.00    +0.000 HD
ENDBRANCH   5  11
BRANCH   1  15
ATOM     14  C   UNL     1      -1.783  11.394  23.360  0.00  0.00    +0.000 C 
ATOM     15  O   UNL     1      -0.738  10.425  23.336  0.00  0.00    +0.000 OA
ENDBRANCH   1  15
BRANCH   4  16
ATOM     16  N   UNL     1       2.351   6.713  20.579  0.00  0.00    +0.000 N 
ATOM     17  H   UNL     1       2.086   6.536  21.546  0.00  0.00    +0.000 HD
BRANCH  16  18
ATOM     18  C   UNL     1       2.607   5.477  19.934  0.00  0.00    +0.000 A 
ATOM     19  C   UNL     1       3.929   5.144  19.605  0.00  0.00    +0.000 A 
ATOM     20  C   UNL     1       4.224   3.917  19.002  0.00  0.00    +0.000 A 
ATOM     21  C   UNL     1       3.198   3.015  18.738  0.00  0.00    +0.000 A 
ATOM     22  F   UNL     1       3.507   1.836  18.178  0.00  0.00    +0.000 F 
ATOM     23  C   UNL     1       1.881   3.330  19.056  0.00  0.00    +0.000 A 
ATOM     24 CL   UNL     1       0.610   2.214  18.742  0.00  0.00    +0.000 Cl
ATOM     25  C   UNL     1       1.585   4.560  19.646  0.00  0.00    +0.000 A 
ENDBRANCH  16  18
ENDBRANCH   4  16
TORSDOF 4
ENDMDL
