MODEL 1
REMARK VINA RESULT:      -9.2      0.000      0.000
REMARK  Name = 
REMARK  6 active torsions:
REMARK  status: ('A' for Active; 'I' for Inactive)
REMARK    1  A    between atoms: C_1  and  C_2
REMARK    2  A    between atoms: C_2  and  O_3
REMARK    3  A    between atoms: O_3  and  C_4
REMARK    4  A    between atoms: C_4  and  C_6
REMARK    5  A    between atoms: C_7  and  C_8
REMARK    6  A    between atoms: C_21  and  C_22
REMARK                            x       y       z     vdW  Elec       q    Type
REMARK                         _______ _______ _______ _____ _____    ______ ____
ROOT
ATOM      1  C   UNL     1       5.237   4.955  18.501  0.00  0.00    +0.000 C 
ATOM      2  C   UNL     1       5.012   4.115  17.448  0.00  0.00    +0.000 C 
ATOM      3  N   UNL     1       3.996   3.163  17.546  0.00  0.00    +0.000 NA
ATOM      4  C   UNL     1       3.272   3.131  18.611  0.00  0.00    +0.000 C 
ATOM      5  S   UNL     1       2.115   1.876  18.949  0.00  0.00    +0.000 S 
ATOM      6  C   UNL     1       1.666   2.609  20.549  0.00  0.00    +0.000 C 
ATOM      7  C   UNL     1       2.323   3.952  20.574  0.00  0.00    +0.000 C 
ATOM      8  O   UNL     1       2.022   4.836  21.371  0.00  0.00    +0.000 OA
ATOM      9  N   UNL     1       3.295   4.047  19.609  0.00  0.00    +0.000 N 
ATOM     10  C   UNL     1       4.100   5.223  19.468  0.00  0.00    +0.000 C 
ENDROOT
BRANCH  10  11
ATOM     11  C   UNL     1       3.233   6.420  19.042  0.00  0.00    +0.000 A 
ATOM     12  C   UNL     1       3.309   6.921  17.716  0.00  0.00    +0.000 A 
ATOM     13  C   UNL     1       2.654   8.103  17.347  0.00  0.00    +0.000 A 
ATOM     14  C   UNL     1       1.924   8.750  18.317  0.00  0.00    +0.000 A 
ATOM     15  C   UNL     1       1.839   8.267  19.602  0.00  0.00    +0.000 A 
ATOM     16  C   UNL     1       2.449   7.102  19.989  0.00  0.00    +0.000 A 
ATOM     17  O   UNL     1       1.074   9.056  20.405  0.00  0.00    +0.000 OA
ATOM     18  C   UNL     1       0.410   9.821  19.386  0.00  0.00    +0.000 C 
ATOM     19  O   UNL     1       1.169   9.874  18.158  0.00  0.00    +0.000 OA
ENDBRANCH  10  11
BRANCH   2  20
ATOM     20  C   UNL     1       5.691   4.146  16.097  0.00  0.00    +0.000 A 
ATOM     21  C   UNL     1       6.963   4.692  15.888  0.00  0.00    +0.000 A 
ATOM     22  C   UNL     1       7.482   4.900  14.597  0.00  0.00    +0.000 A 
ATOM     23  C   UNL     1       6.720   4.584  13.462  0.00  0.00    +0.000 A 
ATOM     24  C   UNL     1       5.456   4.044  13.625  0.00  0.00    +0.000 A 
ATOM     25  C   UNL     1       4.952   3.821  14.928  0.00  0.00    +0.000 A 
ENDBRANCH   2  20
BRANCH   1  26
ATOM     26  C   UNL     1       6.455   5.669  18.982  0.00  0.00    +0.000 C 
ATOM     27  O   UNL     1       7.112   5.260  19.926  0.00  0.00    +0.000 OA
BRANCH  26  28
ATOM     28  O   UNL     1       6.891   6.623  18.123  0.00  0.00    +0.000 OA
BRANCH  28  30
ATOM     29  C   UNL     1       8.223   8.716  18.019  0.00  0.00    +0.000 C 
ATOM     30  C   UNL     1       8.119   7.278  18.508  0.00  0.00    +0.000 C 
ENDBRANCH  28  30
ENDBRANCH  26  28
ENDBRANCH   1  26
TORSDOF 5
ENDMDL
MODEL 2
REMARK VINA RESULT:      -9.0      5.802      9.321
REMARK  Name = 
REMARK  6 active torsions:
REMARK  status: ('A' for Active; 'I' for Inactive)
REMARK    1  A    between atoms: C_1  and  C_2
REMARK    2  A    between atoms: C_2  and  O_3
REMARK    3  A    between atoms: O_3  and  C_4
REMARK    4  A    between atoms: C_4  and  C_6
REMARK    5  A    between atoms: C_7  and  C_8
REMARK    6  A    between atoms: C_21  and  C_22
REMARK                            x       y       z     vdW  Elec       q    Type
REMARK                         _______ _______ _______ _____ _____    ______ ____
ROOT
ATOM      1  C   UNL     1      -0.691  11.359  18.596  0.00  0.00    +0.000 C 
ATOM      2  C   UNL     1       0.587  10.962  18.865  0.00  0.00    +0.000 C 
ATOM      3  N   UNL     1       1.556  11.931  19.127  0.00  0.00    +0.000 NA
ATOM      4  C   UNL     1       1.209  13.172  19.148  0.00  0.00    +0.000 C 
ATOM      5  S   UNL     1       2.343  14.487  19.258  0.00  0.00    +0.000 S 
ATOM      6  C   UNL     1       1.027  15.736  19.182  0.00  0.00    +0.000 C 
ATOM      7  C   UNL     1      -0.255  14.977  19.313  0.00  0.00    +0.000 C 
ATOM      8  O   UNL     1      -1.329  15.508  19.578  0.00  0.00    +0.000 OA
ATOM      9  N   UNL     1      -0.062  13.636  19.090  0.00  0.00    +0.000 N 
ATOM     10  C   UNL     1      -1.153  12.708  19.113  0.00  0.00    +0.000 C 
ENDROOT
BRANCH  10  11
ATOM     11  C   UNL     1      -1.760  12.624  20.523  0.00  0.00    +0.000 A 
ATOM     12  C   UNL     1      -0.955  12.233  21.625  0.00  0.00    +0.000 A 
ATOM     13  C   UNL     1      -1.514  11.994  22.886  0.00  0.00    +0.000 A 
ATOM     14  C   UNL     1      -2.873  12.168  23.018  0.00  0.00    +0.000 A 
ATOM     15  C   UNL     1      -3.659  12.554  21.957  0.00  0.00    +0.000 A 
ATOM     16  C   UNL     1      -3.139  12.818  20.717  0.00  0.00    +0.000 A 
ATOM     17  O   UNL     1      -4.973  12.665  22.296  0.00  0.00    +0.000 OA
ATOM     18  C   UNL     1      -4.825  12.686  23.725  0.00  0.00    +0.000 C 
ATOM     19  O   UNL     1      -3.606  12.046  24.161  0.00  0.00    +0.000 OA
ENDBRANCH  10  11
BRANCH   2  20
ATOM     20  C   UNL     1       1.089   9.543  19.012  0.00  0.00    +0.000 A 
ATOM     21  C   UNL     1       1.124   8.863  20.236  0.00  0.00    +0.000 A 
ATOM     22  C   UNL     1       1.786   7.631  20.385  0.00  0.00    +0.000 A 
ATOM     23  C   UNL     1       2.462   7.048  19.302  0.00  0.00    +0.000 A 
ATOM     24  C   UNL     1       2.454   7.690  18.076  0.00  0.00    +0.000 A 
ATOM     25  C   UNL     1       1.769   8.918  17.932  0.00  0.00    +0.000 A 
ENDBRANCH   2  20
BRANCH   1  26
ATOM     26  C   UNL     1      -1.793  10.747  17.798  0.00  0.00    +0.000 C 
ATOM     27  O   UNL     1      -2.401   9.763  18.185  0.00  0.00    +0.000 OA
BRANCH  26  28
ATOM     28  O   UNL     1      -2.210  11.531  16.774  0.00  0.00    +0.000 OA
BRANCH  28  30
ATOM     29  C   UNL     1      -2.956  10.242  14.787  0.00  0.00    +0.000 C 
ATOM     30  C   UNL     1      -3.343  11.022  16.036  0.00  0.00    +0.000 C 
ENDBRANCH  28  30
ENDBRANCH  26  28
ENDBRANCH   1  26
TORSDOF 5
ENDMDL
MODEL 3
REMARK VINA RESULT:      -8.4      5.913      9.611
REMARK  Name = 
REMARK  6 active torsions:
REMARK  status: ('A' for Active; 'I' for Inactive)
REMARK    1  A    between atoms: C_1  and  C_2
REMARK    2  A    between atoms: C_2  and  O_3
REMARK    3  A    between atoms: O_3  and  C_4
REMARK    4  A    between atoms: C_4  and  C_6
REMARK    5  A    between atoms: C_7  and  C_8
REMARK    6  A    between atoms: C_21  and  C_22
REMARK                            x       y       z     vdW  Elec       q    Type
REMARK                         _______ _______ _______ _____ _____    ______ ____
ROOT
ATOM      1  C   UNL     1      -0.586  11.650  18.707  0.00  0.00    +0.000 C 
ATOM      2  C   UNL     1       0.721  11.372  18.983  0.00  0.00    +0.000 C 
ATOM      3  N   UNL     1       1.590  12.424  19.277  0.00  0.00    +0.000 NA
ATOM      4  C   UNL     1       1.125  13.624  19.320  0.00  0.00    +0.000 C 
ATOM      5  S   UNL     1       2.127  15.039  19.473  0.00  0.00    +0.000 S 
ATOM      6  C   UNL     1       0.698  16.158  19.408  0.00  0.00    +0.000 C 
ATOM      7  C   UNL     1      -0.507  15.276  19.508  0.00  0.00    +0.000 C 
ATOM      8  O   UNL     1      -1.630  15.696  19.771  0.00  0.00    +0.000 OA
ATOM      9  N   UNL     1      -0.184  13.965  19.258  0.00  0.00    +0.000 N 
ATOM     10  C   UNL     1      -1.181  12.937  19.247  0.00  0.00    +0.000 C 
ENDROOT
BRANCH  10  11
ATOM     11  C   UNL     1      -1.791  12.763  20.648  0.00  0.00    +0.000 A 
ATOM     12  C   UNL     1      -0.983  12.323  21.729  0.00  0.00    +0.000 A 
ATOM     13  C   UNL     1      -1.543  12.003  22.972  0.00  0.00    +0.000 A 
ATOM     14  C   UNL     1      -2.905  12.148  23.108  0.00  0.00    +0.000 A 
ATOM     15  C   UNL     1      -3.694  12.582  22.068  0.00  0.00    +0.000 A 
ATOM     16  C   UNL     1      -3.174  12.924  20.846  0.00  0.00    +0.000 A 
ATOM     17  O   UNL     1      -5.010  12.652  22.407  0.00  0.00    +0.000 OA
ATOM     18  C   UNL     1      -4.867  12.594  23.835  0.00  0.00    +0.000 C 
ATOM     19  O   UNL     1      -3.640  11.950  24.239  0.00  0.00    +0.000 OA
ENDBRANCH  10  11
BRANCH   2  20
ATOM     20  C   UNL     1       1.356  10.004  19.105  0.00  0.00    +0.000 A 
ATOM     21  C   UNL     1       1.910   9.314  18.021  0.00  0.00    +0.000 A 
ATOM     22  C   UNL     1       2.301   7.966  18.117  0.00  0.00    +0.000 A 
ATOM     23  C   UNL     1       2.120   7.254  19.312  0.00  0.00    +0.000 A 
ATOM     24  C   UNL     1       1.572   7.898  20.407  0.00  0.00    +0.000 A 
ATOM     25  C   UNL     1       1.202   9.259  20.306  0.00  0.00    +0.000 A 
ENDBRANCH   2  20
BRANCH   1  26
ATOM     26  C   UNL     1      -1.616  10.954  17.883  0.00  0.00    +0.000 C 
ATOM     27  O   UNL     1      -1.717   9.738  17.868  0.00  0.00    +0.000 OA
BRANCH  26  28
ATOM     28  O   UNL     1      -2.562  11.791  17.390  0.00  0.00    +0.000 OA
BRANCH  28  30
ATOM     29  C   UNL     1      -5.044  11.856  17.341  0.00  0.00    +0.000 C 
ATOM     30  C   UNL     1      -3.765  11.145  16.919  0.00  0.00    +0.000 C 
ENDBRANCH  28  30
ENDBRANCH  26  28
ENDBRANCH   1  26
TORSDOF 5
ENDMDL
MODEL 4
REMARK VINA RESULT:      -8.1      0.887      1.478
REMARK  Name = 
REMARK  6 active torsions:
REMARK  status: ('A' for Active; 'I' for Inactive)
REMARK    1  A    between atoms: C_1  and  C_2
REMARK    2  A    between atoms: C_2  and  O_3
REMARK    3  A    between atoms: O_3  and  C_4
REMARK    4  A    between atoms: C_4  and  C_6
REMARK    5  A    between atoms: C_7  and  C_8
REMARK    6  A    between atoms: C_21  and  C_22
REMARK                            x       y       z     vdW  Elec       q    Type
REMARK                         _______ _______ _______ _____ _____    ______ ____
ROOT
ATOM      1  C   UNL     1       4.943   4.761  18.549  0.00  0.00    +0.000 C 
ATOM      2  C   UNL     1       4.543   4.193  17.373  0.00  0.00    +0.000 C 
ATOM      3  N   UNL     1       3.427   3.356  17.371  0.00  0.00    +0.000 NA
ATOM      4  C   UNL     1       2.780   3.174  18.470  0.00  0.00    +0.000 C 
ATOM      5  S   UNL     1       1.503   2.006  18.653  0.00  0.00    +0.000 S 
ATOM      6  C   UNL     1       1.262   2.423  20.404  0.00  0.00    +0.000 C 
ATOM      7  C   UNL     1       2.080   3.653  20.640  0.00  0.00    +0.000 C 
ATOM      8  O   UNL     1       1.947   4.373  21.625  0.00  0.00    +0.000 OA
ATOM      9  N   UNL     1       2.986   3.848  19.627  0.00  0.00    +0.000 N 
ATOM     10  C   UNL     1       3.918   4.935  19.654  0.00  0.00    +0.000 C 
ENDROOT
BRANCH  10  11
ATOM     11  C   UNL     1       3.178   6.281  19.565  0.00  0.00    +0.000 A 
ATOM     12  C   UNL     1       2.388   6.734  20.653  0.00  0.00    +0.000 A 
ATOM     13  C   UNL     1       1.579   7.871  20.541  0.00  0.00    +0.000 A 
ATOM     14  C   UNL     1       1.594   8.540  19.338  0.00  0.00    +0.000 A 
ATOM     15  C   UNL     1       2.363   8.113  18.281  0.00  0.00    +0.000 A 
ATOM     16  C   UNL     1       3.183   7.016  18.367  0.00  0.00    +0.000 A 
ATOM     17  O   UNL     1       2.232   8.909  17.186  0.00  0.00    +0.000 OA
ATOM     18  C   UNL     1       1.624  10.047  17.818  0.00  0.00    +0.000 C 
ATOM     19  O   UNL     1       0.932   9.694  19.035  0.00  0.00    +0.000 OA
ENDBRANCH  10  11
BRANCH   2  20
ATOM     20  C   UNL     1       5.124   4.440  15.999  0.00  0.00    +0.000 A 
ATOM     21  C   UNL     1       5.732   3.440  15.230  0.00  0.00    +0.000 A 
ATOM     22  C   UNL     1       6.448   3.734  14.056  0.00  0.00    +0.000 A 
ATOM     23  C   UNL     1       6.599   5.061  13.625  0.00  0.00    +0.000 A 
ATOM     24  C   UNL     1       6.017   6.080  14.359  0.00  0.00    +0.000 A 
ATOM     25  C   UNL     1       5.282   5.771  15.527  0.00  0.00    +0.000 A 
ENDBRANCH   2  20
BRANCH   1  26
ATOM     26  C   UNL     1       6.271   5.222  19.049  0.00  0.00    +0.000 C 
ATOM     27  O   UNL     1       6.661   4.966  20.176  0.00  0.00    +0.000 OA
BRANCH  26  28
ATOM     28  O   UNL     1       7.076   5.696  18.067  0.00  0.00    +0.000 OA
BRANCH  28  30
ATOM     29  C   UNL     1       7.732   8.033  17.543  0.00  0.00    +0.000 C 
ATOM     30  C   UNL     1       7.905   6.817  18.443  0.00  0.00    +0.000 C 
ENDBRANCH  28  30
ENDBRANCH  26  28
ENDBRANCH   1  26
TORSDOF 5
ENDMDL
MODEL 5
REMARK VINA RESULT:      -8.1      6.084      9.824
REMARK  Name = 
REMARK  6 active torsions:
REMARK  status: ('A' for Active; 'I' for Inactive)
REMARK    1  A    between atoms: C_1  and  C_2
REMARK    2  A    between atoms: C_2  and  O_3
REMARK    3  A    between atoms: O_3  and  C_4
REMARK    4  A    between atoms: C_4  and  C_6
REMARK    5  A    between atoms: C_7  and  C_8
REMARK    6  A    between atoms: C_21  and  C_22
REMARK                            x       y       z     vdW  Elec       q    Type
REMARK                         _______ _______ _______ _____ _____    ______ ____
ROOT
ATOM      1  C   UNL     1      -0.912  11.827  18.805  0.00  0.00    +0.000 C 
ATOM      2  C   UNL     1       0.374  11.438  19.045  0.00  0.00    +0.000 C 
ATOM      3  N   UNL     1       1.319  12.402  19.395  0.00  0.00    +0.000 NA
ATOM      4  C   UNL     1       0.943  13.628  19.522  0.00  0.00    +0.000 C 
ATOM      5  S   UNL     1       2.046  14.954  19.753  0.00  0.00    +0.000 S 
ATOM      6  C   UNL     1       0.702  16.174  19.779  0.00  0.00    +0.000 C 
ATOM      7  C   UNL     1      -0.563  15.378  19.837  0.00  0.00    +0.000 C 
ATOM      8  O   UNL     1      -1.650  15.859  20.141  0.00  0.00    +0.000 OA
ATOM      9  N   UNL     1      -0.338  14.066  19.499  0.00  0.00    +0.000 N 
ATOM     10  C   UNL     1      -1.408  13.115  19.435  0.00  0.00    +0.000 C 
ENDROOT
BRANCH  10  11
ATOM     11  C   UNL     1      -2.017  12.894  20.829  0.00  0.00    +0.000 A 
ATOM     12  C   UNL     1      -1.264  12.245  21.843  0.00  0.00    +0.000 A 
ATOM     13  C   UNL     1      -1.846  11.889  23.066  0.00  0.00    +0.000 A 
ATOM     14  C   UNL     1      -3.172  12.208  23.251  0.00  0.00    +0.000 A 
ATOM     15  C   UNL     1      -3.906  12.843  22.277  0.00  0.00    +0.000 A 
ATOM     16  C   UNL     1      -3.360  13.225  21.079  0.00  0.00    +0.000 A 
ATOM     17  O   UNL     1      -5.195  13.062  22.656  0.00  0.00    +0.000 OA
ATOM     18  C   UNL     1      -5.043  12.849  24.069  0.00  0.00    +0.000 C 
ATOM     19  O   UNL     1      -3.912  12.006  24.378  0.00  0.00    +0.000 OA
ENDBRANCH  10  11
BRANCH   2  20
ATOM     20  C   UNL     1       0.908  10.023  19.071  0.00  0.00    +0.000 A 
ATOM     21  C   UNL     1       1.021   9.265  20.242  0.00  0.00    +0.000 A 
ATOM     22  C   UNL     1       1.712   8.040  20.274  0.00  0.00    +0.000 A 
ATOM     23  C   UNL     1       2.339   7.544  19.121  0.00  0.00    +0.000 A 
ATOM     24  C   UNL     1       2.254   8.265  17.942  0.00  0.00    +0.000 A 
ATOM     25  C   UNL     1       1.540   9.485  17.917  0.00  0.00    +0.000 A 
ENDBRANCH   2  20
BRANCH   1  26
ATOM     26  C   UNL     1      -1.997  11.262  17.951  0.00  0.00    +0.000 C 
ATOM     27  O   UNL     1      -1.756  10.557  16.984  0.00  0.00    +0.000 OA
BRANCH  26  28
ATOM     28  O   UNL     1      -3.229  11.383  18.502  0.00  0.00    +0.000 OA
BRANCH  28  30
ATOM     29  C   UNL     1      -5.670  10.955  18.341  0.00  0.00    +0.000 C 
ATOM     30  C   UNL     1      -4.327  11.034  17.629  0.00  0.00    +0.000 C 
ENDBRANCH  28  30
ENDBRANCH  26  28
ENDBRANCH   1  26
TORSDOF 5
ENDMDL
MODEL 6
REMARK VINA RESULT:      -8.0      4.255      7.392
REMARK  Name = 
REMARK  6 active torsions:
REMARK  status: ('A' for Active; 'I' for Inactive)
REMARK    1  A    between atoms: C_1  and  C_2
REMARK    2  A    between atoms: C_2  and  O_3
REMARK    3  A    between atoms: O_3  and  C_4
REMARK    4  A    between atoms: C_4  and  C_6
REMARK    5  A    between atoms: C_7  and  C_8
REMARK    6  A    between atoms: C_21  and  C_22
REMARK                            x       y       z     vdW  Elec       q    Type
REMARK                         _______ _______ _______ _____ _____    ______ ____
ROOT
ATOM      1  C   UNL     1       0.701   9.693  20.240  0.00  0.00    +0.000 C 
ATOM      2  C   UNL     1       0.975   9.012  19.089  0.00  0.00    +0.000 C 
ATOM      3  N   UNL     1       0.172   9.226  17.968  0.00  0.00    +0.000 NA
ATOM      4  C   UNL     1      -0.781  10.090  18.039  0.00  0.00    +0.000 C 
ATOM      5  S   UNL     1      -1.977  10.307  16.794  0.00  0.00    +0.000 S 
ATOM      6  C   UNL     1      -2.839  11.600  17.734  0.00  0.00    +0.000 C 
ATOM      7  C   UNL     1      -1.943  11.923  18.888  0.00  0.00    +0.000 C 
ATOM      8  O   UNL     1      -2.067  12.931  19.576  0.00  0.00    +0.000 OA
ATOM      9  N   UNL     1      -0.995  10.946  19.067  0.00  0.00    +0.000 N 
ATOM     10  C   UNL     1      -0.051  11.006  20.142  0.00  0.00    +0.000 C 
ENDROOT
BRANCH  10  11
ATOM     11  C   UNL     1       0.888  12.212  19.968  0.00  0.00    +0.000 A 
ATOM     12  C   UNL     1       1.659  12.351  18.784  0.00  0.00    +0.000 A 
ATOM     13  C   UNL     1       2.636  13.348  18.666  0.00  0.00    +0.000 A 
ATOM     14  C   UNL     1       2.807  14.195  19.737  0.00  0.00    +0.000 A 
ATOM     15  C   UNL     1       2.059  14.072  20.884  0.00  0.00    +0.000 A 
ATOM     16  C   UNL     1       1.079  13.122  21.022  0.00  0.00    +0.000 A 
ATOM     17  O   UNL     1       2.386  15.002  21.822  0.00  0.00    +0.000 OA
ATOM     18  C   UNL     1       3.113  15.911  20.979  0.00  0.00    +0.000 C 
ATOM     19  O   UNL     1       3.655  15.261  19.809  0.00  0.00    +0.000 OA
ENDBRANCH  10  11
BRANCH   2  20
ATOM     20  C   UNL     1       2.143   8.085  18.834  0.00  0.00    +0.000 A 
ATOM     21  C   UNL     1       2.951   8.162  17.693  0.00  0.00    +0.000 A 
ATOM     22  C   UNL     1       3.891   7.164  17.378  0.00  0.00    +0.000 A 
ATOM     23  C   UNL     1       4.033   6.033  18.195  0.00  0.00    +0.000 A 
ATOM     24  C   UNL     1       3.251   5.917  19.331  0.00  0.00    +0.000 A 
ATOM     25  C   UNL     1       2.323   6.935  19.650  0.00  0.00    +0.000 A 
ENDBRANCH   2  20
BRANCH   1  26
ATOM     26  C   UNL     1       0.937   9.381  21.679  0.00  0.00    +0.000 C 
ATOM     27  O   UNL     1       1.992   9.645  22.233  0.00  0.00    +0.000 OA
BRANCH  26  28
ATOM     28  O   UNL     1      -0.194   9.040  22.345  0.00  0.00    +0.000 OA
BRANCH  28  30
ATOM     29  C   UNL     1      -1.416  11.038  23.169  0.00  0.00    +0.000 C 
ATOM     30  C   UNL     1      -0.502   9.864  23.491  0.00  0.00    +0.000 C 
ENDBRANCH  28  30
ENDBRANCH  26  28
ENDBRANCH   1  26
TORSDOF 5
ENDMDL
MODEL 7
REMARK VINA RESULT:      -7.9      4.279      7.493
REMARK  Name = 
REMARK  6 active torsions:
REMARK  status: ('A' for Active; 'I' for Inactive)
REMARK    1  A    between atoms: C_1  and  C_2
REMARK    2  A    between atoms: C_2  and  O_3
REMARK    3  A    between atoms: O_3  and  C_4
REMARK    4  A    between atoms: C_4  and  C_6
REMARK    5  A    between atoms: C_7  and  C_8
REMARK    6  A    between atoms: C_21  and  C_22
REMARK                            x       y       z     vdW  Elec       q    Type
REMARK                         _______ _______ _______ _____ _____    ______ ____
ROOT
ATOM      1  C   UNL     1       0.613   9.680  20.266  0.00  0.00    +0.000 C 
ATOM      2  C   UNL     1       0.921   9.045  19.098  0.00  0.00    +0.000 C 
ATOM      3  N   UNL     1       0.140   9.289  17.968  0.00  0.00    +0.000 NA
ATOM      4  C   UNL     1      -0.826  10.138  18.048  0.00  0.00    +0.000 C 
ATOM      5  S   UNL     1      -1.997  10.385  16.784  0.00  0.00    +0.000 S 
ATOM      6  C   UNL     1      -2.897  11.631  17.751  0.00  0.00    +0.000 C 
ATOM      7  C   UNL     1      -2.032  11.923  18.936  0.00  0.00    +0.000 C 
ATOM      8  O   UNL     1      -2.184  12.904  19.657  0.00  0.00    +0.000 OA
ATOM      9  N   UNL     1      -1.075  10.953  19.101  0.00  0.00    +0.000 N 
ATOM     10  C   UNL     1      -0.155  10.986  20.199  0.00  0.00    +0.000 C 
ENDROOT
BRANCH  10  11
ATOM     11  C   UNL     1       0.770  12.210  20.089  0.00  0.00    +0.000 A 
ATOM     12  C   UNL     1       0.809  13.171  21.133  0.00  0.00    +0.000 A 
ATOM     13  C   UNL     1       1.518  14.370  20.991  0.00  0.00    +0.000 A 
ATOM     14  C   UNL     1       2.188  14.571  19.806  0.00  0.00    +0.000 A 
ATOM     15  C   UNL     1       2.161  13.642  18.792  0.00  0.00    +0.000 A 
ATOM     16  C   UNL     1       1.496  12.448  18.909  0.00  0.00    +0.000 A 
ATOM     17  O   UNL     1       2.881  14.034  17.706  0.00  0.00    +0.000 OA
ATOM     18  C   UNL     1       3.639  15.089  18.321  0.00  0.00    +0.000 C 
ATOM     19  O   UNL     1       2.980  15.634  19.484  0.00  0.00    +0.000 OA
ENDBRANCH  10  11
BRANCH   2  20
ATOM     20  C   UNL     1       2.107   8.143  18.837  0.00  0.00    +0.000 A 
ATOM     21  C   UNL     1       2.918   8.249  17.700  0.00  0.00    +0.000 A 
ATOM     22  C   UNL     1       3.878   7.273  17.376  0.00  0.00    +0.000 A 
ATOM     23  C   UNL     1       4.038   6.134  18.180  0.00  0.00    +0.000 A 
ATOM     24  C   UNL     1       3.253   5.990  19.311  0.00  0.00    +0.000 A 
ATOM     25  C   UNL     1       2.305   6.987  19.638  0.00  0.00    +0.000 A 
ENDBRANCH   2  20
BRANCH   1  26
ATOM     26  C   UNL     1       0.821   9.318  21.698  0.00  0.00    +0.000 C 
ATOM     27  O   UNL     1       1.892   9.488  22.258  0.00  0.00    +0.000 OA
BRANCH  26  28
ATOM     28  O   UNL     1      -0.335   9.052  22.356  0.00  0.00    +0.000 OA
BRANCH  28  30
ATOM     29  C   UNL     1      -1.474  11.087  23.208  0.00  0.00    +0.000 C 
ATOM     30  C   UNL     1      -0.589   9.885  23.508  0.00  0.00    +0.000 C 
ENDBRANCH  28  30
ENDBRANCH  26  28
ENDBRANCH   1  26
TORSDOF 5
ENDMDL
MODEL 8
REMARK VINA RESULT:      -7.9      7.647     11.386
REMARK  Name = 
REMARK  6 active torsions:
REMARK  status: ('A' for Active; 'I' for Inactive)
REMARK    1  A    between atoms: C_1  and  C_2
REMARK    2  A    between atoms: C_2  and  O_3
REMARK    3  A    between atoms: O_3  and  C_4
REMARK    4  A    between atoms: C_4  and  C_6
REMARK    5  A    between atoms: C_7  and  C_8
REMARK    6  A    between atoms: C_21  and  C_22
REMARK                            x       y       z     vdW  Elec       q    Type
REMARK                         _______ _______ _______ _____ _____    ______ ____
ROOT
ATOM      1  C   UNL     1      -1.525  12.657  21.771  0.00  0.00    +0.000 C 
ATOM      2  C   UNL     1      -2.419  13.688  21.757  0.00  0.00    +0.000 C 
ATOM      3  N   UNL     1      -2.120  14.834  21.019  0.00  0.00    +0.000 NA
ATOM      4  C   UNL     1      -1.025  14.871  20.341  0.00  0.00    +0.000 C 
ATOM      5  S   UNL     1      -0.433  16.303  19.548  0.00  0.00    +0.000 S 
ATOM      6  C   UNL     1       1.054  15.454  18.946  0.00  0.00    +0.000 C 
ATOM      7  C   UNL     1       0.834  14.003  19.238  0.00  0.00    +0.000 C 
ATOM      8  O   UNL     1       1.498  13.105  18.730  0.00  0.00    +0.000 OA
ATOM      9  N   UNL     1      -0.185  13.828  20.141  0.00  0.00    +0.000 N 
ATOM     10  C   UNL     1      -0.551  12.527  20.615  0.00  0.00    +0.000 C 
ENDROOT
BRANCH  10  11
ATOM     11  C   UNL     1      -1.111  11.672  19.466  0.00  0.00    +0.000 A 
ATOM     12  C   UNL     1      -0.397  10.532  19.011  0.00  0.00    +0.000 A 
ATOM     13  C   UNL     1      -0.800   9.832  17.867  0.00  0.00    +0.000 A 
ATOM     14  C   UNL     1      -1.922  10.283  17.212  0.00  0.00    +0.000 A 
ATOM     15  C   UNL     1      -2.624  11.382  17.651  0.00  0.00    +0.000 A 
ATOM     16  C   UNL     1      -2.269  12.075  18.780  0.00  0.00    +0.000 A 
ATOM     17  O   UNL     1      -3.696  11.664  16.862  0.00  0.00    +0.000 OA
ATOM     18  C   UNL     1      -3.780  10.415  16.158  0.00  0.00    +0.000 C 
ATOM     19  O   UNL     1      -2.516   9.719  16.122  0.00  0.00    +0.000 OA
ENDBRANCH  10  11
BRANCH   2  20
ATOM     20  C   UNL     1      -3.793  13.711  22.388  0.00  0.00    +0.000 A 
ATOM     21  C   UNL     1      -4.836  12.864  21.993  0.00  0.00    +0.000 A 
ATOM     22  C   UNL     1      -6.156  13.045  22.444  0.00  0.00    +0.000 A 
ATOM     23  C   UNL     1      -6.478  14.111  23.298  0.00  0.00    +0.000 A 
ATOM     24  C   UNL     1      -5.477  14.974  23.710  0.00  0.00    +0.000 A 
ATOM     25  C   UNL     1      -4.150  14.770  23.266  0.00  0.00    +0.000 A 
ENDBRANCH   2  20
BRANCH   1  26
ATOM     26  C   UNL     1      -1.227  11.592  22.772  0.00  0.00    +0.000 C 
ATOM     27  O   UNL     1      -2.102  11.082  23.453  0.00  0.00    +0.000 OA
BRANCH  26  28
ATOM     28  O   UNL     1       0.023  11.079  22.652  0.00  0.00    +0.000 OA
BRANCH  28  30
ATOM     29  C   UNL     1       1.052   8.918  21.989  0.00  0.00    +0.000 C 
ATOM     30  C   UNL     1       0.137   9.670  22.947  0.00  0.00    +0.000 C 
ENDBRANCH  28  30
ENDBRANCH  26  28
ENDBRANCH   1  26
TORSDOF 5
ENDMDL
MODEL 9
REMARK VINA RESULT:      -7.8      7.678     10.017
REMARK  Name = 
REMARK  6 active torsions:
REMARK  status: ('A' for Active; 'I' for Inactive)
REMARK    1  A    between atoms: C_1  and  C_2
REMARK    2  A    between atoms: C_2  and  O_3
REMARK    3  A    between atoms: O_3  and  C_4
REMARK    4  A    between atoms: C_4  and  C_6
REMARK    5  A    between atoms: C_7  and  C_8
REMARK    6  A    between atoms: C_21  and  C_22
REMARK                            x       y       z     vdW  Elec       q    Type
REMARK                         _______ _______ _______ _____ _____    ______ ____
ROOT
ATOM      1  C   UNL     1      -0.618  11.818  19.856  0.00  0.00    +0.000 C 
ATOM      2  C   UNL     1      -1.944  11.792  19.532  0.00  0.00    +0.000 C 
ATOM      3  N   UNL     1      -2.853  12.467  20.347  0.00  0.00    +0.000 NA
ATOM      4  C   UNL     1      -2.411  13.129  21.361  0.00  0.00    +0.000 C 
ATOM      5  S   UNL     1      -3.443  13.842  22.568  0.00  0.00    +0.000 S 
ATOM      6  C   UNL     1      -2.030  14.466  23.523  0.00  0.00    +0.000 C 
ATOM      7  C   UNL     1      -0.831  14.250  22.655  0.00  0.00    +0.000 C 
ATOM      8  O   UNL     1       0.251  14.794  22.852  0.00  0.00    +0.000 OA
ATOM      9  N   UNL     1      -1.108  13.370  21.638  0.00  0.00    +0.000 N 
ATOM     10  C   UNL     1      -0.102  12.966  20.702  0.00  0.00    +0.000 C 
ENDROOT
BRANCH  10  11
ATOM     11  C   UNL     1       0.357  14.164  19.853  0.00  0.00    +0.000 A 
ATOM     12  C   UNL     1       1.740  14.458  19.722  0.00  0.00    +0.000 A 
ATOM     13  C   UNL     1       2.177  15.629  19.091  0.00  0.00    +0.000 A 
ATOM     14  C   UNL     1       1.213  16.475  18.591  0.00  0.00    +0.000 A 
ATOM     15  C   UNL     1      -0.128  16.193  18.707  0.00  0.00    +0.000 A 
ATOM     16  C   UNL     1      -0.587  15.044  19.298  0.00  0.00    +0.000 A 
ATOM     17  O   UNL     1      -0.912  17.157  18.152  0.00  0.00    +0.000 OA
ATOM     18  C   UNL     1       0.090  17.824  17.368  0.00  0.00    +0.000 C 
ATOM     19  O   UNL     1       1.420  17.629  17.895  0.00  0.00    +0.000 OA
ENDBRANCH  10  11
BRANCH   2  20
ATOM     20  C   UNL     1      -2.569  11.178  18.299  0.00  0.00    +0.000 A 
ATOM     21  C   UNL     1      -1.880  10.321  17.433  0.00  0.00    +0.000 A 
ATOM     22  C   UNL     1      -2.410   9.934  16.190  0.00  0.00    +0.000 A 
ATOM     23  C   UNL     1      -3.654  10.421  15.761  0.00  0.00    +0.000 A 
ATOM     24  C   UNL     1      -4.366  11.274  16.586  0.00  0.00    +0.000 A 
ATOM     25  C   UNL     1      -3.833  11.641  17.843  0.00  0.00    +0.000 A 
ENDBRANCH   2  20
BRANCH   1  26
ATOM     26  C   UNL     1       0.503  10.868  19.600  0.00  0.00    +0.000 C 
ATOM     27  O   UNL     1       1.137  10.883  18.558  0.00  0.00    +0.000 OA
BRANCH  26  28
ATOM     28  O   UNL     1       0.903  10.200  20.711  0.00  0.00    +0.000 OA
BRANCH  28  30
ATOM     29  C   UNL     1      -0.415   9.426  22.668  0.00  0.00    +0.000 C 
ATOM     30  C   UNL     1      -0.035   9.221  21.207  0.00  0.00    +0.000 C 
ENDBRANCH  28  30
ENDBRANCH  26  28
ENDBRANCH   1  26
TORSDOF 5
ENDMDL
