MODEL 1
REMARK VINA RESULT:      -7.0      0.000      0.000
REMARK  Name = 
REMARK  4 active torsions:
REMARK  status: ('A' for Active; 'I' for Inactive)
REMARK    1  A    between atoms: C_1  and  C_2
REMARK    2  A    between atoms: C_2  and  C_3
REMARK    3  A    between atoms: C_5  and  C_6
REMARK    4  A    between atoms: C_14  and  C_15
REMARK                            x       y       z     vdW  Elec       q    Type
REMARK                         _______ _______ _______ _____ _____    ______ ____
ROOT
ATOM      1  C   UNL     1       6.133   5.322  17.410  0.00  0.00    +0.000 A 
ATOM      2  O   UNL     1       5.789   4.835  18.629  0.00  0.00    +0.000 OA
ATOM      3  C   UNL     1       4.908   3.802  18.453  0.00  0.00    +0.000 A 
ATOM      4  C   UNL     1       4.681   3.648  17.100  0.00  0.00    +0.000 A 
ATOM      5  C   UNL     1       5.486   4.606  16.419  0.00  0.00    +0.000 A 
ATOM      6  C   UNL     1       5.644   4.753  14.954  0.00  0.00    +0.000 C 
ENDROOT
BRANCH   3   7
ATOM      7  C   UNL     1       4.416   3.026  19.596  0.00  0.00    +0.000 C 
ATOM      8  O   UNL     1       5.056   2.078  20.042  0.00  0.00    +0.000 OA
ATOM      9  N   UNL     1       3.200   3.387  20.156  0.00  0.00    +0.000 N 
ATOM     10  C   UNL     1       2.656   2.736  21.330  0.00  0.00    +0.000 C 
ATOM     11  C   UNL     1       1.157   2.923  21.173  0.00  0.00    +0.000 C 
ATOM     12  C   UNL     1       1.030   4.287  20.506  0.00  0.00    +0.000 C 
ATOM     13  C   UNL     1       2.319   4.455  19.716  0.00  0.00    +0.000 C 
ENDBRANCH   3   7
BRANCH   1  15
ATOM     14  C   UNL     1       7.917   6.508  18.711  0.00  0.00    +0.000 C 
ATOM     15  C   UNL     1       7.143   6.415  17.407  0.00  0.00    +0.000 C 
ENDBRANCH   1  15
TORSDOF 2
ENDMDL
MODEL 2
REMARK VINA RESULT:      -7.0      0.810      2.074
REMARK  Name = 
REMARK  4 active torsions:
REMARK  status: ('A' for Active; 'I' for Inactive)
REMARK    1  A    between atoms: C_1  and  C_2
REMARK    2  A    between atoms: C_2  and  C_3
REMARK    3  A    between atoms: C_5  and  C_6
REMARK    4  A    between atoms: C_14  and  C_15
REMARK                            x       y       z     vdW  Elec       q    Type
REMARK                         _______ _______ _______ _____ _____    ______ ____
ROOT
ATOM      1  C   UNL     1       5.683   4.987  16.820  0.00  0.00    +0.000 A 
ATOM      2  O   UNL     1       4.982   4.000  17.435  0.00  0.00    +0.000 OA
ATOM      3  C   UNL     1       5.213   4.078  18.782  0.00  0.00    +0.000 A 
ATOM      4  C   UNL     1       6.087   5.120  19.017  0.00  0.00    +0.000 A 
ATOM      5  C   UNL     1       6.374   5.728  17.760  0.00  0.00    +0.000 A 
ATOM      6  C   UNL     1       7.190   6.942  17.527  0.00  0.00    +0.000 C 
ENDROOT
BRANCH   3   7
ATOM      7  C   UNL     1       4.528   3.180  19.718  0.00  0.00    +0.000 C 
ATOM      8  O   UNL     1       5.038   2.119  20.069  0.00  0.00    +0.000 OA
ATOM      9  N   UNL     1       3.281   3.557  20.191  0.00  0.00    +0.000 N 
ATOM     10  C   UNL     1       2.550   2.783  21.173  0.00  0.00    +0.000 C 
ATOM     11  C   UNL     1       1.099   3.127  20.884  0.00  0.00    +0.000 C 
ATOM     12  C   UNL     1       1.154   4.585  20.443  0.00  0.00    +0.000 C 
ATOM     13  C   UNL     1       2.540   4.757  19.841  0.00  0.00    +0.000 C 
ENDBRANCH   3   7
BRANCH   1  15
ATOM     14  C   UNL     1       6.233   4.014  14.577  0.00  0.00    +0.000 C 
ATOM     15  C   UNL     1       5.496   5.095  15.348  0.00  0.00    +0.000 C 
ENDBRANCH   1  15
TORSDOF 2
ENDMDL
MODEL 3
REMARK VINA RESULT:      -6.8      1.880      2.873
REMARK  Name = 
REMARK  4 active torsions:
REMARK  status: ('A' for Active; 'I' for Inactive)
REMARK    1  A    between atoms: C_1  and  C_2
REMARK    2  A    between atoms: C_2  and  C_3
REMARK    3  A    between atoms: C_5  and  C_6
REMARK    4  A    between atoms: C_14  and  C_15
REMARK                            x       y       z     vdW  Elec       q    Type
REMARK                         _______ _______ _______ _____ _____    ______ ____
ROOT
ATOM      1  C   UNL     1       5.308   4.511  16.322  0.00  0.00    +0.000 A 
ATOM      2  O   UNL     1       4.228   3.778  16.692  0.00  0.00    +0.000 OA
ATOM      3  C   UNL     1       3.439   4.546  17.505  0.00  0.00    +0.000 A 
ATOM      4  C   UNL     1       4.041   5.777  17.663  0.00  0.00    +0.000 A 
ATOM      5  C   UNL     1       5.234   5.773  16.883  0.00  0.00    +0.000 A 
ATOM      6  C   UNL     1       6.159   6.909  16.669  0.00  0.00    +0.000 C 
ENDROOT
BRANCH   3   7
ATOM      7  C   UNL     1       2.154   4.043  18.004  0.00  0.00    +0.000 C 
ATOM      8  O   UNL     1       1.123   4.178  17.350  0.00  0.00    +0.000 OA
ATOM      9  N   UNL     1       2.133   3.418  19.241  0.00  0.00    +0.000 N 
ATOM     10  C   UNL     1       0.935   2.822  19.795  0.00  0.00    +0.000 C 
ATOM     11  C   UNL     1       1.165   2.898  21.295  0.00  0.00    +0.000 C 
ATOM     12  C   UNL     1       2.668   2.699  21.441  0.00  0.00    +0.000 C 
ATOM     13  C   UNL     1       3.258   3.219  20.139  0.00  0.00    +0.000 C 
ENDBRANCH   3   7
BRANCH   1  15
ATOM     14  C   UNL     1       5.942   4.165  13.922  0.00  0.00    +0.000 C 
ATOM     15  C   UNL     1       6.248   3.851  15.376  0.00  0.00    +0.000 C 
ENDBRANCH   1  15
TORSDOF 2
ENDMDL
MODEL 4
REMARK VINA RESULT:      -6.8      1.379      2.442
REMARK  Name = 
REMARK  4 active torsions:
REMARK  status: ('A' for Active; 'I' for Inactive)
REMARK    1  A    between atoms: C_1  and  C_2
REMARK    2  A    between atoms: C_2  and  C_3
REMARK    3  A    between atoms: C_5  and  C_6
REMARK    4  A    between atoms: C_14  and  C_15
REMARK                            x       y       z     vdW  Elec       q    Type
REMARK                         _______ _______ _______ _____ _____    ______ ____
ROOT
ATOM      1  C   UNL     1       6.689   5.047  16.730  0.00  0.00    +0.000 A 
ATOM      2  O   UNL     1       5.902   4.038  17.183  0.00  0.00    +0.000 OA
ATOM      3  C   UNL     1       5.575   4.294  18.487  0.00  0.00    +0.000 A 
ATOM      4  C   UNL     1       6.180   5.475  18.866  0.00  0.00    +0.000 A 
ATOM      5  C   UNL     1       6.879   5.980  17.731  0.00  0.00    +0.000 A 
ATOM      6  C   UNL     1       7.599   7.271  17.634  0.00  0.00    +0.000 C 
ENDROOT
BRANCH   3   7
ATOM      7  C   UNL     1       4.666   3.410  19.225  0.00  0.00    +0.000 C 
ATOM      8  O   UNL     1       5.095   2.595  20.038  0.00  0.00    +0.000 OA
ATOM      9  N   UNL     1       3.307   3.512  18.973  0.00  0.00    +0.000 N 
ATOM     10  C   UNL     1       2.318   2.740  19.696  0.00  0.00    +0.000 C 
ATOM     11  C   UNL     1       1.166   2.632  18.712  0.00  0.00    +0.000 C 
ATOM     12  C   UNL     1       1.203   3.960  17.965  0.00  0.00    +0.000 C 
ATOM     13  C   UNL     1       2.659   4.397  18.020  0.00  0.00    +0.000 C 
ENDBRANCH   3   7
BRANCH   1  15
ATOM     14  C   UNL     1       5.953   4.525  14.391  0.00  0.00    +0.000 C 
ATOM     15  C   UNL     1       7.088   4.966  15.298  0.00  0.00    +0.000 C 
ENDBRANCH   1  15
TORSDOF 2
ENDMDL
MODEL 5
REMARK VINA RESULT:      -6.7      1.746      2.139
REMARK  Name = 
REMARK  4 active torsions:
REMARK  status: ('A' for Active; 'I' for Inactive)
REMARK    1  A    between atoms: C_1  and  C_2
REMARK    2  A    between atoms: C_2  and  C_3
REMARK    3  A    between atoms: C_5  and  C_6
REMARK    4  A    between atoms: C_14  and  C_15
REMARK                            x       y       z     vdW  Elec       q    Type
REMARK                         _______ _______ _______ _____ _____    ______ ____
ROOT
ATOM      1  C   UNL     1       5.200   5.727  16.941  0.00  0.00    +0.000 A 
ATOM      2  O   UNL     1       3.993   5.663  17.560  0.00  0.00    +0.000 OA
ATOM      3  C   UNL     1       3.439   4.437  17.305  0.00  0.00    +0.000 A 
ATOM      4  C   UNL     1       4.303   3.726  16.498  0.00  0.00    +0.000 A 
ATOM      5  C   UNL     1       5.452   4.540  16.280  0.00  0.00    +0.000 A 
ATOM      6  C   UNL     1       6.685   4.160  15.552  0.00  0.00    +0.000 C 
ENDROOT
BRANCH   3   7
ATOM      7  C   UNL     1       2.160   4.047  17.908  0.00  0.00    +0.000 C 
ATOM      8  O   UNL     1       1.096   4.258  17.331  0.00  0.00    +0.000 OA
ATOM      9  N   UNL     1       2.183   3.439  19.153  0.00  0.00    +0.000 N 
ATOM     10  C   UNL     1       0.986   2.949  19.807  0.00  0.00    +0.000 C 
ATOM     11  C   UNL     1       1.336   3.023  21.283  0.00  0.00    +0.000 C 
ATOM     12  C   UNL     1       2.825   2.703  21.319  0.00  0.00    +0.000 C 
ATOM     13  C   UNL     1       3.353   3.159  19.967  0.00  0.00    +0.000 C 
ENDBRANCH   3   7
BRANCH   1  15
ATOM     14  C   UNL     1       7.304   6.726  17.867  0.00  0.00    +0.000 C 
ATOM     15  C   UNL     1       5.979   6.975  17.168  0.00  0.00    +0.000 C 
ENDBRANCH   1  15
TORSDOF 2
ENDMDL
MODEL 6
REMARK VINA RESULT:      -6.6      1.073      1.110
REMARK  Name = 
REMARK  4 active torsions:
REMARK  status: ('A' for Active; 'I' for Inactive)
REMARK    1  A    between atoms: C_1  and  C_2
REMARK    2  A    between atoms: C_2  and  C_3
REMARK    3  A    between atoms: C_5  and  C_6
REMARK    4  A    between atoms: C_14  and  C_15
REMARK                            x       y       z     vdW  Elec       q    Type
REMARK                         _______ _______ _______ _____ _____    ______ ____
ROOT
ATOM      1  C   UNL     1       6.560   4.679  17.729  0.00  0.00    +0.000 A 
ATOM      2  O   UNL     1       5.740   4.029  18.594  0.00  0.00    +0.000 OA
ATOM      3  C   UNL     1       4.706   3.480  17.884  0.00  0.00    +0.000 A 
ATOM      4  C   UNL     1       4.869   3.805  16.553  0.00  0.00    +0.000 A 
ATOM      5  C   UNL     1       6.075   4.556  16.440  0.00  0.00    +0.000 A 
ATOM      6  C   UNL     1       6.707   5.040  15.191  0.00  0.00    +0.000 C 
ENDROOT
BRANCH   3   7
ATOM      7  C   UNL     1       3.694   2.649  18.545  0.00  0.00    +0.000 C 
ATOM      8  O   UNL     1       3.615   1.444  18.317  0.00  0.00    +0.000 OA
ATOM      9  N   UNL     1       2.820   3.262  19.429  0.00  0.00    +0.000 N 
ATOM     10  C   UNL     1       1.832   2.525  20.189  0.00  0.00    +0.000 C 
ATOM     11  C   UNL     1       0.741   3.552  20.437  0.00  0.00    +0.000 C 
ATOM     12  C   UNL     1       1.504   4.861  20.593  0.00  0.00    +0.000 C 
ATOM     13  C   UNL     1       2.769   4.674  19.769  0.00  0.00    +0.000 C 
ENDBRANCH   3   7
BRANCH   1  15
ATOM     14  C   UNL     1       7.775   6.803  18.274  0.00  0.00    +0.000 C 
ATOM     15  C   UNL     1       7.782   5.285  18.323  0.00  0.00    +0.000 C 
ENDBRANCH   1  15
TORSDOF 2
ENDMDL
MODEL 7
REMARK VINA RESULT:      -6.5      1.816      5.528
REMARK  Name = 
REMARK  4 active torsions:
REMARK  status: ('A' for Active; 'I' for Inactive)
REMARK    1  A    between atoms: C_1  and  C_2
REMARK    2  A    between atoms: C_2  and  C_3
REMARK    3  A    between atoms: C_5  and  C_6
REMARK    4  A    between atoms: C_14  and  C_15
REMARK                            x       y       z     vdW  Elec       q    Type
REMARK                         _______ _______ _______ _____ _____    ______ ____
ROOT
ATOM      1  C   UNL     1       2.504   4.049  19.903  0.00  0.00    +0.000 A 
ATOM      2  O   UNL     1       3.694   3.708  19.346  0.00  0.00    +0.000 OA
ATOM      3  C   UNL     1       4.413   4.852  19.123  0.00  0.00    +0.000 A 
ATOM      4  C   UNL     1       3.656   5.931  19.530  0.00  0.00    +0.000 A 
ATOM      5  C   UNL     1       2.434   5.421  20.058  0.00  0.00    +0.000 A 
ATOM      6  C   UNL     1       1.350   6.200  20.700  0.00  0.00    +0.000 C 
ENDROOT
BRANCH   3   7
ATOM      7  C   UNL     1       5.780   4.793  18.594  0.00  0.00    +0.000 C 
ATOM      8  O   UNL     1       6.751   4.977  19.324  0.00  0.00    +0.000 OA
ATOM      9  N   UNL     1       5.948   4.534  17.243  0.00  0.00    +0.000 N 
ATOM     10  C   UNL     1       7.252   4.382  16.632  0.00  0.00    +0.000 C 
ATOM     11  C   UNL     1       7.016   4.795  15.189  0.00  0.00    +0.000 C 
ATOM     12  C   UNL     1       5.598   4.314  14.904  0.00  0.00    +0.000 C 
ATOM     13  C   UNL     1       4.901   4.333  16.256  0.00  0.00    +0.000 C 
ENDBRANCH   3   7
BRANCH   1  15
ATOM     14  C   UNL     1       1.659   2.593  21.760  0.00  0.00    +0.000 C 
ATOM     15  C   UNL     1       1.614   2.917  20.277  0.00  0.00    +0.000 C 
ENDBRANCH   1  15
TORSDOF 2
ENDMDL
MODEL 8
REMARK VINA RESULT:      -6.4      1.882      5.205
REMARK  Name = 
REMARK  4 active torsions:
REMARK  status: ('A' for Active; 'I' for Inactive)
REMARK    1  A    between atoms: C_1  and  C_2
REMARK    2  A    between atoms: C_2  and  C_3
REMARK    3  A    between atoms: C_5  and  C_6
REMARK    4  A    between atoms: C_14  and  C_15
REMARK                            x       y       z     vdW  Elec       q    Type
REMARK                         _______ _______ _______ _____ _____    ______ ____
ROOT
ATOM      1  C   UNL     1       2.619   5.140  20.195  0.00  0.00    +0.000 A 
ATOM      2  O   UNL     1       3.806   5.575  19.701  0.00  0.00    +0.000 OA
ATOM      3  C   UNL     1       4.563   4.485  19.365  0.00  0.00    +0.000 A 
ATOM      4  C   UNL     1       3.848   3.345  19.670  0.00  0.00    +0.000 A 
ATOM      5  C   UNL     1       2.584   3.758  20.182  0.00  0.00    +0.000 A 
ATOM      6  C   UNL     1       1.447   2.883  20.554  0.00  0.00    +0.000 C 
ENDROOT
BRANCH   3   7
ATOM      7  C   UNL     1       5.877   4.644  18.731  0.00  0.00    +0.000 C 
ATOM      8  O   UNL     1       6.871   4.928  19.395  0.00  0.00    +0.000 OA
ATOM      9  N   UNL     1       5.965   4.475  17.359  0.00  0.00    +0.000 N 
ATOM     10  C   UNL     1       7.222   4.538  16.642  0.00  0.00    +0.000 C 
ATOM     11  C   UNL     1       6.811   4.980  15.248  0.00  0.00    +0.000 C 
ATOM     12  C   UNL     1       5.454   4.319  15.044  0.00  0.00    +0.000 C 
ATOM     13  C   UNL     1       4.876   4.175  16.444  0.00  0.00    +0.000 C 
ENDBRANCH   3   7
BRANCH   1  15
ATOM     14  C   UNL     1       1.998   7.558  19.980  0.00  0.00    +0.000 C 
ATOM     15  C   UNL     1       1.637   6.199  20.552  0.00  0.00    +0.000 C 
ENDBRANCH   1  15
TORSDOF 2
ENDMDL
MODEL 9
REMARK VINA RESULT:      -6.3      1.509      2.767
REMARK  Name = 
REMARK  4 active torsions:
REMARK  status: ('A' for Active; 'I' for Inactive)
REMARK    1  A    between atoms: C_1  and  C_2
REMARK    2  A    between atoms: C_2  and  C_3
REMARK    3  A    between atoms: C_5  and  C_6
REMARK    4  A    between atoms: C_14  and  C_15
REMARK                            x       y       z     vdW  Elec       q    Type
REMARK                         _______ _______ _______ _____ _____    ______ ____
ROOT
ATOM      1  C   UNL     1       6.192   4.730  17.070  0.00  0.00    +0.000 A 
ATOM      2  O   UNL     1       4.901   4.311  17.056  0.00  0.00    +0.000 OA
ATOM      3  C   UNL     1       4.291   4.746  18.202  0.00  0.00    +0.000 A 
ATOM      4  C   UNL     1       5.218   5.435  18.957  0.00  0.00    +0.000 A 
ATOM      5  C   UNL     1       6.439   5.452  18.223  0.00  0.00    +0.000 A 
ATOM      6  C   UNL     1       7.689   6.156  18.593  0.00  0.00    +0.000 C 
ENDROOT
BRANCH   3   7
ATOM      7  C   UNL     1       2.862   4.507  18.434  0.00  0.00    +0.000 C 
ATOM      8  O   UNL     1       2.007   5.044  17.734  0.00  0.00    +0.000 OA
ATOM      9  N   UNL     1       2.500   3.664  19.472  0.00  0.00    +0.000 N 
ATOM     10  C   UNL     1       1.124   3.302  19.743  0.00  0.00    +0.000 C 
ATOM     11  C   UNL     1       1.126   2.997  21.231  0.00  0.00    +0.000 C 
ATOM     12  C   UNL     1       2.498   2.381  21.472  0.00  0.00    +0.000 C 
ATOM     13  C   UNL     1       3.391   2.990  20.401  0.00  0.00    +0.000 C 
ENDBRANCH   3   7
BRANCH   1  15
ATOM     14  C   UNL     1       6.137   3.998  14.673  0.00  0.00    +0.000 C 
ATOM     15  C   UNL     1       6.994   4.402  15.861  0.00  0.00    +0.000 C 
ENDBRANCH   1  15
TORSDOF 2
ENDMDL
