MODEL 1
REMARK VINA RESULT:      -8.3      0.000      0.000
REMARK  Name = 
REMARK  11 active torsions:
REMARK  status: ('A' for Active; 'I' for Inactive)
REMARK    1  A    between atoms: C_1  and  C_2
REMARK    2  A    between atoms: C_2  and  C_3
REMARK    3  A    between atoms: C_3  and  C_4
REMARK    4  A    between atoms: N_6  and  C_7
REMARK    5  A    between atoms: C_12  and  C_13
REMARK    6  A    between atoms: N_16  and  C_17
REMARK    7  A    between atoms: C_17  and  C_18
REMARK    8  A    between atoms: N_20  and  C_21
REMARK    9  A    between atoms: C_24  and  O_25
REMARK   10  A    between atoms: O_25  and  C_26
REMARK   11  A    between atoms: C_26  and  C_27
REMARK                            x       y       z     vdW  Elec       q    Type
REMARK                         _______ _______ _______ _____ _____    ______ ____
ROOT
ATOM      1  C   UNL     1       2.248   6.443  19.776  0.00  0.00    +0.000 A 
ATOM      2  N   UNL     1       1.670   7.269  20.721  0.00  0.00    +0.000 NA
ATOM      3  N   UNL     1       1.539   8.464  20.166  0.00  0.00    +0.000 NA
ATOM      4  N   UNL     1       2.036   8.319  18.929  0.00  0.00    +0.000 N 
ATOM      5  N   UNL     1       2.466   7.082  18.610  0.00  0.00    +0.000 NA
ENDROOT
BRANCH   1  11
ATOM      6  C   UNL     1       3.718   4.398  19.476  0.00  0.00    +0.000 A 
ATOM      7  C   UNL     1       3.992   3.069  19.836  0.00  0.00    +0.000 A 
ATOM      8  C   UNL     1       3.170   2.371  20.722  0.00  0.00    +0.000 A 
ATOM      9  C   UNL     1       2.060   2.994  21.274  0.00  0.00    +0.000 A 
ATOM     10  C   UNL     1       1.781   4.322  20.949  0.00  0.00    +0.000 A 
ATOM     11  C   UNL     1       2.603   5.047  20.058  0.00  0.00    +0.000 A 
BRANCH   6  14
ATOM     12  C   UNL     1       5.855   5.510  18.782  0.00  0.00    +0.000 C 
ATOM     13  O   UNL     1       6.534   5.282  19.779  0.00  0.00    +0.000 OA
ATOM     14  N   UNL     1       4.556   5.089  18.562  0.00  0.00    +0.000 N 
ATOM     15  H   UNL     1       4.192   5.160  17.611  0.00  0.00    +0.000 HD
BRANCH  12  16
ATOM     16  C   UNL     1       6.444   6.292  17.626  0.00  0.00    +0.000 C 
BRANCH  16  18
ATOM     17  C   UNL     1       7.857   8.366  17.718  0.00  0.00    +0.000 C 
ATOM     18  C   UNL     1       7.812   6.868  17.970  0.00  0.00    +0.000 C 
ENDBRANCH  16  18
ENDBRANCH  12  16
ENDBRANCH   6  14
ENDBRANCH   1  11
BRANCH   4  19
ATOM     19  C   UNL     1       2.116   9.439  18.026  0.00  0.00    +0.000 C 
BRANCH  19  20
ATOM     20  C   UNL     1       0.870  10.281  18.117  0.00  0.00    +0.000 C 
ATOM     21  O   UNL     1       0.917  11.427  18.559  0.00  0.00    +0.000 OA
ATOM     22  N   UNL     1      -0.284   9.642  17.680  0.00  0.00    +0.000 N 
ATOM     23  H   UNL     1      -0.283   8.626  17.694  0.00  0.00    +0.000 HD
BRANCH  22  24
ATOM     24  C   UNL     1      -1.552  10.257  17.677  0.00  0.00    +0.000 A 
ATOM     25  C   UNL     1      -2.436  10.159  16.598  0.00  0.00    +0.000 A 
ATOM     26  C   UNL     1      -3.674  10.807  16.647  0.00  0.00    +0.000 A 
ATOM     27  C   UNL     1      -4.037  11.567  17.767  0.00  0.00    +0.000 A 
ATOM     28  C   UNL     1      -3.140  11.670  18.834  0.00  0.00    +0.000 A 
ATOM     29  C   UNL     1      -1.920  10.992  18.806  0.00  0.00    +0.000 A 
BRANCH  27  30
ATOM     30  O   UNL     1      -5.255  12.185  17.692  0.00  0.00    +0.000 OA
BRANCH  30  31
ATOM     31  C   UNL     1      -6.389  11.349  17.929  0.00  0.00    +0.000 C 
ATOM     32  C   UNL     1      -7.031  11.766  19.240  0.00  0.00    +0.000 C 
ENDBRANCH  30  31
ENDBRANCH  27  30
ENDBRANCH  22  24
ENDBRANCH  19  20
ENDBRANCH   4  19
TORSDOF 9
ENDMDL
MODEL 2
REMARK VINA RESULT:      -8.2      2.061      3.792
REMARK  Name = 
REMARK  11 active torsions:
REMARK  status: ('A' for Active; 'I' for Inactive)
REMARK    1  A    between atoms: C_1  and  C_2
REMARK    2  A    between atoms: C_2  and  C_3
REMARK    3  A    between atoms: C_3  and  C_4
REMARK    4  A    between atoms: N_6  and  C_7
REMARK    5  A    between atoms: C_12  and  C_13
REMARK    6  A    between atoms: N_16  and  C_17
REMARK    7  A    between atoms: C_17  and  C_18
REMARK    8  A    between atoms: N_20  and  C_21
REMARK    9  A    between atoms: C_24  and  O_25
REMARK   10  A    between atoms: O_25  and  C_26
REMARK   11  A    between atoms: C_26  and  C_27
REMARK                            x       y       z     vdW  Elec       q    Type
REMARK                         _______ _______ _______ _____ _____    ______ ____
ROOT
ATOM      1  C   UNL     1       3.046   7.250  18.001  0.00  0.00    +0.000 A 
ATOM      2  N   UNL     1       2.602   7.109  19.301  0.00  0.00    +0.000 NA
ATOM      3  N   UNL     1       1.946   8.217  19.612  0.00  0.00    +0.000 NA
ATOM      4  N   UNL     1       2.020   8.974  18.508  0.00  0.00    +0.000 N 
ATOM      5  N   UNL     1       2.663   8.423  17.459  0.00  0.00    +0.000 NA
ENDROOT
BRANCH   1  11
ATOM      6  C   UNL     1       3.781   4.852  17.620  0.00  0.00    +0.000 A 
ATOM      7  C   UNL     1       4.592   3.958  16.902  0.00  0.00    +0.000 A 
ATOM      8  C   UNL     1       5.502   4.410  15.946  0.00  0.00    +0.000 A 
ATOM      9  C   UNL     1       5.614   5.766  15.681  0.00  0.00    +0.000 A 
ATOM     10  C   UNL     1       4.802   6.672  16.365  0.00  0.00    +0.000 A 
ATOM     11  C   UNL     1       3.870   6.236  17.333  0.00  0.00    +0.000 A 
BRANCH   6  14
ATOM     12  C   UNL     1       1.568   3.963  18.390  0.00  0.00    +0.000 C 
ATOM     13  O   UNL     1       1.005   3.854  17.305  0.00  0.00    +0.000 OA
ATOM     14  N   UNL     1       2.870   4.379  18.599  0.00  0.00    +0.000 N 
ATOM     15  H   UNL     1       3.275   4.215  19.522  0.00  0.00    +0.000 HD
BRANCH  12  16
ATOM     16  C   UNL     1       0.837   3.590  19.664  0.00  0.00    +0.000 C 
BRANCH  16  18
ATOM     17  C   UNL     1       2.008   3.030  21.813  0.00  0.00    +0.000 C 
ATOM     18  C   UNL     1       1.579   2.516  20.450  0.00  0.00    +0.000 C 
ENDBRANCH  16  18
ENDBRANCH  12  16
ENDBRANCH   6  14
ENDBRANCH   1  11
BRANCH   4  19
ATOM     19  C   UNL     1       1.459  10.301  18.481  0.00  0.00    +0.000 C 
BRANCH  19  20
ATOM     20  C   UNL     1      -0.005  10.263  18.832  0.00  0.00    +0.000 C 
ATOM     21  O   UNL     1      -0.376   9.889  19.943  0.00  0.00    +0.000 OA
ATOM     22  N   UNL     1      -0.850  10.664  17.804  0.00  0.00    +0.000 N 
ATOM     23  H   UNL     1      -0.491  10.589  16.856  0.00  0.00    +0.000 HD
BRANCH  22  24
ATOM     24  C   UNL     1      -2.253  10.706  17.931  0.00  0.00    +0.000 A 
ATOM     25  C   UNL     1      -3.088   9.717  17.402  0.00  0.00    +0.000 A 
ATOM     26  C   UNL     1      -4.475   9.822  17.544  0.00  0.00    +0.000 A 
ATOM     27  C   UNL     1      -5.042  10.920  18.205  0.00  0.00    +0.000 A 
ATOM     28  C   UNL     1      -4.199  11.910  18.717  0.00  0.00    +0.000 A 
ATOM     29  C   UNL     1      -2.812  11.789  18.612  0.00  0.00    +0.000 A 
BRANCH  27  30
ATOM     30  O   UNL     1      -6.409  10.938  18.255  0.00  0.00    +0.000 OA
BRANCH  30  31
ATOM     31  C   UNL     1      -6.980  11.675  19.337  0.00  0.00    +0.000 C 
ATOM     32  C   UNL     1      -7.447  10.694  20.397  0.00  0.00    +0.000 C 
ENDBRANCH  30  31
ENDBRANCH  27  30
ENDBRANCH  22  24
ENDBRANCH  19  20
ENDBRANCH   4  19
TORSDOF 9
ENDMDL
MODEL 3
REMARK VINA RESULT:      -8.2      3.063      4.746
REMARK  Name = 
REMARK  11 active torsions:
REMARK  status: ('A' for Active; 'I' for Inactive)
REMARK    1  A    between atoms: C_1  and  C_2
REMARK    2  A    between atoms: C_2  and  C_3
REMARK    3  A    between atoms: C_3  and  C_4
REMARK    4  A    between atoms: N_6  and  C_7
REMARK    5  A    between atoms: C_12  and  C_13
REMARK    6  A    between atoms: N_16  and  C_17
REMARK    7  A    between atoms: C_17  and  C_18
REMARK    8  A    between atoms: N_20  and  C_21
REMARK    9  A    between atoms: C_24  and  O_25
REMARK   10  A    between atoms: O_25  and  C_26
REMARK   11  A    between atoms: C_26  and  C_27
REMARK                            x       y       z     vdW  Elec       q    Type
REMARK                         _______ _______ _______ _____ _____    ______ ____
ROOT
ATOM      1  C   UNL     1       3.127   7.292  17.908  0.00  0.00    +0.000 A 
ATOM      2  N   UNL     1       2.663   7.220  19.208  0.00  0.00    +0.000 NA
ATOM      3  N   UNL     1       1.987   8.334  19.443  0.00  0.00    +0.000 NA
ATOM      4  N   UNL     1       2.069   9.027  18.298  0.00  0.00    +0.000 N 
ATOM      5  N   UNL     1       2.737   8.426  17.294  0.00  0.00    +0.000 NA
ENDROOT
BRANCH   1  11
ATOM      6  C   UNL     1       3.889   4.885  17.665  0.00  0.00    +0.000 A 
ATOM      7  C   UNL     1       4.725   3.964  17.015  0.00  0.00    +0.000 A 
ATOM      8  C   UNL     1       5.659   4.376  16.063  0.00  0.00    +0.000 A 
ATOM      9  C   UNL     1       5.769   5.719  15.735  0.00  0.00    +0.000 A 
ATOM     10  C   UNL     1       4.932   6.650  16.352  0.00  0.00    +0.000 A 
ATOM     11  C   UNL     1       3.976   6.254  17.314  0.00  0.00    +0.000 A 
BRANCH   6  14
ATOM     12  C   UNL     1       1.634   4.099  18.426  0.00  0.00    +0.000 C 
ATOM     13  O   UNL     1       1.069   4.021  17.339  0.00  0.00    +0.000 OA
ATOM     14  N   UNL     1       2.954   4.452  18.641  0.00  0.00    +0.000 N 
ATOM     15  H   UNL     1       3.348   4.266  19.564  0.00  0.00    +0.000 HD
BRANCH  12  16
ATOM     16  C   UNL     1       0.883   3.757  19.697  0.00  0.00    +0.000 C 
BRANCH  16  18
ATOM     17  C   UNL     1       1.814   2.910  21.870  0.00  0.00    +0.000 C 
ATOM     18  C   UNL     1       1.506   2.570  20.422  0.00  0.00    +0.000 C 
ENDBRANCH  16  18
ENDBRANCH  12  16
ENDBRANCH   6  14
ENDBRANCH   1  11
BRANCH   4  19
ATOM     19  C   UNL     1       1.490  10.342  18.186  0.00  0.00    +0.000 C 
BRANCH  19  20
ATOM     20  C   UNL     1       0.262  10.455  19.052  0.00  0.00    +0.000 C 
ATOM     21  O   UNL     1      -0.794   9.923  18.717  0.00  0.00    +0.000 OA
ATOM     22  N   UNL     1       0.446  11.203  20.209  0.00  0.00    +0.000 N 
ATOM     23  H   UNL     1       1.202  11.883  20.204  0.00  0.00    +0.000 HD
BRANCH  22  24
ATOM     24  C   UNL     1      -0.575  11.423  21.154  0.00  0.00    +0.000 A 
ATOM     25  C   UNL     1      -1.573  12.386  20.977  0.00  0.00    +0.000 A 
ATOM     26  C   UNL     1      -2.551  12.571  21.960  0.00  0.00    +0.000 A 
ATOM     27  C   UNL     1      -2.534  11.806  23.133  0.00  0.00    +0.000 A 
ATOM     28  C   UNL     1      -1.524  10.855  23.307  0.00  0.00    +0.000 A 
ATOM     29  C   UNL     1      -0.570  10.640  22.310  0.00  0.00    +0.000 A 
BRANCH  27  30
ATOM     30  O   UNL     1      -3.516  12.095  24.040  0.00  0.00    +0.000 OA
BRANCH  30  31
ATOM     31  C   UNL     1      -4.263  13.286  23.786  0.00  0.00    +0.000 C 
ATOM     32  C   UNL     1      -5.742  12.965  23.903  0.00  0.00    +0.000 C 
ENDBRANCH  30  31
ENDBRANCH  27  30
ENDBRANCH  22  24
ENDBRANCH  19  20
ENDBRANCH   4  19
TORSDOF 9
ENDMDL
MODEL 4
REMARK VINA RESULT:      -8.1      1.154      1.537
REMARK  Name = 
REMARK  11 active torsions:
REMARK  status: ('A' for Active; 'I' for Inactive)
REMARK    1  A    between atoms: C_1  and  C_2
REMARK    2  A    between atoms: C_2  and  C_3
REMARK    3  A    between atoms: C_3  and  C_4
REMARK    4  A    between atoms: N_6  and  C_7
REMARK    5  A    between atoms: C_12  and  C_13
REMARK    6  A    between atoms: N_16  and  C_17
REMARK    7  A    between atoms: C_17  and  C_18
REMARK    8  A    between atoms: N_20  and  C_21
REMARK    9  A    between atoms: C_24  and  O_25
REMARK   10  A    between atoms: O_25  and  C_26
REMARK   11  A    between atoms: C_26  and  C_27
REMARK                            x       y       z     vdW  Elec       q    Type
REMARK                         _______ _______ _______ _____ _____    ______ ____
ROOT
ATOM      1  C   UNL     1       2.449   6.415  19.239  0.00  0.00    +0.000 A 
ATOM      2  N   UNL     1       2.537   6.630  17.877  0.00  0.00    +0.000 NA
ATOM      3  N   UNL     1       2.286   7.913  17.667  0.00  0.00    +0.000 NA
ATOM      4  N   UNL     1       2.057   8.417  18.888  0.00  0.00    +0.000 N 
ATOM      5  N   UNL     1       2.172   7.548  19.913  0.00  0.00    +0.000 NA
ENDROOT
BRANCH   1  11
ATOM      6  C   UNL     1       3.641   4.189  19.478  0.00  0.00    +0.000 A 
ATOM      7  C   UNL     1       3.725   2.951  20.136  0.00  0.00    +0.000 A 
ATOM      8  C   UNL     1       2.795   2.580  21.108  0.00  0.00    +0.000 A 
ATOM      9  C   UNL     1       1.765   3.444  21.448  0.00  0.00    +0.000 A 
ATOM     10  C   UNL     1       1.674   4.688  20.823  0.00  0.00    +0.000 A 
ATOM     11  C   UNL     1       2.608   5.087  19.841  0.00  0.00    +0.000 A 
BRANCH   6  14
ATOM     12  C   UNL     1       5.851   5.067  18.686  0.00  0.00    +0.000 C 
ATOM     13  O   UNL     1       6.403   5.231  19.770  0.00  0.00    +0.000 OA
ATOM     14  N   UNL     1       4.586   4.546  18.481  0.00  0.00    +0.000 N 
ATOM     15  H   UNL     1       4.340   4.263  17.532  0.00  0.00    +0.000 HD
BRANCH  12  16
ATOM     16  C   UNL     1       6.579   5.415  17.404  0.00  0.00    +0.000 C 
BRANCH  16  18
ATOM     17  C   UNL     1       5.692   5.212  15.063  0.00  0.00    +0.000 C 
ATOM     18  C   UNL     1       5.637   6.002  16.359  0.00  0.00    +0.000 C 
ENDBRANCH  16  18
ENDBRANCH  12  16
ENDBRANCH   6  14
ENDBRANCH   1  11
BRANCH   4  19
ATOM     19  C   UNL     1       1.689   9.799  19.063  0.00  0.00    +0.000 C 
BRANCH  19  20
ATOM     20  C   UNL     1       0.199   9.930  19.241  0.00  0.00    +0.000 C 
ATOM     21  O   UNL     1      -0.344   9.566  20.283  0.00  0.00    +0.000 OA
ATOM     22  N   UNL     1      -0.463  10.470  18.145  0.00  0.00    +0.000 N 
ATOM     23  H   UNL     1      -0.004  10.386  17.241  0.00  0.00    +0.000 HD
BRANCH  22  24
ATOM     24  C   UNL     1      -1.855  10.682  18.112  0.00  0.00    +0.000 A 
ATOM     25  C   UNL     1      -2.719   9.904  17.334  0.00  0.00    +0.000 A 
ATOM     26  C   UNL     1      -4.091  10.173  17.329  0.00  0.00    +0.000 A 
ATOM     27  C   UNL     1      -4.613  11.227  18.090  0.00  0.00    +0.000 A 
ATOM     28  C   UNL     1      -3.739  12.008  18.853  0.00  0.00    +0.000 A 
ATOM     29  C   UNL     1      -2.374  11.717  18.892  0.00  0.00    +0.000 A 
BRANCH  27  30
ATOM     30  O   UNL     1      -5.962  11.422  17.981  0.00  0.00    +0.000 OA
BRANCH  30  31
ATOM     31  C   UNL     1      -6.782  10.475  18.669  0.00  0.00    +0.000 C 
ATOM     32  C   UNL     1      -7.134  11.040  20.033  0.00  0.00    +0.000 C 
ENDBRANCH  30  31
ENDBRANCH  27  30
ENDBRANCH  22  24
ENDBRANCH  19  20
ENDBRANCH   4  19
TORSDOF 9
ENDMDL
MODEL 5
REMARK VINA RESULT:      -8.1      3.855      5.239
REMARK  Name = 
REMARK  11 active torsions:
REMARK  status: ('A' for Active; 'I' for Inactive)
REMARK    1  A    between atoms: C_1  and  C_2
REMARK    2  A    between atoms: C_2  and  C_3
REMARK    3  A    between atoms: C_3  and  C_4
REMARK    4  A    between atoms: N_6  and  C_7
REMARK    5  A    between atoms: C_12  and  C_13
REMARK    6  A    between atoms: N_16  and  C_17
REMARK    7  A    between atoms: C_17  and  C_18
REMARK    8  A    between atoms: N_20  and  C_21
REMARK    9  A    between atoms: C_24  and  O_25
REMARK   10  A    between atoms: O_25  and  C_26
REMARK   11  A    between atoms: C_26  and  C_27
REMARK                            x       y       z     vdW  Elec       q    Type
REMARK                         _______ _______ _______ _____ _____    ______ ____
ROOT
ATOM      1  C   UNL     1       2.986   6.949  18.550  0.00  0.00    +0.000 A 
ATOM      2  N   UNL     1       2.492   8.192  18.202  0.00  0.00    +0.000 NA
ATOM      3  N   UNL     1       1.740   8.609  19.210  0.00  0.00    +0.000 NA
ATOM      4  N   UNL     1       1.804   7.618  20.112  0.00  0.00    +0.000 N 
ATOM      5  N   UNL     1       2.585   6.571  19.779  0.00  0.00    +0.000 NA
ENDROOT
BRANCH   1  11
ATOM      6  C   UNL     1       3.758   4.735  17.584  0.00  0.00    +0.000 A 
ATOM      7  C   UNL     1       4.572   4.061  16.660  0.00  0.00    +0.000 A 
ATOM      8  C   UNL     1       5.458   4.753  15.832  0.00  0.00    +0.000 A 
ATOM      9  C   UNL     1       5.541   6.135  15.907  0.00  0.00    +0.000 A 
ATOM     10  C   UNL     1       4.724   6.828  16.802  0.00  0.00    +0.000 A 
ATOM     11  C   UNL     1       3.817   6.148  17.644  0.00  0.00    +0.000 A 
BRANCH   6  14
ATOM     12  C   UNL     1       1.527   3.778  18.210  0.00  0.00    +0.000 C 
ATOM     13  O   UNL     1       0.889   4.079  17.206  0.00  0.00    +0.000 OA
ATOM     14  N   UNL     1       2.872   4.016  18.428  0.00  0.00    +0.000 N 
ATOM     15  H   UNL     1       3.319   3.524  19.204  0.00  0.00    +0.000 HD
BRANCH  12  16
ATOM     16  C   UNL     1       0.848   3.043  19.348  0.00  0.00    +0.000 C 
BRANCH  16  18
ATOM     17  C   UNL     1       1.803   2.625  21.633  0.00  0.00    +0.000 C 
ATOM     18  C   UNL     1       1.189   3.656  20.701  0.00  0.00    +0.000 C 
ENDBRANCH  16  18
ENDBRANCH  12  16
ENDBRANCH   6  14
ENDBRANCH   1  11
BRANCH   4  19
ATOM     19  C   UNL     1       1.055   7.686  21.341  0.00  0.00    +0.000 C 
BRANCH  19  20
ATOM     20  C   UNL     1       1.032   9.097  21.868  0.00  0.00    +0.000 C 
ATOM     21  O   UNL     1       1.861   9.473  22.694  0.00  0.00    +0.000 OA
ATOM     22  N   UNL     1       0.009   9.883  21.352  0.00  0.00    +0.000 N 
ATOM     23  H   UNL     1      -0.809   9.398  20.990  0.00  0.00    +0.000 HD
BRANCH  22  24
ATOM     24  C   UNL     1      -0.184  11.232  21.711  0.00  0.00    +0.000 A 
ATOM     25  C   UNL     1      -1.018  11.621  22.764  0.00  0.00    +0.000 A 
ATOM     26  C   UNL     1      -1.183  12.977  23.062  0.00  0.00    +0.000 A 
ATOM     27  C   UNL     1      -0.527  13.957  22.307  0.00  0.00    +0.000 A 
ATOM     28  C   UNL     1       0.295  13.558  21.249  0.00  0.00    +0.000 A 
ATOM     29  C   UNL     1       0.493  12.204  20.973  0.00  0.00    +0.000 A 
BRANCH  27  30
ATOM     30  O   UNL     1      -0.788  15.251  22.665  0.00  0.00    +0.000 OA
BRANCH  30  31
ATOM     31  C   UNL     1      -1.358  16.073  21.644  0.00  0.00    +0.000 C 
ATOM     32  C   UNL     1      -2.863  16.112  21.838  0.00  0.00    +0.000 C 
ENDBRANCH  30  31
ENDBRANCH  27  30
ENDBRANCH  22  24
ENDBRANCH  19  20
ENDBRANCH   4  19
TORSDOF 9
ENDMDL
MODEL 6
REMARK VINA RESULT:      -8.0      2.052      3.860
REMARK  Name = 
REMARK  11 active torsions:
REMARK  status: ('A' for Active; 'I' for Inactive)
REMARK    1  A    between atoms: C_1  and  C_2
REMARK    2  A    between atoms: C_2  and  C_3
REMARK    3  A    between atoms: C_3  and  C_4
REMARK    4  A    between atoms: N_6  and  C_7
REMARK    5  A    between atoms: C_12  and  C_13
REMARK    6  A    between atoms: N_16  and  C_17
REMARK    7  A    between atoms: C_17  and  C_18
REMARK    8  A    between atoms: N_20  and  C_21
REMARK    9  A    between atoms: C_24  and  O_25
REMARK   10  A    between atoms: O_25  and  C_26
REMARK   11  A    between atoms: C_26  and  C_27
REMARK                            x       y       z     vdW  Elec       q    Type
REMARK                         _______ _______ _______ _____ _____    ______ ____
ROOT
ATOM      1  C   UNL     1       2.857   7.323  18.172  0.00  0.00    +0.000 A 
ATOM      2  N   UNL     1       2.412   7.121  19.465  0.00  0.00    +0.000 NA
ATOM      3  N   UNL     1       1.794   8.230  19.842  0.00  0.00    +0.000 NA
ATOM      4  N   UNL     1       1.889   9.047  18.783  0.00  0.00    +0.000 N 
ATOM      5  N   UNL     1       2.510   8.537  17.701  0.00  0.00    +0.000 NA
ENDROOT
BRANCH   1  11
ATOM      6  C   UNL     1       3.463   4.927  17.599  0.00  0.00    +0.000 A 
ATOM      7  C   UNL     1       4.247   4.052  16.831  0.00  0.00    +0.000 A 
ATOM      8  C   UNL     1       5.219   4.529  15.951  0.00  0.00    +0.000 A 
ATOM      9  C   UNL     1       5.421   5.894  15.815  0.00  0.00    +0.000 A 
ATOM     10  C   UNL     1       4.638   6.784  16.551  0.00  0.00    +0.000 A 
ATOM     11  C   UNL     1       3.645   6.323  17.443  0.00  0.00    +0.000 A 
BRANCH   6  14
ATOM     12  C   UNL     1       1.807   3.226  18.403  0.00  0.00    +0.000 C 
ATOM     13  O   UNL     1       1.994   2.350  17.564  0.00  0.00    +0.000 OA
ATOM     14  N   UNL     1       2.487   4.426  18.500  0.00  0.00    +0.000 N 
ATOM     15  H   UNL     1       2.384   4.959  19.365  0.00  0.00    +0.000 HD
BRANCH  12  16
ATOM     16  C   UNL     1       0.771   3.026  19.490  0.00  0.00    +0.000 C 
BRANCH  16  18
ATOM     17  C   UNL     1       2.114   2.769  21.597  0.00  0.00    +0.000 C 
ATOM     18  C   UNL     1       1.192   3.678  20.801  0.00  0.00    +0.000 C 
ENDBRANCH  16  18
ENDBRANCH  12  16
ENDBRANCH   6  14
ENDBRANCH   1  11
BRANCH   4  19
ATOM     19  C   UNL     1       1.372  10.391  18.835  0.00  0.00    +0.000 C 
BRANCH  19  20
ATOM     20  C   UNL     1      -0.134  10.376  18.873  0.00  0.00    +0.000 C 
ATOM     21  O   UNL     1      -0.735   9.674  19.684  0.00  0.00    +0.000 OA
ATOM     22  N   UNL     1      -0.738  11.195  17.926  0.00  0.00    +0.000 N 
ATOM     23  H   UNL     1      -0.193  11.424  17.099  0.00  0.00    +0.000 HD
BRANCH  22  24
ATOM     24  C   UNL     1      -2.135  11.328  17.800  0.00  0.00    +0.000 A 
ATOM     25  C   UNL     1      -2.948  11.783  18.843  0.00  0.00    +0.000 A 
ATOM     26  C   UNL     1      -4.331  11.877  18.663  0.00  0.00    +0.000 A 
ATOM     27  C   UNL     1      -4.918  11.506  17.446  0.00  0.00    +0.000 A 
ATOM     28  C   UNL     1      -4.098  11.039  16.414  0.00  0.00    +0.000 A 
ATOM     29  C   UNL     1      -2.712  10.982  16.577  0.00  0.00    +0.000 A 
BRANCH  27  30
ATOM     30  O   UNL     1      -6.281  11.605  17.393  0.00  0.00    +0.000 OA
BRANCH  30  31
ATOM     31  C   UNL     1      -6.797  12.900  17.080  0.00  0.00    +0.000 C 
ATOM     32  C   UNL     1      -7.702  13.347  18.213  0.00  0.00    +0.000 C 
ENDBRANCH  30  31
ENDBRANCH  27  30
ENDBRANCH  22  24
ENDBRANCH  19  20
ENDBRANCH   4  19
TORSDOF 9
ENDMDL
MODEL 7
REMARK VINA RESULT:      -8.0      2.599      3.234
REMARK  Name = 
REMARK  11 active torsions:
REMARK  status: ('A' for Active; 'I' for Inactive)
REMARK    1  A    between atoms: C_1  and  C_2
REMARK    2  A    between atoms: C_2  and  C_3
REMARK    3  A    between atoms: C_3  and  C_4
REMARK    4  A    between atoms: N_6  and  C_7
REMARK    5  A    between atoms: C_12  and  C_13
REMARK    6  A    between atoms: N_16  and  C_17
REMARK    7  A    between atoms: C_17  and  C_18
REMARK    8  A    between atoms: N_20  and  C_21
REMARK    9  A    between atoms: C_24  and  O_25
REMARK   10  A    between atoms: O_25  and  C_26
REMARK   11  A    between atoms: C_26  and  C_27
REMARK                            x       y       z     vdW  Elec       q    Type
REMARK                         _______ _______ _______ _____ _____    ______ ____
ROOT
ATOM      1  C   UNL     1       2.785   6.635  18.741  0.00  0.00    +0.000 A 
ATOM      2  N   UNL     1       3.336   6.766  17.481  0.00  0.00    +0.000 NA
ATOM      3  N   UNL     1       3.123   8.013  17.089  0.00  0.00    +0.000 NA
ATOM      4  N   UNL     1       2.461   8.579  18.109  0.00  0.00    +0.000 N 
ATOM      5  N   UNL     1       2.244   7.789  19.179  0.00  0.00    +0.000 NA
ENDROOT
BRANCH   1  11
ATOM      6  C   UNL     1       3.803   4.395  19.356  0.00  0.00    +0.000 A 
ATOM      7  C   UNL     1       3.717   3.221  20.122  0.00  0.00    +0.000 A 
ATOM      8  C   UNL     1       2.627   2.978  20.959  0.00  0.00    +0.000 A 
ATOM      9  C   UNL     1       1.604   3.910  21.055  0.00  0.00    +0.000 A 
ATOM     10  C   UNL     1       1.680   5.094  20.321  0.00  0.00    +0.000 A 
ATOM     11  C   UNL     1       2.776   5.363  19.471  0.00  0.00    +0.000 A 
BRANCH   6  14
ATOM     12  C   UNL     1       6.172   5.049  18.867  0.00  0.00    +0.000 C 
ATOM     13  O   UNL     1       6.573   5.227  20.013  0.00  0.00    +0.000 OA
ATOM     14  N   UNL     1       4.910   4.621  18.498  0.00  0.00    +0.000 N 
ATOM     15  H   UNL     1       4.781   4.308  17.535  0.00  0.00    +0.000 HD
BRANCH  12  16
ATOM     16  C   UNL     1       7.106   5.268  17.694  0.00  0.00    +0.000 C 
BRANCH  16  18
ATOM     17  C   UNL     1       7.707   7.705  17.598  0.00  0.00    +0.000 C 
ATOM     18  C   UNL     1       6.847   6.602  17.004  0.00  0.00    +0.000 C 
ENDBRANCH  16  18
ENDBRANCH  12  16
ENDBRANCH   6  14
ENDBRANCH   1  11
BRANCH   4  19
ATOM     19  C   UNL     1       2.000   9.942  18.028  0.00  0.00    +0.000 C 
BRANCH  19  20
ATOM     20  C   UNL     1       0.800  10.148  18.915  0.00  0.00    +0.000 C 
ATOM     21  O   UNL     1      -0.312   9.755  18.569  0.00  0.00    +0.000 OA
ATOM     22  N   UNL     1       1.076  10.812  20.104  0.00  0.00    +0.000 N 
ATOM     23  H   UNL     1       1.904  11.402  20.123  0.00  0.00    +0.000 HD
BRANCH  22  24
ATOM     24  C   UNL     1       0.094  11.098  21.073  0.00  0.00    +0.000 A 
ATOM     25  C   UNL     1      -0.136  10.275  22.181  0.00  0.00    +0.000 A 
ATOM     26  C   UNL     1      -1.138  10.602  23.100  0.00  0.00    +0.000 A 
ATOM     27  C   UNL     1      -1.926  11.746  22.917  0.00  0.00    +0.000 A 
ATOM     28  C   UNL     1      -1.697  12.554  21.800  0.00  0.00    +0.000 A 
ATOM     29  C   UNL     1      -0.672  12.252  20.901  0.00  0.00    +0.000 A 
BRANCH  27  30
ATOM     30  O   UNL     1      -2.899  11.949  23.858  0.00  0.00    +0.000 OA
BRANCH  30  31
ATOM     31  C   UNL     1      -3.537  13.226  23.822  0.00  0.00    +0.000 C 
ATOM     32  C   UNL     1      -4.964  13.040  23.337  0.00  0.00    +0.000 C 
ENDBRANCH  30  31
ENDBRANCH  27  30
ENDBRANCH  22  24
ENDBRANCH  19  20
ENDBRANCH   4  19
TORSDOF 9
ENDMDL
MODEL 8
REMARK VINA RESULT:      -7.9      3.436      5.117
REMARK  Name = 
REMARK  11 active torsions:
REMARK  status: ('A' for Active; 'I' for Inactive)
REMARK    1  A    between atoms: C_1  and  C_2
REMARK    2  A    between atoms: C_2  and  C_3
REMARK    3  A    between atoms: C_3  and  C_4
REMARK    4  A    between atoms: N_6  and  C_7
REMARK    5  A    between atoms: C_12  and  C_13
REMARK    6  A    between atoms: N_16  and  C_17
REMARK    7  A    between atoms: C_17  and  C_18
REMARK    8  A    between atoms: N_20  and  C_21
REMARK    9  A    between atoms: C_24  and  O_25
REMARK   10  A    between atoms: O_25  and  C_26
REMARK   11  A    between atoms: C_26  and  C_27
REMARK                            x       y       z     vdW  Elec       q    Type
REMARK                         _______ _______ _______ _____ _____    ______ ____
ROOT
ATOM      1  C   UNL     1       3.111   7.165  18.043  0.00  0.00    +0.000 A 
ATOM      2  N   UNL     1       2.603   8.279  17.401  0.00  0.00    +0.000 NA
ATOM      3  N   UNL     1       1.866   8.936  18.284  0.00  0.00    +0.000 NA
ATOM      4  N   UNL     1       1.952   8.206  19.406  0.00  0.00    +0.000 N 
ATOM      5  N   UNL     1       2.734   7.111  19.335  0.00  0.00    +0.000 NA
ENDROOT
BRANCH   1  11
ATOM      6  C   UNL     1       3.816   4.771  17.593  0.00  0.00    +0.000 A 
ATOM      7  C   UNL     1       4.625   3.889  16.859  0.00  0.00    +0.000 A 
ATOM      8  C   UNL     1       5.557   4.358  15.932  0.00  0.00    +0.000 A 
ATOM      9  C   UNL     1       5.693   5.721  15.714  0.00  0.00    +0.000 A 
ATOM     10  C   UNL     1       4.883   6.615  16.416  0.00  0.00    +0.000 A 
ATOM     11  C   UNL     1       3.930   6.162  17.355  0.00  0.00    +0.000 A 
BRANCH   6  14
ATOM     12  C   UNL     1       1.555   3.965  18.316  0.00  0.00    +0.000 C 
ATOM     13  O   UNL     1       0.980   3.981  17.232  0.00  0.00    +0.000 OA
ATOM     14  N   UNL     1       2.883   4.279  18.543  0.00  0.00    +0.000 N 
ATOM     15  H   UNL     1       3.283   4.016  19.445  0.00  0.00    +0.000 HD
BRANCH  12  16
ATOM     16  C   UNL     1       0.811   3.538  19.564  0.00  0.00    +0.000 C 
BRANCH  16  18
ATOM     17  C   UNL     1       1.878   2.829  21.724  0.00  0.00    +0.000 C 
ATOM     18  C   UNL     1       1.516   4.005  20.832  0.00  0.00    +0.000 C 
ENDBRANCH  16  18
ENDBRANCH  12  16
ENDBRANCH   6  14
ENDBRANCH   1  11
BRANCH   4  19
ATOM     19  C   UNL     1       1.225   8.582  20.592  0.00  0.00    +0.000 C 
BRANCH  19  20
ATOM     20  C   UNL     1       0.448   9.851  20.355  0.00  0.00    +0.000 C 
ATOM     21  O   UNL     1      -0.774   9.826  20.228  0.00  0.00    +0.000 OA
ATOM     22  N   UNL     1       1.232  10.997  20.287  0.00  0.00    +0.000 N 
ATOM     23  H   UNL     1       2.209  10.873  20.033  0.00  0.00    +0.000 HD
BRANCH  22  24
ATOM     24  C   UNL     1       0.700  12.284  20.078  0.00  0.00    +0.000 A 
ATOM     25  C   UNL     1       0.476  13.187  21.122  0.00  0.00    +0.000 A 
ATOM     26  C   UNL     1      -0.072  14.445  20.854  0.00  0.00    +0.000 A 
ATOM     27  C   UNL     1      -0.411  14.810  19.544  0.00  0.00    +0.000 A 
ATOM     28  C   UNL     1      -0.195  13.895  18.510  0.00  0.00    +0.000 A 
ATOM     29  C   UNL     1       0.388  12.653  18.768  0.00  0.00    +0.000 A 
BRANCH  27  30
ATOM     30  O   UNL     1      -0.972  16.050  19.403  0.00  0.00    +0.000 OA
BRANCH  30  31
ATOM     31  C   UNL     1      -0.457  16.845  18.334  0.00  0.00    +0.000 C 
ATOM     32  C   UNL     1       0.852  17.469  18.783  0.00  0.00    +0.000 C 
ENDBRANCH  30  31
ENDBRANCH  27  30
ENDBRANCH  22  24
ENDBRANCH  19  20
ENDBRANCH   4  19
TORSDOF 9
ENDMDL
MODEL 9
REMARK VINA RESULT:      -7.9      2.660      3.133
REMARK  Name = 
REMARK  11 active torsions:
REMARK  status: ('A' for Active; 'I' for Inactive)
REMARK    1  A    between atoms: C_1  and  C_2
REMARK    2  A    between atoms: C_2  and  C_3
REMARK    3  A    between atoms: C_3  and  C_4
REMARK    4  A    between atoms: N_6  and  C_7
REMARK    5  A    between atoms: C_12  and  C_13
REMARK    6  A    between atoms: N_16  and  C_17
REMARK    7  A    between atoms: C_17  and  C_18
REMARK    8  A    between atoms: N_20  and  C_21
REMARK    9  A    between atoms: C_24  and  O_25
REMARK   10  A    between atoms: O_25  and  C_26
REMARK   11  A    between atoms: C_26  and  C_27
REMARK                            x       y       z     vdW  Elec       q    Type
REMARK                         _______ _______ _______ _____ _____    ______ ____
ROOT
ATOM      1  C   UNL     1       2.239   6.448  18.612  0.00  0.00    +0.000 A 
ATOM      2  N   UNL     1       2.243   6.942  19.903  0.00  0.00    +0.000 NA
ATOM      3  N   UNL     1       2.033   8.246  19.823  0.00  0.00    +0.000 NA
ATOM      4  N   UNL     1       1.914   8.490  18.509  0.00  0.00    +0.000 N 
ATOM      5  N   UNL     1       2.001   7.413  17.702  0.00  0.00    +0.000 NA
ENDROOT
BRANCH   1  11
ATOM      6  C   UNL     1       3.674   4.596  17.641  0.00  0.00    +0.000 A 
ATOM      7  C   UNL     1       3.849   3.221  17.421  0.00  0.00    +0.000 A 
ATOM      8  C   UNL     1       2.880   2.294  17.808  0.00  0.00    +0.000 A 
ATOM      9  C   UNL     1       1.719   2.723  18.432  0.00  0.00    +0.000 A 
ATOM     10  C   UNL     1       1.534   4.084  18.682  0.00  0.00    +0.000 A 
ATOM     11  C   UNL     1       2.504   5.039  18.304  0.00  0.00    +0.000 A 
BRANCH   6  14
ATOM     12  C   UNL     1       5.832   5.846  17.895  0.00  0.00    +0.000 C 
ATOM     13  O   UNL     1       6.255   5.313  18.917  0.00  0.00    +0.000 OA
ATOM     14  N   UNL     1       4.662   5.528  17.229  0.00  0.00    +0.000 N 
ATOM     15  H   UNL     1       4.543   5.894  16.284  0.00  0.00    +0.000 HD
BRANCH  12  16
ATOM     16  C   UNL     1       6.634   6.942  17.224  0.00  0.00    +0.000 C 
BRANCH  16  18
ATOM     17  C   UNL     1       8.117   8.851  17.903  0.00  0.00    +0.000 C 
ATOM     18  C   UNL     1       7.829   7.369  18.068  0.00  0.00    +0.000 C 
ENDBRANCH  16  18
ENDBRANCH  12  16
ENDBRANCH   6  14
ENDBRANCH   1  11
BRANCH   4  19
ATOM     19  C   UNL     1       1.729   9.832  18.018  0.00  0.00    +0.000 C 
BRANCH  19  20
ATOM     20  C   UNL     1       1.180  10.721  19.103  0.00  0.00    +0.000 C 
ATOM     21  O   UNL     1       1.786  11.732  19.453  0.00  0.00    +0.000 OA
ATOM     22  N   UNL     1      -0.021  10.283  19.648  0.00  0.00    +0.000 N 
ATOM     23  H   UNL     1      -0.232   9.292  19.565  0.00  0.00    +0.000 HD
BRANCH  22  24
ATOM     24  C   UNL     1      -0.702  10.975  20.669  0.00  0.00    +0.000 A 
ATOM     25  C   UNL     1      -0.479  10.726  22.027  0.00  0.00    +0.000 A 
ATOM     26  C   UNL     1      -1.198  11.432  22.996  0.00  0.00    +0.000 A 
ATOM     27  C   UNL     1      -2.154  12.385  22.619  0.00  0.00    +0.000 A 
ATOM     28  C   UNL     1      -2.380  12.616  21.259  0.00  0.00    +0.000 A 
ATOM     29  C   UNL     1      -1.635  11.941  20.290  0.00  0.00    +0.000 A 
BRANCH  27  30
ATOM     30  O   UNL     1      -2.823  12.989  23.648  0.00  0.00    +0.000 OA
BRANCH  30  31
ATOM     31  C   UNL     1      -3.941  12.268  24.169  0.00  0.00    +0.000 C 
ATOM     32  C   UNL     1      -5.204  13.057  23.877  0.00  0.00    +0.000 C 
ENDBRANCH  30  31
ENDBRANCH  27  30
ENDBRANCH  22  24
ENDBRANCH  19  20
ENDBRANCH   4  19
TORSDOF 9
ENDMDL
