MODEL 1
REMARK VINA RESULT:      -7.1      0.000      0.000
REMARK  Name = 
REMARK  7 active torsions:
REMARK  status: ('A' for Active; 'I' for Inactive)
REMARK    1  A    between atoms: C_1  and  C_2
REMARK    2  A    between atoms: C_2  and  C_3
REMARK    3  A    between atoms: C_2  and  C_4
REMARK    4  A    between atoms: C_4  and  C_5
REMARK    5  A    between atoms: C_5  and  C_7
REMARK    6  A    between atoms: N_10  and  C_11
REMARK    7  A    between atoms: C_18  and  N_19
REMARK                            x       y       z     vdW  Elec       q    Type
REMARK                         _______ _______ _______ _____ _____    ______ ____
ROOT
ATOM      1  C   UNL     1       5.746   4.622  17.211  0.00  0.00    +0.000 A 
ATOM      2  S   UNL     1       4.202   4.509  16.480  0.00  0.00    +0.000 S 
ATOM      3  C   UNL     1       3.439   4.522  18.029  0.00  0.00    +0.000 A 
ATOM      4  N   UNL     1       2.091   4.511  18.047  0.00  0.00    +0.000 N 
ATOM      5  N   UNL     1       4.269   4.608  19.038  0.00  0.00    +0.000 NA
ATOM      6  C   UNL     1       5.562   4.686  18.578  0.00  0.00    +0.000 A 
ATOM      7  H   UNL     1       1.659   4.427  17.133  0.00  0.00    +0.000 HD
ENDROOT
BRANCH   4   8
ATOM      8  C   UNL     1       1.218   4.065  19.126  0.00  0.00    +0.000 C 
ATOM      9  C   UNL     1       1.187   2.533  19.225  0.00  0.00    +0.000 C 
ATOM     10  C   UNL     1       2.142   1.949  20.258  0.00  0.00    +0.000 C 
ATOM     11  C   UNL     1       1.954   2.614  21.615  0.00  0.00    +0.000 C 
ATOM     12  C   UNL     1       2.203   4.113  21.526  0.00  0.00    +0.000 C 
ATOM     13  C   UNL     1       1.339   4.797  20.466  0.00  0.00    +0.000 C 
ENDBRANCH   4   8
BRANCH   6  14
ATOM     14  N   UNL     1       6.531   4.829  19.494  0.00  0.00    +0.000 N 
ATOM     15  H   UNL     1       6.275   4.752  20.471  0.00  0.00    +0.000 HD
ATOM     16  H   UNL     1       7.320   5.447  19.311  0.00  0.00    +0.000 HD
ENDBRANCH   6  14
BRANCH   1  17
ATOM     17  C   UNL     1       6.984   4.671  16.440  0.00  0.00    +0.000 C 
ATOM     18  O   UNL     1       8.043   4.205  16.876  0.00  0.00    +0.000 OA
BRANCH  17  19
ATOM     19  C   UNL     1       6.970   5.372  15.077  0.00  0.00    +0.000 C 
BRANCH  19  21
ATOM     20  C   UNL     1       6.016   3.779  13.350  0.00  0.00    +0.000 C 
ATOM     21  C   UNL     1       7.283   4.453  13.880  0.00  0.00    +0.000 C 
ATOM     22  C   UNL     1       7.927   5.272  12.755  0.00  0.00    +0.000 C 
ENDBRANCH  19  21
ENDBRANCH  17  19
ENDBRANCH   1  17
TORSDOF 5
ENDMDL
MODEL 2
REMARK VINA RESULT:      -7.0      1.519      2.283
REMARK  Name = 
REMARK  7 active torsions:
REMARK  status: ('A' for Active; 'I' for Inactive)
REMARK    1  A    between atoms: C_1  and  C_2
REMARK    2  A    between atoms: C_2  and  C_3
REMARK    3  A    between atoms: C_2  and  C_4
REMARK    4  A    between atoms: C_4  and  C_5
REMARK    5  A    between atoms: C_5  and  C_7
REMARK    6  A    between atoms: N_10  and  C_11
REMARK    7  A    between atoms: C_18  and  N_19
REMARK                            x       y       z     vdW  Elec       q    Type
REMARK                         _______ _______ _______ _____ _____    ______ ____
ROOT
ATOM      1  C   UNL     1       6.177   4.570  15.951  0.00  0.00    +0.000 A 
ATOM      2  S   UNL     1       4.501   4.842  16.172  0.00  0.00    +0.000 S 
ATOM      3  C   UNL     1       4.697   4.817  17.887  0.00  0.00    +0.000 A 
ATOM      4  N   UNL     1       3.599   5.061  18.632  0.00  0.00    +0.000 N 
ATOM      5  N   UNL     1       5.929   4.623  18.287  0.00  0.00    +0.000 NA
ATOM      6  C   UNL     1       6.763   4.507  17.199  0.00  0.00    +0.000 A 
ATOM      7  H   UNL     1       2.744   5.169  18.098  0.00  0.00    +0.000 HD
ENDROOT
BRANCH   4   8
ATOM      8  C   UNL     1       3.355   4.665  20.013  0.00  0.00    +0.000 C 
ATOM      9  C   UNL     1       2.039   5.253  20.542  0.00  0.00    +0.000 C 
ATOM     10  C   UNL     1       0.847   4.309  20.453  0.00  0.00    +0.000 C 
ATOM     11  C   UNL     1       1.167   2.962  21.087  0.00  0.00    +0.000 C 
ATOM     12  C   UNL     1       2.352   2.303  20.397  0.00  0.00    +0.000 C 
ATOM     13  C   UNL     1       3.594   3.194  20.368  0.00  0.00    +0.000 C 
ENDBRANCH   4   8
BRANCH   6  14
ATOM     14  N   UNL     1       8.072   4.353  17.445  0.00  0.00    +0.000 N 
ATOM     15  H   UNL     1       8.459   3.419  17.390  0.00  0.00    +0.000 HD
ATOM     16  H   UNL     1       8.542   4.967  18.108  0.00  0.00    +0.000 HD
ENDBRANCH   6  14
BRANCH   1  17
ATOM     17  C   UNL     1       6.795   4.474  14.632  0.00  0.00    +0.000 C 
ATOM     18  O   UNL     1       7.595   5.324  14.224  0.00  0.00    +0.000 OA
BRANCH  17  19
ATOM     19  C   UNL     1       6.389   3.314  13.716  0.00  0.00    +0.000 C 
BRANCH  19  21
ATOM     20  C   UNL     1       7.119   2.821  11.338  0.00  0.00    +0.000 C 
ATOM     21  C   UNL     1       6.234   3.693  12.231  0.00  0.00    +0.000 C 
ATOM     22  C   UNL     1       4.770   3.528  11.806  0.00  0.00    +0.000 C 
ENDBRANCH  19  21
ENDBRANCH  17  19
ENDBRANCH   1  17
TORSDOF 5
ENDMDL
MODEL 3
REMARK VINA RESULT:      -6.8      2.301      3.113
REMARK  Name = 
REMARK  7 active torsions:
REMARK  status: ('A' for Active; 'I' for Inactive)
REMARK    1  A    between atoms: C_1  and  C_2
REMARK    2  A    between atoms: C_2  and  C_3
REMARK    3  A    between atoms: C_2  and  C_4
REMARK    4  A    between atoms: C_4  and  C_5
REMARK    5  A    between atoms: C_5  and  C_7
REMARK    6  A    between atoms: N_10  and  C_11
REMARK    7  A    between atoms: C_18  and  N_19
REMARK                            x       y       z     vdW  Elec       q    Type
REMARK                         _______ _______ _______ _____ _____    ______ ____
ROOT
ATOM      1  C   UNL     1       4.655   5.466  16.749  0.00  0.00    +0.000 A 
ATOM      2  S   UNL     1       4.618   3.772  16.503  0.00  0.00    +0.000 S 
ATOM      3  C   UNL     1       3.295   3.616  17.601  0.00  0.00    +0.000 A 
ATOM      4  N   UNL     1       2.773   2.382  17.759  0.00  0.00    +0.000 N 
ATOM      5  N   UNL     1       2.892   4.746  18.125  0.00  0.00    +0.000 NA
ATOM      6  C   UNL     1       3.642   5.787  17.630  0.00  0.00    +0.000 A 
ATOM      7  H   UNL     1       3.265   1.650  17.257  0.00  0.00    +0.000 HD
ENDROOT
BRANCH   4   8
ATOM      8  C   UNL     1       2.015   1.874  18.896  0.00  0.00    +0.000 C 
ATOM      9  C   UNL     1       2.912   1.684  20.128  0.00  0.00    +0.000 C 
ATOM     10  C   UNL     1       2.888   2.849  21.109  0.00  0.00    +0.000 C 
ATOM     11  C   UNL     1       1.461   3.214  21.491  0.00  0.00    +0.000 C 
ATOM     12  C   UNL     1       0.652   3.606  20.264  0.00  0.00    +0.000 C 
ATOM     13  C   UNL     1       0.661   2.530  19.178  0.00  0.00    +0.000 C 
ENDBRANCH   4   8
BRANCH   6  14
ATOM     14  N   UNL     1       3.317   7.023  18.035  0.00  0.00    +0.000 N 
ATOM     15  H   UNL     1       2.610   7.116  18.755  0.00  0.00    +0.000 HD
ATOM     16  H   UNL     1       3.357   7.802  17.381  0.00  0.00    +0.000 HD
ENDBRANCH   6  14
BRANCH   1  17
ATOM     17  C   UNL     1       5.607   6.342  16.073  0.00  0.00    +0.000 C 
ATOM     18  O   UNL     1       5.286   7.014  15.085  0.00  0.00    +0.000 OA
BRANCH  17  19
ATOM     19  C   UNL     1       7.054   6.379  16.576  0.00  0.00    +0.000 C 
BRANCH  19  21
ATOM     20  C   UNL     1       7.918   6.066  18.940  0.00  0.00    +0.000 C 
ATOM     21  C   UNL     1       7.234   7.025  17.963  0.00  0.00    +0.000 C 
ATOM     22  C   UNL     1       8.078   8.300  17.834  0.00  0.00    +0.000 C 
ENDBRANCH  19  21
ENDBRANCH  17  19
ENDBRANCH   1  17
TORSDOF 5
ENDMDL
MODEL 4
REMARK VINA RESULT:      -6.6      0.694      1.052
REMARK  Name = 
REMARK  7 active torsions:
REMARK  status: ('A' for Active; 'I' for Inactive)
REMARK    1  A    between atoms: C_1  and  C_2
REMARK    2  A    between atoms: C_2  and  C_3
REMARK    3  A    between atoms: C_2  and  C_4
REMARK    4  A    between atoms: C_4  and  C_5
REMARK    5  A    between atoms: C_5  and  C_7
REMARK    6  A    between atoms: N_10  and  C_11
REMARK    7  A    between atoms: C_18  and  N_19
REMARK                            x       y       z     vdW  Elec       q    Type
REMARK                         _______ _______ _______ _____ _____    ______ ____
ROOT
ATOM      1  C   UNL     1       5.645   4.960  17.042  0.00  0.00    +0.000 A 
ATOM      2  S   UNL     1       4.128   4.583  16.342  0.00  0.00    +0.000 S 
ATOM      3  C   UNL     1       3.410   4.451  17.906  0.00  0.00    +0.000 A 
ATOM      4  N   UNL     1       2.085   4.202  17.952  0.00  0.00    +0.000 N 
ATOM      5  N   UNL     1       4.234   4.674  18.899  0.00  0.00    +0.000 NA
ATOM      6  C   UNL     1       5.483   4.981  18.413  0.00  0.00    +0.000 A 
ATOM      7  H   UNL     1       1.655   4.049  17.047  0.00  0.00    +0.000 HD
ENDROOT
BRANCH   4   8
ATOM      8  C   UNL     1       1.329   3.602  19.044  0.00  0.00    +0.000 C 
ATOM      9  C   UNL     1       1.774   2.156  19.307  0.00  0.00    +0.000 C 
ATOM     10  C   UNL     1       2.795   2.006  20.427  0.00  0.00    +0.000 C 
ATOM     11  C   UNL     1       2.320   2.698  21.697  0.00  0.00    +0.000 C 
ATOM     12  C   UNL     1       2.090   4.182  21.456  0.00  0.00    +0.000 C 
ATOM     13  C   UNL     1       1.126   4.454  20.300  0.00  0.00    +0.000 C 
ENDBRANCH   4   8
BRANCH   6  14
ATOM     14  N   UNL     1       6.432   5.286  19.310  0.00  0.00    +0.000 N 
ATOM     15  H   UNL     1       7.158   4.601  19.484  0.00  0.00    +0.000 HD
ATOM     16  H   UNL     1       6.208   5.876  20.109  0.00  0.00    +0.000 HD
ENDBRANCH   6  14
BRANCH   1  17
ATOM     17  C   UNL     1       6.837   5.232  16.246  0.00  0.00    +0.000 C 
ATOM     18  O   UNL     1       7.546   6.224  16.452  0.00  0.00    +0.000 OA
BRANCH  17  19
ATOM     19  C   UNL     1       7.178   4.284  15.090  0.00  0.00    +0.000 C 
BRANCH  19  21
ATOM     20  C   UNL     1       7.962   5.427  12.966  0.00  0.00    +0.000 C 
ATOM     21  C   UNL     1       6.772   4.801  13.697  0.00  0.00    +0.000 C 
ATOM     22  C   UNL     1       6.218   3.642  12.858  0.00  0.00    +0.000 C 
ENDBRANCH  19  21
ENDBRANCH  17  19
ENDBRANCH   1  17
TORSDOF 5
ENDMDL
MODEL 5
REMARK VINA RESULT:      -6.5      1.716      2.510
REMARK  Name = 
REMARK  7 active torsions:
REMARK  status: ('A' for Active; 'I' for Inactive)
REMARK    1  A    between atoms: C_1  and  C_2
REMARK    2  A    between atoms: C_2  and  C_3
REMARK    3  A    between atoms: C_2  and  C_4
REMARK    4  A    between atoms: C_4  and  C_5
REMARK    5  A    between atoms: C_5  and  C_7
REMARK    6  A    between atoms: N_10  and  C_11
REMARK    7  A    between atoms: C_18  and  N_19
REMARK                            x       y       z     vdW  Elec       q    Type
REMARK                         _______ _______ _______ _____ _____    ______ ____
ROOT
ATOM      1  C   UNL     1       6.436   4.980  15.329  0.00  0.00    +0.000 A 
ATOM      2  S   UNL     1       5.131   3.909  15.616  0.00  0.00    +0.000 S 
ATOM      3  C   UNL     1       4.979   4.488  17.235  0.00  0.00    +0.000 A 
ATOM      4  N   UNL     1       3.971   3.980  17.974  0.00  0.00    +0.000 N 
ATOM      5  N   UNL     1       5.838   5.423  17.557  0.00  0.00    +0.000 NA
ATOM      6  C   UNL     1       6.641   5.714  16.479  0.00  0.00    +0.000 A 
ATOM      7  H   UNL     1       3.440   3.249  17.514  0.00  0.00    +0.000 HD
ENDROOT
BRANCH   4   8
ATOM      8  C   UNL     1       3.878   3.917  19.428  0.00  0.00    +0.000 C 
ATOM      9  C   UNL     1       3.126   5.130  19.995  0.00  0.00    +0.000 C 
ATOM     10  C   UNL     1       1.647   4.885  20.262  0.00  0.00    +0.000 C 
ATOM     11  C   UNL     1       1.443   3.637  21.110  0.00  0.00    +0.000 C 
ATOM     12  C   UNL     1       2.014   2.409  20.419  0.00  0.00    +0.000 C 
ATOM     13  C   UNL     1       3.487   2.569  20.041  0.00  0.00    +0.000 C 
ENDBRANCH   4   8
BRANCH   6  14
ATOM     14  N   UNL     1       7.544   6.693  16.635  0.00  0.00    +0.000 N 
ATOM     15  H   UNL     1       7.325   7.606  16.255  0.00  0.00    +0.000 HD
ATOM     16  H   UNL     1       8.538   6.472  16.657  0.00  0.00    +0.000 HD
ENDBRANCH   6  14
BRANCH   1  17
ATOM     17  C   UNL     1       7.128   5.057  14.045  0.00  0.00    +0.000 C 
ATOM     18  O   UNL     1       8.321   5.370  13.966  0.00  0.00    +0.000 OA
BRANCH  17  19
ATOM     19  C   UNL     1       6.327   4.795  12.765  0.00  0.00    +0.000 C 
BRANCH  19  21
ATOM     20  C   UNL     1       4.738   3.093  11.760  0.00  0.00    +0.000 C 
ATOM     21  C   UNL     1       6.085   3.305  12.454  0.00  0.00    +0.000 C 
ATOM     22  C   UNL     1       7.207   2.778  11.551  0.00  0.00    +0.000 C 
ENDBRANCH  19  21
ENDBRANCH  17  19
ENDBRANCH   1  17
TORSDOF 5
ENDMDL
MODEL 6
REMARK VINA RESULT:      -6.4      1.300      1.545
REMARK  Name = 
REMARK  7 active torsions:
REMARK  status: ('A' for Active; 'I' for Inactive)
REMARK    1  A    between atoms: C_1  and  C_2
REMARK    2  A    between atoms: C_2  and  C_3
REMARK    3  A    between atoms: C_2  and  C_4
REMARK    4  A    between atoms: C_4  and  C_5
REMARK    5  A    between atoms: C_5  and  C_7
REMARK    6  A    between atoms: N_10  and  C_11
REMARK    7  A    between atoms: C_18  and  N_19
REMARK                            x       y       z     vdW  Elec       q    Type
REMARK                         _______ _______ _______ _____ _____    ______ ____
ROOT
ATOM      1  C   UNL     1       5.507   5.191  16.524  0.00  0.00    +0.000 A 
ATOM      2  S   UNL     1       4.571   3.758  16.504  0.00  0.00    +0.000 S 
ATOM      3  C   UNL     1       3.356   4.507  17.475  0.00  0.00    +0.000 A 
ATOM      4  N   UNL     1       2.252   3.780  17.744  0.00  0.00    +0.000 N 
ATOM      5  N   UNL     1       3.615   5.749  17.800  0.00  0.00    +0.000 NA
ATOM      6  C   UNL     1       4.812   6.139  17.247  0.00  0.00    +0.000 A 
ATOM      7  H   UNL     1       2.282   2.828  17.396  0.00  0.00    +0.000 HD
ENDROOT
BRANCH   4   8
ATOM      8  C   UNL     1       1.325   3.946  18.857  0.00  0.00    +0.000 C 
ATOM      9  C   UNL     1       0.895   2.591  19.436  0.00  0.00    +0.000 C 
ATOM     10  C   UNL     1       1.693   2.145  20.654  0.00  0.00    +0.000 C 
ATOM     11  C   UNL     1       1.727   3.235  21.715  0.00  0.00    +0.000 C 
ATOM     12  C   UNL     1       2.358   4.507  21.170  0.00  0.00    +0.000 C 
ATOM     13  C   UNL     1       1.674   5.013  19.899  0.00  0.00    +0.000 C 
ENDBRANCH   4   8
BRANCH   6  14
ATOM     14  N   UNL     1       5.195   7.409  17.448  0.00  0.00    +0.000 N 
ATOM     15  H   UNL     1       6.120   7.571  17.827  0.00  0.00    +0.000 HD
ATOM     16  H   UNL     1       4.506   8.116  17.698  0.00  0.00    +0.000 HD
ENDBRANCH   6  14
BRANCH   1  17
ATOM     17  C   UNL     1       6.789   5.307  15.835  0.00  0.00    +0.000 C 
ATOM     18  O   UNL     1       7.575   6.231  16.074  0.00  0.00    +0.000 OA
BRANCH  17  19
ATOM     19  C   UNL     1       7.133   4.281  14.750  0.00  0.00    +0.000 C 
BRANCH  19  21
ATOM     20  C   UNL     1       7.870   5.222  12.513  0.00  0.00    +0.000 C 
ATOM     21  C   UNL     1       6.694   4.680  13.328  0.00  0.00    +0.000 C 
ATOM     22  C   UNL     1       6.101   3.462  12.609  0.00  0.00    +0.000 C 
ENDBRANCH  19  21
ENDBRANCH  17  19
ENDBRANCH   1  17
TORSDOF 5
ENDMDL
MODEL 7
REMARK VINA RESULT:      -6.4      2.804      6.661
REMARK  Name = 
REMARK  7 active torsions:
REMARK  status: ('A' for Active; 'I' for Inactive)
REMARK    1  A    between atoms: C_1  and  C_2
REMARK    2  A    between atoms: C_2  and  C_3
REMARK    3  A    between atoms: C_2  and  C_4
REMARK    4  A    between atoms: C_4  and  C_5
REMARK    5  A    between atoms: C_5  and  C_7
REMARK    6  A    between atoms: N_10  and  C_11
REMARK    7  A    between atoms: C_18  and  N_19
REMARK                            x       y       z     vdW  Elec       q    Type
REMARK                         _______ _______ _______ _____ _____    ______ ____
ROOT
ATOM      1  C   UNL     1       2.384   3.236  18.313  0.00  0.00    +0.000 A 
ATOM      2  S   UNL     1       2.694   4.846  17.821  0.00  0.00    +0.000 S 
ATOM      3  C   UNL     1       4.314   4.430  17.393  0.00  0.00    +0.000 A 
ATOM      4  N   UNL     1       5.069   5.402  16.841  0.00  0.00    +0.000 N 
ATOM      5  N   UNL     1       4.620   3.173  17.595  0.00  0.00    +0.000 NA
ATOM      6  C   UNL     1       3.529   2.498  18.091  0.00  0.00    +0.000 A 
ATOM      7  H   UNL     1       4.620   6.310  16.797  0.00  0.00    +0.000 HD
ENDROOT
BRANCH   4   8
ATOM      8  C   UNL     1       6.524   5.491  16.815  0.00  0.00    +0.000 C 
ATOM      9  C   UNL     1       6.993   6.898  16.415  0.00  0.00    +0.000 C 
ATOM     10  C   UNL     1       7.332   7.806  17.590  0.00  0.00    +0.000 C 
ATOM     11  C   UNL     1       8.306   7.127  18.544  0.00  0.00    +0.000 C 
ATOM     12  C   UNL     1       7.720   5.835  19.092  0.00  0.00    +0.000 C 
ATOM     13  C   UNL     1       7.281   4.868  17.992  0.00  0.00    +0.000 C 
ENDBRANCH   4   8
BRANCH   6  14
ATOM     14  N   UNL     1       3.669   1.182  18.306  0.00  0.00    +0.000 N 
ATOM     15  H   UNL     1       3.736   0.861  19.264  0.00  0.00    +0.000 HD
ATOM     16  H   UNL     1       4.169   0.605  17.631  0.00  0.00    +0.000 HD
ENDBRANCH   6  14
BRANCH   1  17
ATOM     17  C   UNL     1       1.090   2.803  18.832  0.00  0.00    +0.000 C 
ATOM     18  O   UNL     1       0.458   1.874  18.315  0.00  0.00    +0.000 OA
BRANCH  17  19
ATOM     19  C   UNL     1       0.483   3.566  20.015  0.00  0.00    +0.000 C 
BRANCH  19  21
ATOM     20  C   UNL     1       2.013   2.137  21.446  0.00  0.00    +0.000 C 
ATOM     21  C   UNL     1       1.302   3.486  21.317  0.00  0.00    +0.000 C 
ATOM     22  C   UNL     1       2.345   4.610  21.341  0.00  0.00    +0.000 C 
ENDBRANCH  19  21
ENDBRANCH  17  19
ENDBRANCH   1  17
TORSDOF 5
ENDMDL
MODEL 8
REMARK VINA RESULT:      -6.4      4.640      7.333
REMARK  Name = 
REMARK  7 active torsions:
REMARK  status: ('A' for Active; 'I' for Inactive)
REMARK    1  A    between atoms: C_1  and  C_2
REMARK    2  A    between atoms: C_2  and  C_3
REMARK    3  A    between atoms: C_2  and  C_4
REMARK    4  A    between atoms: C_4  and  C_5
REMARK    5  A    between atoms: C_5  and  C_7
REMARK    6  A    between atoms: N_10  and  C_11
REMARK    7  A    between atoms: C_18  and  N_19
REMARK                            x       y       z     vdW  Elec       q    Type
REMARK                         _______ _______ _______ _____ _____    ______ ____
ROOT
ATOM      1  C   UNL     1       1.679   8.661  19.270  0.00  0.00    +0.000 A 
ATOM      2  S   UNL     1       2.455   8.249  17.800  0.00  0.00    +0.000 S 
ATOM      3  C   UNL     1       3.021   6.768  18.484  0.00  0.00    +0.000 A 
ATOM      4  N   UNL     1       3.707   5.941  17.668  0.00  0.00    +0.000 N 
ATOM      5  N   UNL     1       2.660   6.576  19.728  0.00  0.00    +0.000 NA
ATOM      6  C   UNL     1       1.889   7.628  20.161  0.00  0.00    +0.000 A 
ATOM      7  H   UNL     1       3.880   6.313  16.741  0.00  0.00    +0.000 HD
ENDROOT
BRANCH   4   8
ATOM      8  C   UNL     1       4.662   4.907  18.049  0.00  0.00    +0.000 C 
ATOM      9  C   UNL     1       5.032   4.018  16.853  0.00  0.00    +0.000 C 
ATOM     10  C   UNL     1       6.318   4.420  16.144  0.00  0.00    +0.000 C 
ATOM     11  C   UNL     1       7.468   4.558  17.132  0.00  0.00    +0.000 C 
ATOM     12  C   UNL     1       7.156   5.607  18.188  0.00  0.00    +0.000 C 
ATOM     13  C   UNL     1       5.843   5.339  18.924  0.00  0.00    +0.000 C 
ENDBRANCH   4   8
BRANCH   6  14
ATOM     14  N   UNL     1       1.398   7.555  21.407  0.00  0.00    +0.000 N 
ATOM     15  H   UNL     1       0.572   8.100  21.624  0.00  0.00    +0.000 HD
ATOM     16  H   UNL     1       2.025   7.407  22.195  0.00  0.00    +0.000 HD
ENDBRANCH   6  14
BRANCH   1  17
ATOM     17  C   UNL     1       0.920   9.895  19.444  0.00  0.00    +0.000 C 
ATOM     18  O   UNL     1       0.920  10.515  20.514  0.00  0.00    +0.000 OA
BRANCH  17  19
ATOM     19  C   UNL     1       0.060  10.397  18.278  0.00  0.00    +0.000 C 
BRANCH  19  21
ATOM     20  C   UNL     1      -2.013  11.678  18.981  0.00  0.00    +0.000 C 
ATOM     21  C   UNL     1      -1.458  10.326  18.525  0.00  0.00    +0.000 C 
ATOM     22  C   UNL     1      -2.172   9.896  17.237  0.00  0.00    +0.000 C 
ENDBRANCH  19  21
ENDBRANCH  17  19
ENDBRANCH   1  17
TORSDOF 5
ENDMDL
MODEL 9
REMARK VINA RESULT:      -6.3      1.333      1.442
REMARK  Name = 
REMARK  7 active torsions:
REMARK  status: ('A' for Active; 'I' for Inactive)
REMARK    1  A    between atoms: C_1  and  C_2
REMARK    2  A    between atoms: C_2  and  C_3
REMARK    3  A    between atoms: C_2  and  C_4
REMARK    4  A    between atoms: C_4  and  C_5
REMARK    5  A    between atoms: C_5  and  C_7
REMARK    6  A    between atoms: N_10  and  C_11
REMARK    7  A    between atoms: C_18  and  N_19
REMARK                            x       y       z     vdW  Elec       q    Type
REMARK                         _______ _______ _______ _____ _____    ______ ____
ROOT
ATOM      1  C   UNL     1       5.526   4.746  16.212  0.00  0.00    +0.000 A 
ATOM      2  S   UNL     1       4.510   3.382  16.411  0.00  0.00    +0.000 S 
ATOM      3  C   UNL     1       3.392   4.319  17.334  0.00  0.00    +0.000 A 
ATOM      4  N   UNL     1       2.263   3.700  17.739  0.00  0.00    +0.000 N 
ATOM      5  N   UNL     1       3.737   5.572  17.490  0.00  0.00    +0.000 NA
ATOM      6  C   UNL     1       4.924   5.817  16.841  0.00  0.00    +0.000 A 
ATOM      7  H   UNL     1       2.221   2.713  17.512  0.00  0.00    +0.000 HD
ENDROOT
BRANCH   4   8
ATOM      8  C   UNL     1       1.406   4.057  18.862  0.00  0.00    +0.000 C 
ATOM      9  C   UNL     1       0.770   2.814  19.501  0.00  0.00    +0.000 C 
ATOM     10  C   UNL     1       1.513   2.284  20.720  0.00  0.00    +0.000 C 
ATOM     11  C   UNL     1       1.755   3.389  21.738  0.00  0.00    +0.000 C 
ATOM     12  C   UNL     1       2.575   4.518  21.131  0.00  0.00    +0.000 C 
ATOM     13  C   UNL     1       1.953   5.086  19.855  0.00  0.00    +0.000 C 
ENDBRANCH   4   8
BRANCH   6  14
ATOM     14  N   UNL     1       5.388   7.075  16.867  0.00  0.00    +0.000 N 
ATOM     15  H   UNL     1       4.863   7.764  17.391  0.00  0.00    +0.000 HD
ATOM     16  H   UNL     1       5.893   7.449  16.065  0.00  0.00    +0.000 HD
ENDBRANCH   6  14
BRANCH   1  17
ATOM     17  C   UNL     1       6.776   4.698  15.459  0.00  0.00    +0.000 C 
ATOM     18  O   UNL     1       7.866   4.525  16.016  0.00  0.00    +0.000 OA
BRANCH  17  19
ATOM     19  C   UNL     1       6.727   4.924  13.943  0.00  0.00    +0.000 C 
BRANCH  19  21
ATOM     20  C   UNL     1       4.919   3.686  12.666  0.00  0.00    +0.000 C 
ATOM     21  C   UNL     1       6.381   3.669  13.119  0.00  0.00    +0.000 C 
ATOM     22  C   UNL     1       7.290   3.594  11.886  0.00  0.00    +0.000 C 
ENDBRANCH  19  21
ENDBRANCH  17  19
ENDBRANCH   1  17
TORSDOF 5
ENDMDL
