MODEL 1
REMARK VINA RESULT:      -5.9      0.000      0.000
REMARK  Name = 
REMARK  6 active torsions:
REMARK  status: ('A' for Active; 'I' for Inactive)
REMARK    1  A    between atoms: C_1  and  O_2
REMARK    2  A    between atoms: O_2  and  C_3
REMARK    3  A    between atoms: C_3  and  C_4
REMARK    4  A    between atoms: C_3  and  C_5
REMARK    5  A    between atoms: C_8  and  C_9
REMARK    6  A    between atoms: N_10  and  O_11
REMARK                            x       y       z     vdW  Elec       q    Type
REMARK                         _______ _______ _______ _____ _____    ______ ____
ROOT
ATOM      1  C   UNL     1       2.824   4.652  18.367  0.00  0.00    +0.000 C 
ATOM      2  C   UNL     1       3.450   3.643  17.729  0.00  0.00    +0.000 C 
ATOM      3  C   UNL     1       4.423   3.889  16.687  0.00  0.00    +0.000 C 
ATOM      4  C   UNL     1       4.923   5.118  16.486  0.00  0.00    +0.000 C 
ATOM      5  C   UNL     1       4.494   6.298  17.307  0.00  0.00    +0.000 C 
ATOM      6  C   UNL     1       3.151   6.092  18.029  0.00  0.00    +0.000 C 
ENDROOT
BRANCH   1   7
ATOM      7  C   UNL     1       1.764   4.413  19.425  0.00  0.00    +0.000 C 
ATOM      8  C   UNL     1       1.911   5.402  20.583  0.00  0.00    +0.000 C 
BRANCH   7  10
ATOM      9  C   UNL     1       1.463   2.825  21.190  0.00  0.00    +0.000 C 
ATOM     10  O   UNL     1       1.903   3.057  19.859  0.00  0.00    +0.000 OA
ENDBRANCH   7  10
ENDBRANCH   1   7
BRANCH   4  11
ATOM     11  C   UNL     1       5.927   5.320  15.415  0.00  0.00    +0.000 C 
ATOM     12  N   UNL     1       7.195   5.430  15.653  0.00  0.00    +0.000 NA
BRANCH  12  13
ATOM     13  O   UNL     1       7.876   5.615  14.445  0.00  0.00    +0.000 OA
ATOM     14  H   UNL     1       7.144   5.667  13.802  0.00  0.00    +0.000 HD
ENDBRANCH  12  13
ENDBRANCH   4  11
TORSDOF 4
ENDMDL
MODEL 2
REMARK VINA RESULT:      -5.6      0.307      1.413
REMARK  Name = 
REMARK  6 active torsions:
REMARK  status: ('A' for Active; 'I' for Inactive)
REMARK    1  A    between atoms: C_1  and  O_2
REMARK    2  A    between atoms: O_2  and  C_3
REMARK    3  A    between atoms: C_3  and  C_4
REMARK    4  A    between atoms: C_3  and  C_5
REMARK    5  A    between atoms: C_8  and  C_9
REMARK    6  A    between atoms: N_10  and  O_11
REMARK                            x       y       z     vdW  Elec       q    Type
REMARK                         _______ _______ _______ _____ _____    ______ ____
ROOT
ATOM      1  C   UNL     1       2.931   4.559  18.551  0.00  0.00    +0.000 C 
ATOM      2  C   UNL     1       3.275   5.820  18.222  0.00  0.00    +0.000 C 
ATOM      3  C   UNL     1       4.334   6.099  17.277  0.00  0.00    +0.000 C 
ATOM      4  C   UNL     1       4.847   5.126  16.509  0.00  0.00    +0.000 C 
ATOM      5  C   UNL     1       4.370   3.706  16.596  0.00  0.00    +0.000 C 
ATOM      6  C   UNL     1       3.634   3.381  17.907  0.00  0.00    +0.000 C 
ENDROOT
BRANCH   1   7
ATOM      7  C   UNL     1       1.859   4.249  19.578  0.00  0.00    +0.000 C 
ATOM      8  C   UNL     1       1.722   5.388  20.590  0.00  0.00    +0.000 C 
BRANCH   7  10
ATOM      9  C   UNL     1       1.801   2.906  21.557  0.00  0.00    +0.000 C 
ATOM     10  O   UNL     1       2.225   3.016  20.206  0.00  0.00    +0.000 OA
ENDBRANCH   7  10
ENDBRANCH   1   7
BRANCH   4  11
ATOM     11  C   UNL     1       5.923   5.460  15.546  0.00  0.00    +0.000 C 
ATOM     12  N   UNL     1       7.145   5.058  15.693  0.00  0.00    +0.000 NA
BRANCH  12  13
ATOM     13  O   UNL     1       7.919   5.538  14.631  0.00  0.00    +0.000 OA
ATOM     14  H   UNL     1       7.299   5.475  13.880  0.00  0.00    +0.000 HD
ENDBRANCH  12  13
ENDBRANCH   4  11
TORSDOF 4
ENDMDL
MODEL 3
REMARK VINA RESULT:      -5.6      2.906      5.535
REMARK  Name = 
REMARK  6 active torsions:
REMARK  status: ('A' for Active; 'I' for Inactive)
REMARK    1  A    between atoms: C_1  and  O_2
REMARK    2  A    between atoms: O_2  and  C_3
REMARK    3  A    between atoms: C_3  and  C_4
REMARK    4  A    between atoms: C_3  and  C_5
REMARK    5  A    between atoms: C_8  and  C_9
REMARK    6  A    between atoms: N_10  and  O_11
REMARK                            x       y       z     vdW  Elec       q    Type
REMARK                         _______ _______ _______ _____ _____    ______ ____
ROOT
ATOM      1  C   UNL     1       6.039   4.882  17.828  0.00  0.00    +0.000 C 
ATOM      2  C   UNL     1       5.403   4.362  16.760  0.00  0.00    +0.000 C 
ATOM      3  C   UNL     1       4.054   3.849  16.853  0.00  0.00    +0.000 C 
ATOM      4  C   UNL     1       3.295   4.094  17.932  0.00  0.00    +0.000 C 
ATOM      5  C   UNL     1       3.802   4.889  19.099  0.00  0.00    +0.000 C 
ATOM      6  C   UNL     1       5.336   4.976  19.167  0.00  0.00    +0.000 C 
ENDROOT
BRANCH   1   7
ATOM      7  C   UNL     1       7.471   5.377  17.762  0.00  0.00    +0.000 C 
ATOM      8  C   UNL     1       7.968   5.805  19.144  0.00  0.00    +0.000 C 
BRANCH   7  10
ATOM      9  C   UNL     1       7.555   7.744  17.424  0.00  0.00    +0.000 C 
ATOM     10  O   UNL     1       7.499   6.457  16.824  0.00  0.00    +0.000 OA
ENDBRANCH   7  10
ENDBRANCH   1   7
BRANCH   4  11
ATOM     11  C   UNL     1       1.914   3.559  17.978  0.00  0.00    +0.000 C 
ATOM     12  N   UNL     1       1.601   2.479  18.620  0.00  0.00    +0.000 NA
BRANCH  12  13
ATOM     13  O   UNL     1       0.232   2.234  18.472  0.00  0.00    +0.000 OA
ATOM     14  H   UNL     1       0.222   1.320  18.131  0.00  0.00    +0.000 HD
ENDBRANCH  12  13
ENDBRANCH   4  11
TORSDOF 4
ENDMDL
MODEL 4
REMARK VINA RESULT:      -5.5      1.080      1.080
REMARK  Name = 
REMARK  6 active torsions:
REMARK  status: ('A' for Active; 'I' for Inactive)
REMARK    1  A    between atoms: C_1  and  O_2
REMARK    2  A    between atoms: O_2  and  C_3
REMARK    3  A    between atoms: C_3  and  C_4
REMARK    4  A    between atoms: C_3  and  C_5
REMARK    5  A    between atoms: C_8  and  C_9
REMARK    6  A    between atoms: N_10  and  O_11
REMARK                            x       y       z     vdW  Elec       q    Type
REMARK                         _______ _______ _______ _____ _____    ______ ____
ROOT
ATOM      1  C   UNL     1       3.206   4.499  19.014  0.00  0.00    +0.000 C 
ATOM      2  C   UNL     1       3.137   3.852  17.834  0.00  0.00    +0.000 C 
ATOM      3  C   UNL     1       4.192   3.949  16.849  0.00  0.00    +0.000 C 
ATOM      4  C   UNL     1       5.384   4.480  17.165  0.00  0.00    +0.000 C 
ATOM      5  C   UNL     1       5.681   5.014  18.535  0.00  0.00    +0.000 C 
ATOM      6  C   UNL     1       4.423   5.333  19.360  0.00  0.00    +0.000 C 
ENDROOT
BRANCH   1   7
ATOM      7  C   UNL     1       2.086   4.450  20.036  0.00  0.00    +0.000 C 
ATOM      8  C   UNL     1       1.753   5.851  20.551  0.00  0.00    +0.000 C 
BRANCH   7  10
ATOM      9  C   UNL     1       1.522   2.672  21.534  0.00  0.00    +0.000 C 
ATOM     10  O   UNL     1       2.518   3.582  21.088  0.00  0.00    +0.000 OA
ENDBRANCH   7  10
ENDBRANCH   1   7
BRANCH   4  11
ATOM     11  C   UNL     1       6.439   4.549  16.126  0.00  0.00    +0.000 C 
ATOM     12  N   UNL     1       6.744   5.645  15.508  0.00  0.00    +0.000 NA
BRANCH  12  13
ATOM     13  O   UNL     1       7.768   5.386  14.591  0.00  0.00    +0.000 OA
ATOM     14  H   UNL     1       7.725   4.416  14.502  0.00  0.00    +0.000 HD
ENDBRANCH  12  13
ENDBRANCH   4  11
TORSDOF 4
ENDMDL
MODEL 5
REMARK VINA RESULT:      -5.5      0.981      1.141
REMARK  Name = 
REMARK  6 active torsions:
REMARK  status: ('A' for Active; 'I' for Inactive)
REMARK    1  A    between atoms: C_1  and  O_2
REMARK    2  A    between atoms: O_2  and  C_3
REMARK    3  A    between atoms: C_3  and  C_4
REMARK    4  A    between atoms: C_3  and  C_5
REMARK    5  A    between atoms: C_8  and  C_9
REMARK    6  A    between atoms: N_10  and  O_11
REMARK                            x       y       z     vdW  Elec       q    Type
REMARK                         _______ _______ _______ _____ _____    ______ ____
ROOT
ATOM      1  C   UNL     1       3.439   4.506  18.396  0.00  0.00    +0.000 C 
ATOM      2  C   UNL     1       3.933   3.545  17.591  0.00  0.00    +0.000 C 
ATOM      3  C   UNL     1       4.766   3.861  16.451  0.00  0.00    +0.000 C 
ATOM      4  C   UNL     1       5.283   5.090  16.293  0.00  0.00    +0.000 C 
ATOM      5  C   UNL     1       5.015   6.199  17.268  0.00  0.00    +0.000 C 
ATOM      6  C   UNL     1       3.774   5.963  18.146  0.00  0.00    +0.000 C 
ENDROOT
BRANCH   1   7
ATOM      7  C   UNL     1       2.523   4.197  19.564  0.00  0.00    +0.000 C 
ATOM      8  C   UNL     1       3.028   2.988  20.354  0.00  0.00    +0.000 C 
BRANCH   7  10
ATOM      9  C   UNL     1       0.759   2.636  19.146  0.00  0.00    +0.000 C 
ATOM     10  O   UNL     1       1.216   3.975  19.024  0.00  0.00    +0.000 OA
ENDBRANCH   7  10
ENDBRANCH   1   7
BRANCH   4  11
ATOM     11  C   UNL     1       6.140   5.365  15.116  0.00  0.00    +0.000 C 
ATOM     12  N   UNL     1       7.433   5.322  15.165  0.00  0.00    +0.000 NA
BRANCH  12  13
ATOM     13  O   UNL     1       7.952   5.631  13.903  0.00  0.00    +0.000 OA
ATOM     14  H   UNL     1       8.617   4.928  13.777  0.00  0.00    +0.000 HD
ENDBRANCH  12  13
ENDBRANCH   4  11
TORSDOF 4
ENDMDL
MODEL 6
REMARK VINA RESULT:      -5.5      1.733      2.344
REMARK  Name = 
REMARK  6 active torsions:
REMARK  status: ('A' for Active; 'I' for Inactive)
REMARK    1  A    between atoms: C_1  and  O_2
REMARK    2  A    between atoms: O_2  and  C_3
REMARK    3  A    between atoms: C_3  and  C_4
REMARK    4  A    between atoms: C_3  and  C_5
REMARK    5  A    between atoms: C_8  and  C_9
REMARK    6  A    between atoms: N_10  and  O_11
REMARK                            x       y       z     vdW  Elec       q    Type
REMARK                         _______ _______ _______ _____ _____    ______ ____
ROOT
ATOM      1  C   UNL     1       5.001   4.298  18.257  0.00  0.00    +0.000 C 
ATOM      2  C   UNL     1       4.318   4.120  17.109  0.00  0.00    +0.000 C 
ATOM      3  C   UNL     1       4.920   4.374  15.818  0.00  0.00    +0.000 C 
ATOM      4  C   UNL     1       6.244   4.554  15.697  0.00  0.00    +0.000 C 
ATOM      5  C   UNL     1       7.164   4.523  16.882  0.00  0.00    +0.000 C 
ATOM      6  C   UNL     1       6.449   4.744  18.226  0.00  0.00    +0.000 C 
ENDROOT
BRANCH   1   7
ATOM      7  C   UNL     1       4.371   4.087  19.620  0.00  0.00    +0.000 C 
ATOM      8  C   UNL     1       3.582   2.777  19.663  0.00  0.00    +0.000 C 
BRANCH   7  10
ATOM      9  C   UNL     1       2.267   4.898  20.419  0.00  0.00    +0.000 C 
ATOM     10  O   UNL     1       3.540   5.222  19.878  0.00  0.00    +0.000 OA
ENDBRANCH   7  10
ENDBRANCH   1   7
BRANCH   4  11
ATOM     11  C   UNL     1       6.817   4.800  14.353  0.00  0.00    +0.000 C 
ATOM     12  N   UNL     1       7.877   5.519  14.163  0.00  0.00    +0.000 NA
BRANCH  12  13
ATOM     13  O   UNL     1       8.163   5.566  12.794  0.00  0.00    +0.000 OA
ATOM     14  H   UNL     1       7.503   6.206  12.468  0.00  0.00    +0.000 HD
ENDBRANCH  12  13
ENDBRANCH   4  11
TORSDOF 4
ENDMDL
MODEL 7
REMARK VINA RESULT:      -5.5      1.388      1.737
REMARK  Name = 
REMARK  6 active torsions:
REMARK  status: ('A' for Active; 'I' for Inactive)
REMARK    1  A    between atoms: C_1  and  O_2
REMARK    2  A    between atoms: O_2  and  C_3
REMARK    3  A    between atoms: C_3  and  C_4
REMARK    4  A    between atoms: C_3  and  C_5
REMARK    5  A    between atoms: C_8  and  C_9
REMARK    6  A    between atoms: N_10  and  O_11
REMARK                            x       y       z     vdW  Elec       q    Type
REMARK                         _______ _______ _______ _____ _____    ______ ____
ROOT
ATOM      1  C   UNL     1       3.924   3.727  18.982  0.00  0.00    +0.000 C 
ATOM      2  C   UNL     1       3.615   3.308  17.739  0.00  0.00    +0.000 C 
ATOM      3  C   UNL     1       4.377   3.726  16.583  0.00  0.00    +0.000 C 
ATOM      4  C   UNL     1       5.562   4.340  16.723  0.00  0.00    +0.000 C 
ATOM      5  C   UNL     1       6.150   4.642  18.070  0.00  0.00    +0.000 C 
ATOM      6  C   UNL     1       5.117   4.634  19.210  0.00  0.00    +0.000 C 
ENDROOT
BRANCH   1   7
ATOM      7  C   UNL     1       3.106   3.341  20.199  0.00  0.00    +0.000 C 
ATOM      8  C   UNL     1       1.894   2.497  19.800  0.00  0.00    +0.000 C 
BRANCH   7  10
ATOM      9  C   UNL     1       1.390   4.968  20.566  0.00  0.00    +0.000 C 
ATOM     10  O   UNL     1       2.720   4.557  20.847  0.00  0.00    +0.000 OA
ENDBRANCH   7  10
ENDBRANCH   1   7
BRANCH   4  11
ATOM     11  C   UNL     1       6.314   4.739  15.510  0.00  0.00    +0.000 C 
ATOM     12  N   UNL     1       7.438   5.379  15.560  0.00  0.00    +0.000 NA
BRANCH  12  13
ATOM     13  O   UNL     1       7.894   5.613  14.258  0.00  0.00    +0.000 OA
ATOM     14  H   UNL     1       8.217   6.532  14.316  0.00  0.00    +0.000 HD
ENDBRANCH  12  13
ENDBRANCH   4  11
TORSDOF 4
ENDMDL
MODEL 8
REMARK VINA RESULT:      -5.5      1.160      1.389
REMARK  Name = 
REMARK  6 active torsions:
REMARK  status: ('A' for Active; 'I' for Inactive)
REMARK    1  A    between atoms: C_1  and  O_2
REMARK    2  A    between atoms: O_2  and  C_3
REMARK    3  A    between atoms: C_3  and  C_4
REMARK    4  A    between atoms: C_3  and  C_5
REMARK    5  A    between atoms: C_8  and  C_9
REMARK    6  A    between atoms: N_10  and  O_11
REMARK                            x       y       z     vdW  Elec       q    Type
REMARK                         _______ _______ _______ _____ _____    ______ ____
ROOT
ATOM      1  C   UNL     1       3.605   4.217  18.081  0.00  0.00    +0.000 C 
ATOM      2  C   UNL     1       4.320   3.286  17.419  0.00  0.00    +0.000 C 
ATOM      3  C   UNL     1       5.151   3.628  16.285  0.00  0.00    +0.000 C 
ATOM      4  C   UNL     1       5.439   4.908  16.002  0.00  0.00    +0.000 C 
ATOM      5  C   UNL     1       4.907   6.046  16.822  0.00  0.00    +0.000 C 
ATOM      6  C   UNL     1       3.679   5.674  17.670  0.00  0.00    +0.000 C 
ENDROOT
BRANCH   1   7
ATOM      7  C   UNL     1       2.689   3.870  19.239  0.00  0.00    +0.000 C 
ATOM      8  C   UNL     1       1.233   3.780  18.778  0.00  0.00    +0.000 C 
BRANCH   7  10
ATOM      9  C   UNL     1       1.664   5.449  20.715  0.00  0.00    +0.000 C 
ATOM     10  O   UNL     1       2.874   4.879  20.236  0.00  0.00    +0.000 OA
ENDBRANCH   7  10
ENDBRANCH   1   7
BRANCH   4  11
ATOM     11  C   UNL     1       6.303   5.210  14.837  0.00  0.00    +0.000 C 
ATOM     12  N   UNL     1       7.574   5.436  14.946  0.00  0.00    +0.000 NA
BRANCH  12  13
ATOM     13  O   UNL     1       8.107   5.692  13.678  0.00  0.00    +0.000 OA
ATOM     14  H   UNL     1       7.918   6.642  13.564  0.00  0.00    +0.000 HD
ENDBRANCH  12  13
ENDBRANCH   4  11
TORSDOF 4
ENDMDL
MODEL 9
REMARK VINA RESULT:      -5.4      1.508      2.061
REMARK  Name = 
REMARK  6 active torsions:
REMARK  status: ('A' for Active; 'I' for Inactive)
REMARK    1  A    between atoms: C_1  and  O_2
REMARK    2  A    between atoms: O_2  and  C_3
REMARK    3  A    between atoms: C_3  and  C_4
REMARK    4  A    between atoms: C_3  and  C_5
REMARK    5  A    between atoms: C_8  and  C_9
REMARK    6  A    between atoms: N_10  and  O_11
REMARK                            x       y       z     vdW  Elec       q    Type
REMARK                         _______ _______ _______ _____ _____    ______ ____
ROOT
ATOM      1  C   UNL     1       4.175   3.690  18.838  0.00  0.00    +0.000 C 
ATOM      2  C   UNL     1       5.263   4.413  19.166  0.00  0.00    +0.000 C 
ATOM      3  C   UNL     1       6.258   4.782  18.182  0.00  0.00    +0.000 C 
ATOM      4  C   UNL     1       6.018   4.636  16.870  0.00  0.00    +0.000 C 
ATOM      5  C   UNL     1       4.727   4.072  16.353  0.00  0.00    +0.000 C 
ATOM      6  C   UNL     1       3.942   3.265  17.402  0.00  0.00    +0.000 C 
ENDROOT
BRANCH   1   7
ATOM      7  C   UNL     1       3.149   3.251  19.864  0.00  0.00    +0.000 C 
ATOM      8  C   UNL     1       2.035   2.431  19.210  0.00  0.00    +0.000 C 
BRANCH   7  10
ATOM      9  C   UNL     1       1.227   4.510  20.533  0.00  0.00    +0.000 C 
ATOM     10  O   UNL     1       2.645   4.436  20.487  0.00  0.00    +0.000 OA
ENDBRANCH   7  10
ENDBRANCH   1   7
BRANCH   4  11
ATOM     11  C   UNL     1       7.062   5.038  15.898  0.00  0.00    +0.000 C 
ATOM     12  N   UNL     1       6.810   5.251  14.646  0.00  0.00    +0.000 NA
BRANCH  12  13
ATOM     13  O   UNL     1       7.994   5.609  13.992  0.00  0.00    +0.000 OA
ATOM     14  H   UNL     1       8.477   6.090  14.690  0.00  0.00    +0.000 HD
ENDBRANCH  12  13
ENDBRANCH   4  11
TORSDOF 4
ENDMDL
