MODEL 1
REMARK VINA RESULT:      -8.6      0.000      0.000
REMARK  Name = 
REMARK  14 active torsions:
REMARK  status: ('A' for Active; 'I' for Inactive)
REMARK    1  A    between atoms: C_1  and  C_2
REMARK    2  A    between atoms: C_2  and  O_3
REMARK    3  A    between atoms: O_3  and  C_4
REMARK    4  A    between atoms: C_7  and  C_8
REMARK    5  A    between atoms: N_10  and  C_11
REMARK    6  A    between atoms: C_13  and  N_14
REMARK    7  A    between atoms: C_15  and  C_17
REMARK    8  A    between atoms: C_21  and  N_22
REMARK    9  A    between atoms: N_22  and  C_23
REMARK   10  A    between atoms: N_22  and  C_24
REMARK   11  A    between atoms: C_28  and  C_29
REMARK   12  A    between atoms: C_31  and  O_32
REMARK   13  A    between atoms: O_32  and  C_33
REMARK   14  A    between atoms: C_33  and  C_34
REMARK                            x       y       z     vdW  Elec       q    Type
REMARK                         _______ _______ _______ _____ _____    ______ ____
ROOT
ATOM      1  C   UNL     1       2.863   4.834  19.760  0.00  0.00    +0.000 A 
ATOM      2  C   UNL     1       3.532   4.810  18.524  0.00  0.00    +0.000 A 
ATOM      3  C   UNL     1       4.107   3.650  17.993  0.00  0.00    +0.000 A 
ATOM      4  C   UNL     1       4.042   2.481  18.744  0.00  0.00    +0.000 A 
ATOM      5  C   UNL     1       3.414   2.484  19.996  0.00  0.00    +0.000 A 
ATOM      6  C   UNL     1       2.795   3.644  20.506  0.00  0.00    +0.000 A 
ATOM      7  C   UNL     1       2.056   3.540  21.813  0.00  0.00    +0.000 C 
ENDROOT
BRANCH   1  10
ATOM      8  C   UNL     1       2.227   7.230  19.551  0.00  0.00    +0.000 C 
ATOM      9  O   UNL     1       2.618   7.415  18.403  0.00  0.00    +0.000 OA
ATOM     10  N   UNL     1       2.264   6.032  20.249  0.00  0.00    +0.000 N 
ATOM     11  H   UNL     1       1.699   5.957  21.083  0.00  0.00    +0.000 HD
BRANCH   8  15
ATOM     12  C   UNL     1       0.353  10.504  21.610  0.00  0.00    +0.000 A 
ATOM     13  C   UNL     1       0.690   9.315  22.265  0.00  0.00    +0.000 A 
ATOM     14  C   UNL     1       1.283   8.270  21.568  0.00  0.00    +0.000 A 
ATOM     15  C   UNL     1       1.534   8.381  20.197  0.00  0.00    +0.000 A 
ATOM     16  C   UNL     1       1.091   9.514  19.511  0.00  0.00    +0.000 A 
ATOM     17  C   UNL     1       0.471  10.568  20.207  0.00  0.00    +0.000 A 
BRANCH  12  18
ATOM     18  O   UNL     1      -0.060  11.613  22.304  0.00  0.00    +0.000 OA
BRANCH  18  20
ATOM     19  C   UNL     1      -1.952  12.858  23.106  0.00  0.00    +0.000 C 
ATOM     20  C   UNL     1      -1.320  11.486  22.976  0.00  0.00    +0.000 C 
ENDBRANCH  18  20
ENDBRANCH  12  18
BRANCH  17  21
ATOM     21  O   UNL     1       0.071  11.595  19.387  0.00  0.00    +0.000 OA
BRANCH  21  22
ATOM     22  C   UNL     1       1.093  12.431  18.839  0.00  0.00    +0.000 C 
ATOM     23  C   UNL     1       1.177  13.701  19.673  0.00  0.00    +0.000 C 
ENDBRANCH  21  22
ENDBRANCH  17  21
ENDBRANCH   8  15
ENDBRANCH   1  10
BRANCH   3  24
ATOM     24  N   UNL     1       4.716   3.611  16.711  0.00  0.00    +0.000 N 
ATOM     25  C   UNL     1       5.870   4.294  16.355  0.00  0.00    +0.000 C 
ATOM     26  O   UNL     1       6.618   4.890  17.128  0.00  0.00    +0.000 OA
ATOM     27  H   UNL     1       4.331   2.960  16.039  0.00  0.00    +0.000 HD
BRANCH  25  28
ATOM     28  C   UNL     1       6.295   4.234  14.930  0.00  0.00    +0.000 A 
ATOM     29  C   UNL     1       7.339   5.088  14.555  0.00  0.00    +0.000 A 
ATOM     30  C   UNL     1       7.753   5.140  13.235  0.00  0.00    +0.000 A 
ATOM     31  C   UNL     1       7.120   4.341  12.282  0.00  0.00    +0.000 A 
ATOM     32  C   UNL     1       6.048   3.485  12.601  0.00  0.00    +0.000 A 
ATOM     33  C   UNL     1       5.652   3.449  13.955  0.00  0.00    +0.000 A 
BRANCH  32  34
ATOM     34  N   UNL     1       5.437   2.718  11.619  0.00  0.00    +0.000 N 
ATOM     35  C   UNL     1       4.105   3.045  11.109  0.00  0.00    +0.000 C 
ATOM     36  C   UNL     1       5.974   1.443  11.164  0.00  0.00    +0.000 C 
ENDBRANCH  32  34
ENDBRANCH  25  28
ENDBRANCH   3  24
TORSDOF 9
ENDMDL
MODEL 2
REMARK VINA RESULT:      -8.2      1.065      2.022
REMARK  Name = 
REMARK  14 active torsions:
REMARK  status: ('A' for Active; 'I' for Inactive)
REMARK    1  A    between atoms: C_1  and  C_2
REMARK    2  A    between atoms: C_2  and  O_3
REMARK    3  A    between atoms: O_3  and  C_4
REMARK    4  A    between atoms: C_7  and  C_8
REMARK    5  A    between atoms: N_10  and  C_11
REMARK    6  A    between atoms: C_13  and  N_14
REMARK    7  A    between atoms: C_15  and  C_17
REMARK    8  A    between atoms: C_21  and  N_22
REMARK    9  A    between atoms: N_22  and  C_23
REMARK   10  A    between atoms: N_22  and  C_24
REMARK   11  A    between atoms: C_28  and  C_29
REMARK   12  A    between atoms: C_31  and  O_32
REMARK   13  A    between atoms: O_32  and  C_33
REMARK   14  A    between atoms: C_33  and  C_34
REMARK                            x       y       z     vdW  Elec       q    Type
REMARK                         _______ _______ _______ _____ _____    ______ ____
ROOT
ATOM      1  C   UNL     1       2.749   5.573  19.187  0.00  0.00    +0.000 A 
ATOM      2  C   UNL     1       3.426   5.396  17.968  0.00  0.00    +0.000 A 
ATOM      3  C   UNL     1       4.157   4.242  17.665  0.00  0.00    +0.000 A 
ATOM      4  C   UNL     1       4.245   3.247  18.633  0.00  0.00    +0.000 A 
ATOM      5  C   UNL     1       3.611   3.412  19.871  0.00  0.00    +0.000 A 
ATOM      6  C   UNL     1       2.835   4.556  20.154  0.00  0.00    +0.000 A 
ATOM      7  C   UNL     1       2.106   4.615  21.469  0.00  0.00    +0.000 C 
ENDROOT
BRANCH   1  10
ATOM      8  C   UNL     1       2.212   7.976  18.825  0.00  0.00    +0.000 C 
ATOM      9  O   UNL     1       3.019   8.203  17.931  0.00  0.00    +0.000 OA
ATOM     10  N   UNL     1       1.989   6.753  19.441  0.00  0.00    +0.000 N 
ATOM     11  H   UNL     1       1.143   6.648  19.983  0.00  0.00    +0.000 HD
BRANCH   8  15
ATOM     12  C   UNL     1      -0.550  11.154  19.689  0.00  0.00    +0.000 A 
ATOM     13  C   UNL     1      -0.310  10.719  18.381  0.00  0.00    +0.000 A 
ATOM     14  C   UNL     1       0.600   9.698  18.134  0.00  0.00    +0.000 A 
ATOM     15  C   UNL     1       1.304   9.103  19.185  0.00  0.00    +0.000 A 
ATOM     16  C   UNL     1       1.162   9.611  20.478  0.00  0.00    +0.000 A 
ATOM     17  C   UNL     1       0.258  10.660  20.732  0.00  0.00    +0.000 A 
BRANCH  12  18
ATOM     18  O   UNL     1      -1.569  12.025  19.978  0.00  0.00    +0.000 OA
BRANCH  18  20
ATOM     19  C   UNL     1      -1.330  14.172  21.030  0.00  0.00    +0.000 C 
ATOM     20  C   UNL     1      -1.291  13.407  19.721  0.00  0.00    +0.000 C 
ENDBRANCH  18  20
ENDBRANCH  12  18
BRANCH  17  21
ATOM     21  O   UNL     1       0.255  11.063  22.046  0.00  0.00    +0.000 OA
BRANCH  21  22
ATOM     22  C   UNL     1      -0.639  10.390  22.935  0.00  0.00    +0.000 C 
ATOM     23  C   UNL     1      -1.785  11.332  23.273  0.00  0.00    +0.000 C 
ENDBRANCH  21  22
ENDBRANCH  17  21
ENDBRANCH   8  15
ENDBRANCH   1  10
BRANCH   3  24
ATOM     24  N   UNL     1       4.777   4.032  16.406  0.00  0.00    +0.000 N 
ATOM     25  C   UNL     1       5.879   4.730  15.934  0.00  0.00    +0.000 C 
ATOM     26  O   UNL     1       6.575   5.502  16.590  0.00  0.00    +0.000 OA
ATOM     27  H   UNL     1       4.446   3.250  15.856  0.00  0.00    +0.000 HD
BRANCH  25  28
ATOM     28  C   UNL     1       6.318   4.463  14.537  0.00  0.00    +0.000 A 
ATOM     29  C   UNL     1       7.404   5.213  14.071  0.00  0.00    +0.000 A 
ATOM     30  C   UNL     1       7.836   5.070  12.763  0.00  0.00    +0.000 A 
ATOM     31  C   UNL     1       7.179   4.179  11.913  0.00  0.00    +0.000 A 
ATOM     32  C   UNL     1       6.065   3.420  12.323  0.00  0.00    +0.000 A 
ATOM     33  C   UNL     1       5.653   3.583  13.664  0.00  0.00    +0.000 A 
BRANCH  32  34
ATOM     34  N   UNL     1       5.433   2.556  11.442  0.00  0.00    +0.000 N 
ATOM     35  C   UNL     1       4.067   2.801  10.976  0.00  0.00    +0.000 C 
ATOM     36  C   UNL     1       5.988   1.263  11.066  0.00  0.00    +0.000 C 
ENDBRANCH  32  34
ENDBRANCH  25  28
ENDBRANCH   3  24
TORSDOF 9
ENDMDL
MODEL 3
REMARK VINA RESULT:      -8.1      3.826      6.869
REMARK  Name = 
REMARK  14 active torsions:
REMARK  status: ('A' for Active; 'I' for Inactive)
REMARK    1  A    between atoms: C_1  and  C_2
REMARK    2  A    between atoms: C_2  and  O_3
REMARK    3  A    between atoms: O_3  and  C_4
REMARK    4  A    between atoms: C_7  and  C_8
REMARK    5  A    between atoms: N_10  and  C_11
REMARK    6  A    between atoms: C_13  and  N_14
REMARK    7  A    between atoms: C_15  and  C_17
REMARK    8  A    between atoms: C_21  and  N_22
REMARK    9  A    between atoms: N_22  and  C_23
REMARK   10  A    between atoms: N_22  and  C_24
REMARK   11  A    between atoms: C_28  and  C_29
REMARK   12  A    between atoms: C_31  and  O_32
REMARK   13  A    between atoms: O_32  and  C_33
REMARK   14  A    between atoms: C_33  and  C_34
REMARK                            x       y       z     vdW  Elec       q    Type
REMARK                         _______ _______ _______ _____ _____    ______ ____
ROOT
ATOM      1  C   UNL     1       0.061  11.402  19.010  0.00  0.00    +0.000 A 
ATOM      2  C   UNL     1       0.407  10.107  18.583  0.00  0.00    +0.000 A 
ATOM      3  C   UNL     1       1.660   9.795  18.045  0.00  0.00    +0.000 A 
ATOM      4  C   UNL     1       2.585  10.823  17.893  0.00  0.00    +0.000 A 
ATOM      5  C   UNL     1       2.255  12.129  18.275  0.00  0.00    +0.000 A 
ATOM      6  C   UNL     1       1.008  12.430  18.862  0.00  0.00    +0.000 A 
ATOM      7  C   UNL     1       0.766  13.838  19.336  0.00  0.00    +0.000 C 
ENDROOT
BRANCH   1  10
ATOM      8  C   UNL     1      -2.369  11.914  18.849  0.00  0.00    +0.000 C 
ATOM      9  O   UNL     1      -2.480  11.856  17.629  0.00  0.00    +0.000 OA
ATOM     10  N   UNL     1      -1.218  11.669  19.583  0.00  0.00    +0.000 N 
ATOM     11  H   UNL     1      -1.318  11.516  20.576  0.00  0.00    +0.000 HD
BRANCH   8  15
ATOM     12  C   UNL     1      -5.894  12.753  21.159  0.00  0.00    +0.000 A 
ATOM     13  C   UNL     1      -4.614  12.805  21.720  0.00  0.00    +0.000 A 
ATOM     14  C   UNL     1      -3.495  12.515  20.950  0.00  0.00    +0.000 A 
ATOM     15  C   UNL     1      -3.631  12.147  19.608  0.00  0.00    +0.000 A 
ATOM     16  C   UNL     1      -4.909  11.975  19.072  0.00  0.00    +0.000 A 
ATOM     17  C   UNL     1      -6.048  12.247  19.854  0.00  0.00    +0.000 A 
BRANCH  12  18
ATOM     18  O   UNL     1      -6.994  13.210  21.840  0.00  0.00    +0.000 OA
BRANCH  18  20
ATOM     19  C   UNL     1      -7.556  13.527  24.155  0.00  0.00    +0.000 C 
ATOM     20  C   UNL     1      -6.716  14.017  22.992  0.00  0.00    +0.000 C 
ENDBRANCH  18  20
ENDBRANCH  12  18
BRANCH  17  21
ATOM     21  O   UNL     1      -7.228  12.003  19.192  0.00  0.00    +0.000 OA
BRANCH  21  22
ATOM     22  C   UNL     1      -7.440  12.693  17.958  0.00  0.00    +0.000 C 
ATOM     23  C   UNL     1      -7.909  14.107  18.270  0.00  0.00    +0.000 C 
ENDBRANCH  21  22
ENDBRANCH  17  21
ENDBRANCH   8  15
ENDBRANCH   1  10
BRANCH   3  24
ATOM     24  N   UNL     1       2.034   8.474  17.684  0.00  0.00    +0.000 N 
ATOM     25  C   UNL     1       2.434   7.487  18.573  0.00  0.00    +0.000 C 
ATOM     26  O   UNL     1       2.362   7.554  19.799  0.00  0.00    +0.000 OA
ATOM     27  H   UNL     1       1.907   8.209  16.716  0.00  0.00    +0.000 HD
BRANCH  25  28
ATOM     28  C   UNL     1       2.911   6.197  18.004  0.00  0.00    +0.000 A 
ATOM     29  C   UNL     1       2.024   5.117  18.079  0.00  0.00    +0.000 A 
ATOM     30  C   UNL     1       2.413   3.867  17.629  0.00  0.00    +0.000 A 
ATOM     31  C   UNL     1       3.695   3.690  17.106  0.00  0.00    +0.000 A 
ATOM     32  C   UNL     1       4.635   4.737  17.033  0.00  0.00    +0.000 A 
ATOM     33  C   UNL     1       4.207   6.001  17.494  0.00  0.00    +0.000 A 
BRANCH  32  34
ATOM     34  N   UNL     1       5.904   4.515  16.520  0.00  0.00    +0.000 N 
ATOM     35  C   UNL     1       6.103   3.976  15.174  0.00  0.00    +0.000 C 
ATOM     36  C   UNL     1       7.112   4.613  17.327  0.00  0.00    +0.000 C 
ENDBRANCH  32  34
ENDBRANCH  25  28
ENDBRANCH   3  24
TORSDOF 9
ENDMDL
MODEL 4
REMARK VINA RESULT:      -8.0      1.188      1.547
REMARK  Name = 
REMARK  14 active torsions:
REMARK  status: ('A' for Active; 'I' for Inactive)
REMARK    1  A    between atoms: C_1  and  C_2
REMARK    2  A    between atoms: C_2  and  O_3
REMARK    3  A    between atoms: O_3  and  C_4
REMARK    4  A    between atoms: C_7  and  C_8
REMARK    5  A    between atoms: N_10  and  C_11
REMARK    6  A    between atoms: C_13  and  N_14
REMARK    7  A    between atoms: C_15  and  C_17
REMARK    8  A    between atoms: C_21  and  N_22
REMARK    9  A    between atoms: N_22  and  C_23
REMARK   10  A    between atoms: N_22  and  C_24
REMARK   11  A    between atoms: C_28  and  C_29
REMARK   12  A    between atoms: C_31  and  O_32
REMARK   13  A    between atoms: O_32  and  C_33
REMARK   14  A    between atoms: C_33  and  C_34
REMARK                            x       y       z     vdW  Elec       q    Type
REMARK                         _______ _______ _______ _____ _____    ______ ____
ROOT
ATOM      1  C   UNL     1       2.779   5.247  19.422  0.00  0.00    +0.000 A 
ATOM      2  C   UNL     1       3.439   5.131  18.186  0.00  0.00    +0.000 A 
ATOM      3  C   UNL     1       4.180   4.002  17.823  0.00  0.00    +0.000 A 
ATOM      4  C   UNL     1       4.296   2.968  18.746  0.00  0.00    +0.000 A 
ATOM      5  C   UNL     1       3.680   3.071  19.999  0.00  0.00    +0.000 A 
ATOM      6  C   UNL     1       2.894   4.191  20.343  0.00  0.00    +0.000 A 
ATOM      7  C   UNL     1       2.185   4.183  21.670  0.00  0.00    +0.000 C 
ENDROOT
BRANCH   1  10
ATOM      8  C   UNL     1       2.204   7.655  19.172  0.00  0.00    +0.000 C 
ATOM      9  O   UNL     1       2.994   7.931  18.275  0.00  0.00    +0.000 OA
ATOM     10  N   UNL     1       2.007   6.405  19.738  0.00  0.00    +0.000 N 
ATOM     11  H   UNL     1       1.172   6.264  20.288  0.00  0.00    +0.000 HD
BRANCH   8  15
ATOM     12  C   UNL     1      -0.330  10.819  20.599  0.00  0.00    +0.000 A 
ATOM     13  C   UNL     1       0.105   9.787  21.436  0.00  0.00    +0.000 A 
ATOM     14  C   UNL     1       0.913   8.771  20.941  0.00  0.00    +0.000 A 
ATOM     15  C   UNL     1       1.287   8.753  19.594  0.00  0.00    +0.000 A 
ATOM     16  C   UNL     1       0.760   9.710  18.725  0.00  0.00    +0.000 A 
ATOM     17  C   UNL     1      -0.076  10.730  19.216  0.00  0.00    +0.000 A 
BRANCH  12  18
ATOM     18  O   UNL     1      -0.970  11.925  21.098  0.00  0.00    +0.000 OA
BRANCH  18  20
ATOM     19  C   UNL     1       0.728  13.594  21.416  0.00  0.00    +0.000 C 
ATOM     20  C   UNL     1      -0.249  12.657  22.098  0.00  0.00    +0.000 C 
ENDBRANCH  18  20
ENDBRANCH  12  18
BRANCH  17  21
ATOM     21  O   UNL     1      -0.532  11.574  18.232  0.00  0.00    +0.000 OA
BRANCH  21  22
ATOM     22  C   UNL     1      -1.920  11.498  17.896  0.00  0.00    +0.000 C 
ATOM     23  C   UNL     1      -2.131  10.297  16.987  0.00  0.00    +0.000 C 
ENDBRANCH  21  22
ENDBRANCH  17  21
ENDBRANCH   8  15
ENDBRANCH   1  10
BRANCH   3  24
ATOM     24  N   UNL     1       4.783   3.855  16.546  0.00  0.00    +0.000 N 
ATOM     25  C   UNL     1       5.899   4.551  16.107  0.00  0.00    +0.000 C 
ATOM     26  O   UNL     1       6.622   5.262  16.803  0.00  0.00    +0.000 OA
ATOM     27  H   UNL     1       4.426   3.118  15.952  0.00  0.00    +0.000 HD
BRANCH  25  28
ATOM     28  C   UNL     1       6.318   4.360  14.691  0.00  0.00    +0.000 A 
ATOM     29  C   UNL     1       7.367   5.168  14.237  0.00  0.00    +0.000 A 
ATOM     30  C   UNL     1       7.776   5.097  12.917  0.00  0.00    +0.000 A 
ATOM     31  C   UNL     1       7.134   4.220  12.042  0.00  0.00    +0.000 A 
ATOM     32  C   UNL     1       6.056   3.405  12.440  0.00  0.00    +0.000 A 
ATOM     33  C   UNL     1       5.666   3.495  13.793  0.00  0.00    +0.000 A 
BRANCH  32  34
ATOM     34  N   UNL     1       5.436   2.558  11.534  0.00  0.00    +0.000 N 
ATOM     35  C   UNL     1       6.113   1.373  11.005  0.00  0.00    +0.000 C 
ATOM     36  C   UNL     1       4.164   2.873  10.899  0.00  0.00    +0.000 C 
ENDBRANCH  32  34
ENDBRANCH  25  28
ENDBRANCH   3  24
TORSDOF 9
ENDMDL
MODEL 5
REMARK VINA RESULT:      -7.9      1.981      2.794
REMARK  Name = 
REMARK  14 active torsions:
REMARK  status: ('A' for Active; 'I' for Inactive)
REMARK    1  A    between atoms: C_1  and  C_2
REMARK    2  A    between atoms: C_2  and  O_3
REMARK    3  A    between atoms: O_3  and  C_4
REMARK    4  A    between atoms: C_7  and  C_8
REMARK    5  A    between atoms: N_10  and  C_11
REMARK    6  A    between atoms: C_13  and  N_14
REMARK    7  A    between atoms: C_15  and  C_17
REMARK    8  A    between atoms: C_21  and  N_22
REMARK    9  A    between atoms: N_22  and  C_23
REMARK   10  A    between atoms: N_22  and  C_24
REMARK   11  A    between atoms: C_28  and  C_29
REMARK   12  A    between atoms: C_31  and  O_32
REMARK   13  A    between atoms: O_32  and  C_33
REMARK   14  A    between atoms: C_33  and  C_34
REMARK                            x       y       z     vdW  Elec       q    Type
REMARK                         _______ _______ _______ _____ _____    ______ ____
ROOT
ATOM      1  C   UNL     1       2.618   6.519  18.884  0.00  0.00    +0.000 A 
ATOM      2  C   UNL     1       3.356   6.173  17.738  0.00  0.00    +0.000 A 
ATOM      3  C   UNL     1       3.979   4.930  17.583  0.00  0.00    +0.000 A 
ATOM      4  C   UNL     1       3.892   4.016  18.628  0.00  0.00    +0.000 A 
ATOM      5  C   UNL     1       3.195   4.347  19.796  0.00  0.00    +0.000 A 
ATOM      6  C   UNL     1       2.528   5.583  19.930  0.00  0.00    +0.000 A 
ATOM      7  C   UNL     1       1.720   5.825  21.175  0.00  0.00    +0.000 C 
ENDROOT
BRANCH   1  10
ATOM      8  C   UNL     1       2.104   8.810  18.061  0.00  0.00    +0.000 C 
ATOM      9  O   UNL     1       2.711   8.754  16.997  0.00  0.00    +0.000 OA
ATOM     10  N   UNL     1       1.972   7.787  18.988  0.00  0.00    +0.000 N 
ATOM     11  H   UNL     1       1.257   7.883  19.694  0.00  0.00    +0.000 HD
BRANCH   8  15
ATOM     12  C   UNL     1       0.041  12.537  18.632  0.00  0.00    +0.000 A 
ATOM     13  C   UNL     1       1.434  12.472  18.531  0.00  0.00    +0.000 A 
ATOM     14  C   UNL     1       2.072  11.250  18.361  0.00  0.00    +0.000 A 
ATOM     15  C   UNL     1       1.334  10.064  18.306  0.00  0.00    +0.000 A 
ATOM     16  C   UNL     1      -0.044  10.105  18.527  0.00  0.00    +0.000 A 
ATOM     17  C   UNL     1      -0.694  11.339  18.722  0.00  0.00    +0.000 A 
BRANCH  12  18
ATOM     18  O   UNL     1      -0.624  13.737  18.616  0.00  0.00    +0.000 OA
BRANCH  18  20
ATOM     19  C   UNL     1       0.109  16.024  18.671  0.00  0.00    +0.000 C 
ATOM     20  C   UNL     1      -0.086  14.752  19.473  0.00  0.00    +0.000 C 
ENDBRANCH  18  20
ENDBRANCH  12  18
BRANCH  17  21
ATOM     21  O   UNL     1      -2.043  11.207  18.952  0.00  0.00    +0.000 OA
BRANCH  21  22
ATOM     22  C   UNL     1      -2.918  11.388  17.836  0.00  0.00    +0.000 C 
ATOM     23  C   UNL     1      -3.301  10.018  17.297  0.00  0.00    +0.000 C 
ENDBRANCH  21  22
ENDBRANCH  17  21
ENDBRANCH   8  15
ENDBRANCH   1  10
BRANCH   3  24
ATOM     24  N   UNL     1       4.660   4.554  16.395  0.00  0.00    +0.000 N 
ATOM     25  C   UNL     1       5.687   5.274  15.803  0.00  0.00    +0.000 C 
ATOM     26  O   UNL     1       6.267   6.238  16.300  0.00  0.00    +0.000 OA
ATOM     27  H   UNL     1       4.440   3.645  16.008  0.00  0.00    +0.000 HD
BRANCH  25  28
ATOM     28  C   UNL     1       6.200   4.793  14.491  0.00  0.00    +0.000 A 
ATOM     29  C   UNL     1       7.372   5.395  14.021  0.00  0.00    +0.000 A 
ATOM     30  C   UNL     1       7.881   5.051  12.781  0.00  0.00    +0.000 A 
ATOM     31  C   UNL     1       7.215   4.103  12.001  0.00  0.00    +0.000 A 
ATOM     32  C   UNL     1       6.018   3.487  12.415  0.00  0.00    +0.000 A 
ATOM     33  C   UNL     1       5.527   3.855  13.687  0.00  0.00    +0.000 A 
BRANCH  32  34
ATOM     34  N   UNL     1       5.380   2.561  11.603  0.00  0.00    +0.000 N 
ATOM     35  C   UNL     1       6.054   1.342  11.154  0.00  0.00    +0.000 C 
ATOM     36  C   UNL     1       4.085   2.810  10.985  0.00  0.00    +0.000 C 
ENDBRANCH  32  34
ENDBRANCH  25  28
ENDBRANCH   3  24
TORSDOF 9
ENDMDL
MODEL 6
REMARK VINA RESULT:      -7.8      1.027      1.180
REMARK  Name = 
REMARK  14 active torsions:
REMARK  status: ('A' for Active; 'I' for Inactive)
REMARK    1  A    between atoms: C_1  and  C_2
REMARK    2  A    between atoms: C_2  and  O_3
REMARK    3  A    between atoms: O_3  and  C_4
REMARK    4  A    between atoms: C_7  and  C_8
REMARK    5  A    between atoms: N_10  and  C_11
REMARK    6  A    between atoms: C_13  and  N_14
REMARK    7  A    between atoms: C_15  and  C_17
REMARK    8  A    between atoms: C_21  and  N_22
REMARK    9  A    between atoms: N_22  and  C_23
REMARK   10  A    between atoms: N_22  and  C_24
REMARK   11  A    between atoms: C_28  and  C_29
REMARK   12  A    between atoms: C_31  and  O_32
REMARK   13  A    between atoms: O_32  and  C_33
REMARK   14  A    between atoms: C_33  and  C_34
REMARK                            x       y       z     vdW  Elec       q    Type
REMARK                         _______ _______ _______ _____ _____    ______ ____
ROOT
ATOM      1  C   UNL     1       2.878   4.845  19.899  0.00  0.00    +0.000 A 
ATOM      2  C   UNL     1       3.637   4.817  18.716  0.00  0.00    +0.000 A 
ATOM      3  C   UNL     1       4.237   3.653  18.225  0.00  0.00    +0.000 A 
ATOM      4  C   UNL     1       4.103   2.483  18.965  0.00  0.00    +0.000 A 
ATOM      5  C   UNL     1       3.383   2.488  20.166  0.00  0.00    +0.000 A 
ATOM      6  C   UNL     1       2.740   3.654  20.634  0.00  0.00    +0.000 A 
ATOM      7  C   UNL     1       1.905   3.555  21.881  0.00  0.00    +0.000 C 
ENDROOT
BRANCH   1  10
ATOM      8  C   UNL     1       2.151   7.204  19.586  0.00  0.00    +0.000 C 
ATOM      9  O   UNL     1       2.488   7.337  18.414  0.00  0.00    +0.000 OA
ATOM     10  N   UNL     1       2.257   6.049  20.347  0.00  0.00    +0.000 N 
ATOM     11  H   UNL     1       1.730   6.003  21.206  0.00  0.00    +0.000 HD
BRANCH   8  15
ATOM     12  C   UNL     1       0.277  10.554  21.518  0.00  0.00    +0.000 A 
ATOM     13  C   UNL     1       0.878   9.523  22.247  0.00  0.00    +0.000 A 
ATOM     14  C   UNL     1       1.463   8.446  21.592  0.00  0.00    +0.000 A 
ATOM     15  C   UNL     1       1.444   8.366  20.197  0.00  0.00    +0.000 A 
ATOM     16  C   UNL     1       0.742   9.327  19.467  0.00  0.00    +0.000 A 
ATOM     17  C   UNL     1       0.128  10.410  20.125  0.00  0.00    +0.000 A 
BRANCH  12  18
ATOM     18  O   UNL     1      -0.143  11.711  22.126  0.00  0.00    +0.000 OA
BRANCH  18  20
ATOM     19  C   UNL     1      -0.220  14.105  22.307  0.00  0.00    +0.000 C 
ATOM     20  C   UNL     1       0.394  12.923  21.582  0.00  0.00    +0.000 C 
ENDBRANCH  18  20
ENDBRANCH  12  18
BRANCH  17  21
ATOM     21  O   UNL     1      -0.544  11.250  19.270  0.00  0.00    +0.000 OA
BRANCH  21  22
ATOM     22  C   UNL     1      -1.429  10.649  18.322  0.00  0.00    +0.000 C 
ATOM     23  C   UNL     1      -2.098  11.753  17.518  0.00  0.00    +0.000 C 
ENDBRANCH  21  22
ENDBRANCH  17  21
ENDBRANCH   8  15
ENDBRANCH   1  10
BRANCH   3  24
ATOM     24  N   UNL     1       4.939   3.610  16.992  0.00  0.00    +0.000 N 
ATOM     25  C   UNL     1       5.248   4.714  16.212  0.00  0.00    +0.000 C 
ATOM     26  O   UNL     1       5.111   5.890  16.546  0.00  0.00    +0.000 OA
ATOM     27  H   UNL     1       5.325   2.717  16.715  0.00  0.00    +0.000 HD
BRANCH  25  28
ATOM     28  C   UNL     1       5.881   4.468  14.887  0.00  0.00    +0.000 A 
ATOM     29  C   UNL     1       7.072   5.155  14.628  0.00  0.00    +0.000 A 
ATOM     30  C   UNL     1       7.691   5.031  13.396  0.00  0.00    +0.000 A 
ATOM     31  C   UNL     1       7.118   4.220  12.415  0.00  0.00    +0.000 A 
ATOM     32  C   UNL     1       5.908   3.528  12.615  0.00  0.00    +0.000 A 
ATOM     33  C   UNL     1       5.303   3.670  13.882  0.00  0.00    +0.000 A 
BRANCH  32  34
ATOM     34  N   UNL     1       5.365   2.744  11.607  0.00  0.00    +0.000 N 
ATOM     35  C   UNL     1       4.022   2.993  11.081  0.00  0.00    +0.000 C 
ATOM     36  C   UNL     1       5.993   1.518  11.135  0.00  0.00    +0.000 C 
ENDBRANCH  32  34
ENDBRANCH  25  28
ENDBRANCH   3  24
TORSDOF 9
ENDMDL
MODEL 7
REMARK VINA RESULT:      -7.7      3.663     12.140
REMARK  Name = 
REMARK  14 active torsions:
REMARK  status: ('A' for Active; 'I' for Inactive)
REMARK    1  A    between atoms: C_1  and  C_2
REMARK    2  A    between atoms: C_2  and  O_3
REMARK    3  A    between atoms: O_3  and  C_4
REMARK    4  A    between atoms: C_7  and  C_8
REMARK    5  A    between atoms: N_10  and  C_11
REMARK    6  A    between atoms: C_13  and  N_14
REMARK    7  A    between atoms: C_15  and  C_17
REMARK    8  A    between atoms: C_21  and  N_22
REMARK    9  A    between atoms: N_22  and  C_23
REMARK   10  A    between atoms: N_22  and  C_24
REMARK   11  A    between atoms: C_28  and  C_29
REMARK   12  A    between atoms: C_31  and  O_32
REMARK   13  A    between atoms: O_32  and  C_33
REMARK   14  A    between atoms: C_33  and  C_34
REMARK                            x       y       z     vdW  Elec       q    Type
REMARK                         _______ _______ _______ _____ _____    ______ ____
ROOT
ATOM      1  C   UNL     1       0.811  11.191  19.291  0.00  0.00    +0.000 A 
ATOM      2  C   UNL     1      -0.368  11.317  20.046  0.00  0.00    +0.000 A 
ATOM      3  C   UNL     1      -0.962  12.552  20.327  0.00  0.00    +0.000 A 
ATOM      4  C   UNL     1      -0.331  13.704  19.869  0.00  0.00    +0.000 A 
ATOM      5  C   UNL     1       0.864  13.611  19.145  0.00  0.00    +0.000 A 
ATOM      6  C   UNL     1       1.434  12.361  18.823  0.00  0.00    +0.000 A 
ATOM      7  C   UNL     1       2.665  12.341  17.959  0.00  0.00    +0.000 C 
ENDROOT
BRANCH   1  10
ATOM      8  C   UNL     1       1.548   8.905  19.940  0.00  0.00    +0.000 C 
ATOM      9  O   UNL     1       1.195   8.933  21.114  0.00  0.00    +0.000 OA
ATOM     10  N   UNL     1       1.365   9.908  19.001  0.00  0.00    +0.000 N 
ATOM     11  H   UNL     1       1.482   9.667  18.027  0.00  0.00    +0.000 HD
BRANCH   8  15
ATOM     12  C   UNL     1       3.332   5.299  18.429  0.00  0.00    +0.000 A 
ATOM     13  C   UNL     1       3.185   6.439  17.633  0.00  0.00    +0.000 A 
ATOM     14  C   UNL     1       2.592   7.585  18.148  0.00  0.00    +0.000 A 
ATOM     15  C   UNL     1       2.114   7.610  19.461  0.00  0.00    +0.000 A 
ATOM     16  C   UNL     1       2.146   6.441  20.223  0.00  0.00    +0.000 A 
ATOM     17  C   UNL     1       2.727   5.270  19.701  0.00  0.00    +0.000 A 
BRANCH  12  18
ATOM     18  O   UNL     1       4.075   4.223  18.010  0.00  0.00    +0.000 OA
BRANCH  18  20
ATOM     19  C   UNL     1       6.338   4.540  17.268  0.00  0.00    +0.000 C 
ATOM     20  C   UNL     1       5.440   4.209  18.444  0.00  0.00    +0.000 C 
ENDBRANCH  18  20
ENDBRANCH  12  18
BRANCH  17  21
ATOM     21  O   UNL     1       2.656   4.201  20.562  0.00  0.00    +0.000 OA
BRANCH  21  22
ATOM     22  C   UNL     1       1.355   3.699  20.875  0.00  0.00    +0.000 C 
ATOM     23  C   UNL     1       0.834   2.925  19.674  0.00  0.00    +0.000 C 
ENDBRANCH  21  22
ENDBRANCH  17  21
ENDBRANCH   8  15
ENDBRANCH   1  10
BRANCH   3  24
ATOM     24  N   UNL     1      -2.192  12.673  21.026  0.00  0.00    +0.000 N 
ATOM     25  C   UNL     1      -2.320  12.782  22.403  0.00  0.00    +0.000 C 
ATOM     26  O   UNL     1      -1.398  12.957  23.198  0.00  0.00    +0.000 OA
ATOM     27  H   UNL     1      -3.028  12.785  20.467  0.00  0.00    +0.000 HD
BRANCH  25  28
ATOM     28  C   UNL     1      -3.696  12.774  22.971  0.00  0.00    +0.000 A 
ATOM     29  C   UNL     1      -3.806  12.469  24.332  0.00  0.00    +0.000 A 
ATOM     30  C   UNL     1      -5.054  12.379  24.924  0.00  0.00    +0.000 A 
ATOM     31  C   UNL     1      -6.199  12.590  24.155  0.00  0.00    +0.000 A 
ATOM     32  C   UNL     1      -6.145  12.873  22.776  0.00  0.00    +0.000 A 
ATOM     33  C   UNL     1      -4.859  12.964  22.202  0.00  0.00    +0.000 A 
BRANCH  32  34
ATOM     34  N   UNL     1      -7.309  13.062  22.045  0.00  0.00    +0.000 N 
ATOM     35  C   UNL     1      -7.905  11.980  21.260  0.00  0.00    +0.000 C 
ATOM     36  C   UNL     1      -7.915  14.371  21.847  0.00  0.00    +0.000 C 
ENDBRANCH  32  34
ENDBRANCH  25  28
ENDBRANCH   3  24
TORSDOF 9
ENDMDL
MODEL 8
REMARK VINA RESULT:      -7.6      4.011     12.021
REMARK  Name = 
REMARK  14 active torsions:
REMARK  status: ('A' for Active; 'I' for Inactive)
REMARK    1  A    between atoms: C_1  and  C_2
REMARK    2  A    between atoms: C_2  and  O_3
REMARK    3  A    between atoms: O_3  and  C_4
REMARK    4  A    between atoms: C_7  and  C_8
REMARK    5  A    between atoms: N_10  and  C_11
REMARK    6  A    between atoms: C_13  and  N_14
REMARK    7  A    between atoms: C_15  and  C_17
REMARK    8  A    between atoms: C_21  and  N_22
REMARK    9  A    between atoms: N_22  and  C_23
REMARK   10  A    between atoms: N_22  and  C_24
REMARK   11  A    between atoms: C_28  and  C_29
REMARK   12  A    between atoms: C_31  and  O_32
REMARK   13  A    between atoms: O_32  and  C_33
REMARK   14  A    between atoms: C_33  and  C_34
REMARK                            x       y       z     vdW  Elec       q    Type
REMARK                         _______ _______ _______ _____ _____    ______ ____
ROOT
ATOM      1  C   UNL     1       0.839  11.272  19.213  0.00  0.00    +0.000 A 
ATOM      2  C   UNL     1      -0.473  11.257  19.719  0.00  0.00    +0.000 A 
ATOM      3  C   UNL     1      -1.306  12.381  19.702  0.00  0.00    +0.000 A 
ATOM      4  C   UNL     1      -0.795  13.571  19.197  0.00  0.00    +0.000 A 
ATOM      5  C   UNL     1       0.520  13.625  18.720  0.00  0.00    +0.000 A 
ATOM      6  C   UNL     1       1.342  12.478  18.694  0.00  0.00    +0.000 A 
ATOM      7  C   UNL     1       2.709  12.595  18.077  0.00  0.00    +0.000 C 
ENDROOT
BRANCH   1  10
ATOM      8  C   UNL     1       1.531   9.064  18.300  0.00  0.00    +0.000 C 
ATOM      9  O   UNL     1       0.802   9.046  17.314  0.00  0.00    +0.000 OA
ATOM     10  N   UNL     1       1.644  10.094  19.221  0.00  0.00    +0.000 N 
ATOM     11  H   UNL     1       2.442  10.087  19.839  0.00  0.00    +0.000 HD
BRANCH   8  15
ATOM     12  C   UNL     1       4.065   5.625  18.773  0.00  0.00    +0.000 A 
ATOM     13  C   UNL     1       3.037   5.915  19.676  0.00  0.00    +0.000 A 
ATOM     14  C   UNL     1       2.244   7.043  19.503  0.00  0.00    +0.000 A 
ATOM     15  C   UNL     1       2.473   7.915  18.435  0.00  0.00    +0.000 A 
ATOM     16  C   UNL     1       3.571   7.701  17.599  0.00  0.00    +0.000 A 
ATOM     17  C   UNL     1       4.391   6.571  17.782  0.00  0.00    +0.000 A 
BRANCH  12  18
ATOM     18  O   UNL     1       4.739   4.430  18.814  0.00  0.00    +0.000 OA
BRANCH  18  20
ATOM     19  C   UNL     1       3.611   2.548  17.834  0.00  0.00    +0.000 C 
ATOM     20  C   UNL     1       3.939   3.281  19.121  0.00  0.00    +0.000 C 
ENDBRANCH  18  20
ENDBRANCH  12  18
BRANCH  17  21
ATOM     21  O   UNL     1       5.442   6.519  16.898  0.00  0.00    +0.000 OA
BRANCH  21  22
ATOM     22  C   UNL     1       5.192   5.929  15.620  0.00  0.00    +0.000 C 
ATOM     23  C   UNL     1       6.032   4.666  15.499  0.00  0.00    +0.000 C 
ENDBRANCH  21  22
ENDBRANCH  17  21
ENDBRANCH   8  15
ENDBRANCH   1  10
BRANCH   3  24
ATOM     24  N   UNL     1      -2.655  12.344  20.144  0.00  0.00    +0.000 N 
ATOM     25  C   UNL     1      -3.757  12.138  19.327  0.00  0.00    +0.000 C 
ATOM     26  O   UNL     1      -3.721  11.794  18.147  0.00  0.00    +0.000 OA
ATOM     27  H   UNL     1      -2.812  12.376  21.143  0.00  0.00    +0.000 HD
BRANCH  25  28
ATOM     28  C   UNL     1      -5.106  12.257  19.944  0.00  0.00    +0.000 A 
ATOM     29  C   UNL     1      -6.200  12.045  19.097  0.00  0.00    +0.000 A 
ATOM     30  C   UNL     1      -7.489  12.198  19.577  0.00  0.00    +0.000 A 
ATOM     31  C   UNL     1      -7.691  12.570  20.907  0.00  0.00    +0.000 A 
ATOM     32  C   UNL     1      -6.625  12.822  21.794  0.00  0.00    +0.000 A 
ATOM     33  C   UNL     1      -5.323  12.651  21.277  0.00  0.00    +0.000 A 
BRANCH  32  34
ATOM     34  N   UNL     1      -6.870  13.203  23.105  0.00  0.00    +0.000 N 
ATOM     35  C   UNL     1      -7.756  14.324  23.425  0.00  0.00    +0.000 C 
ATOM     36  C   UNL     1      -6.133  12.660  24.237  0.00  0.00    +0.000 C 
ENDBRANCH  32  34
ENDBRANCH  25  28
ENDBRANCH   3  24
TORSDOF 9
ENDMDL
MODEL 9
REMARK VINA RESULT:      -7.6      3.404      6.944
REMARK  Name = 
REMARK  14 active torsions:
REMARK  status: ('A' for Active; 'I' for Inactive)
REMARK    1  A    between atoms: C_1  and  C_2
REMARK    2  A    between atoms: C_2  and  O_3
REMARK    3  A    between atoms: O_3  and  C_4
REMARK    4  A    between atoms: C_7  and  C_8
REMARK    5  A    between atoms: N_10  and  C_11
REMARK    6  A    between atoms: C_13  and  N_14
REMARK    7  A    between atoms: C_15  and  C_17
REMARK    8  A    between atoms: C_21  and  N_22
REMARK    9  A    between atoms: N_22  and  C_23
REMARK   10  A    between atoms: N_22  and  C_24
REMARK   11  A    between atoms: C_28  and  C_29
REMARK   12  A    between atoms: C_31  and  O_32
REMARK   13  A    between atoms: O_32  and  C_33
REMARK   14  A    between atoms: C_33  and  C_34
REMARK                            x       y       z     vdW  Elec       q    Type
REMARK                         _______ _______ _______ _____ _____    ______ ____
ROOT
ATOM      1  C   UNL     1       0.180  11.897  19.234  0.00  0.00    +0.000 A 
ATOM      2  C   UNL     1       0.568  10.604  18.843  0.00  0.00    +0.000 A 
ATOM      3  C   UNL     1       1.771  10.340  18.180  0.00  0.00    +0.000 A 
ATOM      4  C   UNL     1       2.596  11.414  17.862  0.00  0.00    +0.000 A 
ATOM      5  C   UNL     1       2.218  12.717  18.207  0.00  0.00    +0.000 A 
ATOM      6  C   UNL     1       1.027  12.974  18.918  0.00  0.00    +0.000 A 
ATOM      7  C   UNL     1       0.739  14.390  19.337  0.00  0.00    +0.000 C 
ENDROOT
BRANCH   1  10
ATOM      8  C   UNL     1      -1.161  12.110  21.319  0.00  0.00    +0.000 C 
ATOM      9  O   UNL     1      -0.245  12.002  22.128  0.00  0.00    +0.000 OA
ATOM     10  N   UNL     1      -1.042  12.117  19.938  0.00  0.00    +0.000 N 
ATOM     11  H   UNL     1      -1.828  12.452  19.400  0.00  0.00    +0.000 HD
BRANCH   8  15
ATOM     12  C   UNL     1      -4.939  13.035  23.148  0.00  0.00    +0.000 A 
ATOM     13  C   UNL     1      -3.788  12.802  23.908  0.00  0.00    +0.000 A 
ATOM     14  C   UNL     1      -2.584  12.492  23.287  0.00  0.00    +0.000 A 
ATOM     15  C   UNL     1      -2.508  12.388  21.895  0.00  0.00    +0.000 A 
ATOM     16  C   UNL     1      -3.675  12.498  21.136  0.00  0.00    +0.000 A 
ATOM     17  C   UNL     1      -4.902  12.792  21.761  0.00  0.00    +0.000 A 
BRANCH  12  18
ATOM     18  O   UNL     1      -6.088  13.520  23.719  0.00  0.00    +0.000 OA
BRANCH  18  20
ATOM     19  C   UNL     1      -7.364  15.479  23.166  0.00  0.00    +0.000 C 
ATOM     20  C   UNL     1      -6.142  14.943  23.885  0.00  0.00    +0.000 C 
ENDBRANCH  18  20
ENDBRANCH  12  18
BRANCH  17  21
ATOM     21  O   UNL     1      -5.958  12.840  20.882  0.00  0.00    +0.000 OA
BRANCH  21  22
ATOM     22  C   UNL     1      -5.646  12.927  19.489  0.00  0.00    +0.000 C 
ATOM     23  C   UNL     1      -6.941  13.123  18.716  0.00  0.00    +0.000 C 
ENDBRANCH  21  22
ENDBRANCH  17  21
ENDBRANCH   8  15
ENDBRANCH   1  10
BRANCH   3  24
ATOM     24  N   UNL     1       2.197   9.026  17.852  0.00  0.00    +0.000 N 
ATOM     25  C   UNL     1       2.332   7.983  18.757  0.00  0.00    +0.000 C 
ATOM     26  O   UNL     1       1.950   7.992  19.926  0.00  0.00    +0.000 OA
ATOM     27  H   UNL     1       2.316   8.813  16.870  0.00  0.00    +0.000 HD
BRANCH  25  28
ATOM     28  C   UNL     1       2.911   6.706  18.256  0.00  0.00    +0.000 A 
ATOM     29  C   UNL     1       4.006   6.816  17.390  0.00  0.00    +0.000 A 
ATOM     30  C   UNL     1       4.564   5.680  16.830  0.00  0.00    +0.000 A 
ATOM     31  C   UNL     1       4.027   4.427  17.130  0.00  0.00    +0.000 A 
ATOM     32  C   UNL     1       2.910   4.263  17.973  0.00  0.00    +0.000 A 
ATOM     33  C   UNL     1       2.367   5.439  18.534  0.00  0.00    +0.000 A 
BRANCH  32  34
ATOM     34  N   UNL     1       2.398   3.001  18.234  0.00  0.00    +0.000 N 
ATOM     35  C   UNL     1       0.999   2.804  18.617  0.00  0.00    +0.000 C 
ATOM     36  C   UNL     1       3.235   1.813  18.335  0.00  0.00    +0.000 C 
ENDBRANCH  32  34
ENDBRANCH  25  28
ENDBRANCH   3  24
TORSDOF 9
ENDMDL
