MODEL 1
REMARK VINA RESULT:      -5.9      0.000      0.000
REMARK  Name = 
REMARK  9 active torsions:
REMARK  status: ('A' for Active; 'I' for Inactive)
REMARK    1  A    between atoms: C_1  and  C_2
REMARK    2  A    between atoms: C_2  and  C_3
REMARK    3  A    between atoms: C_3  and  N_4
REMARK    4  A    between atoms: N_6  and  C_7
REMARK    5  A    between atoms: N_8  and  C_9
REMARK    6  A    between atoms: C_9  and  C_10
REMARK    7  A    between atoms: C_10  and  C_11
REMARK    8  A    between atoms: C_11  and  C_12
REMARK    9  A    between atoms: C_14  and  C_15
REMARK                            x       y       z     vdW  Elec       q    Type
REMARK                         _______ _______ _______ _____ _____    ______ ____
ROOT
ATOM      1  N   UNL     1       6.600   4.183  16.934  0.00  0.00    +0.000 N 
ATOM      2  C   UNL     1       6.099   4.144  18.200  0.00  0.00    +0.000 C 
ATOM      3  N   UNL     1       6.472   4.794  19.255  0.00  0.00    +0.000 NA
ATOM      4  C   UNL     1       7.497   5.798  19.283  0.00  0.00    +0.000 C 
ATOM      5  N   UNL     1       5.058   3.266  18.328  0.00  0.00    +0.000 N 
ATOM      6  H   UNL     1       7.605   4.161  16.841  0.00  0.00    +0.000 HD
ATOM      7  H   UNL     1       5.172   2.442  17.760  0.00  0.00    +0.000 HD
ENDROOT
BRANCH   1   8
ATOM      8  C   UNL     1       5.811   3.865  15.742  0.00  0.00    +0.000 C 
BRANCH   8  10
ATOM      9  C   UNL     1       5.244   6.304  15.605  0.00  0.00    +0.000 C 
ATOM     10  C   UNL     1       5.598   5.057  14.811  0.00  0.00    +0.000 C 
ENDBRANCH   8  10
ENDBRANCH   1   8
BRANCH   5  11
ATOM     11  C   UNL     1       4.426   3.071  19.625  0.00  0.00    +0.000 C 
BRANCH  11  12
ATOM     12  C   UNL     1       3.031   2.472  19.499  0.00  0.00    +0.000 C 
BRANCH  12  13
ATOM     13  C   UNL     1       2.147   3.316  18.581  0.00  0.00    +0.000 C 
BRANCH  13  14
ATOM     14  C   UNL     1       2.224   4.771  18.908  0.00  0.00    +0.000 A 
ATOM     15  N   UNL     1       2.573   5.700  18.041  0.00  0.00    +0.000 NA
ATOM     16  C   UNL     1       2.523   6.947  18.639  0.00  0.00    +0.000 A 
ATOM     17  C   UNL     1       2.884   8.145  17.838  0.00  0.00    +0.000 C 
ATOM     18  C   UNL     1       2.129   6.938  19.963  0.00  0.00    +0.000 A 
ATOM     19  S   UNL     1       1.814   5.335  20.475  0.00  0.00    +0.000 S 
ENDBRANCH  13  14
ENDBRANCH  12  13
ENDBRANCH  11  12
ENDBRANCH   5  11
TORSDOF 6
ENDMDL
MODEL 2
REMARK VINA RESULT:      -5.8      2.357      5.575
REMARK  Name = 
REMARK  9 active torsions:
REMARK  status: ('A' for Active; 'I' for Inactive)
REMARK    1  A    between atoms: C_1  and  C_2
REMARK    2  A    between atoms: C_2  and  C_3
REMARK    3  A    between atoms: C_3  and  N_4
REMARK    4  A    between atoms: N_6  and  C_7
REMARK    5  A    between atoms: N_8  and  C_9
REMARK    6  A    between atoms: C_9  and  C_10
REMARK    7  A    between atoms: C_10  and  C_11
REMARK    8  A    between atoms: C_11  and  C_12
REMARK    9  A    between atoms: C_14  and  C_15
REMARK                            x       y       z     vdW  Elec       q    Type
REMARK                         _______ _______ _______ _____ _____    ______ ____
ROOT
ATOM      1  N   UNL     1       2.939   4.298  18.675  0.00  0.00    +0.000 N 
ATOM      2  C   UNL     1       3.976   5.176  18.763  0.00  0.00    +0.000 C 
ATOM      3  N   UNL     1       4.002   6.449  18.531  0.00  0.00    +0.000 NA
ATOM      4  C   UNL     1       2.858   7.245  18.189  0.00  0.00    +0.000 C 
ATOM      5  N   UNL     1       5.145   4.575  19.145  0.00  0.00    +0.000 N 
ATOM      6  H   UNL     1       2.353   4.366  17.855  0.00  0.00    +0.000 HD
ATOM      7  H   UNL     1       5.245   3.647  18.769  0.00  0.00    +0.000 HD
ENDROOT
BRANCH   1   8
ATOM      8  C   UNL     1       2.860   3.060  19.453  0.00  0.00    +0.000 C 
BRANCH   8  10
ATOM      9  C   UNL     1       0.533   2.345  18.850  0.00  0.00    +0.000 C 
ATOM     10  C   UNL     1       2.007   1.977  18.796  0.00  0.00    +0.000 C 
ENDBRANCH   8  10
ENDBRANCH   1   8
BRANCH   5  11
ATOM     11  C   UNL     1       6.365   5.361  19.255  0.00  0.00    +0.000 C 
BRANCH  11  12
ATOM     12  C   UNL     1       7.384   4.990  18.185  0.00  0.00    +0.000 C 
BRANCH  12  13
ATOM     13  C   UNL     1       7.305   5.940  16.990  0.00  0.00    +0.000 C 
BRANCH  13  14
ATOM     14  C   UNL     1       6.979   5.223  15.722  0.00  0.00    +0.000 A 
ATOM     15  N   UNL     1       7.509   5.520  14.553  0.00  0.00    +0.000 NA
ATOM     16  C   UNL     1       7.027   4.660  13.582  0.00  0.00    +0.000 A 
ATOM     17  C   UNL     1       7.495   4.820  12.181  0.00  0.00    +0.000 C 
ATOM     18  C   UNL     1       6.130   3.715  14.041  0.00  0.00    +0.000 A 
ATOM     19  S   UNL     1       5.883   3.903  15.724  0.00  0.00    +0.000 S 
ENDBRANCH  13  14
ENDBRANCH  12  13
ENDBRANCH  11  12
ENDBRANCH   5  11
TORSDOF 6
ENDMDL
MODEL 3
REMARK VINA RESULT:      -5.7      1.382      2.695
REMARK  Name = 
REMARK  9 active torsions:
REMARK  status: ('A' for Active; 'I' for Inactive)
REMARK    1  A    between atoms: C_1  and  C_2
REMARK    2  A    between atoms: C_2  and  C_3
REMARK    3  A    between atoms: C_3  and  N_4
REMARK    4  A    between atoms: N_6  and  C_7
REMARK    5  A    between atoms: N_8  and  C_9
REMARK    6  A    between atoms: C_9  and  C_10
REMARK    7  A    between atoms: C_10  and  C_11
REMARK    8  A    between atoms: C_11  and  C_12
REMARK    9  A    between atoms: C_14  and  C_15
REMARK                            x       y       z     vdW  Elec       q    Type
REMARK                         _______ _______ _______ _____ _____    ______ ____
ROOT
ATOM      1  N   UNL     1       5.957   6.266  16.007  0.00  0.00    +0.000 N 
ATOM      2  C   UNL     1       5.527   4.977  15.917  0.00  0.00    +0.000 C 
ATOM      3  N   UNL     1       5.719   4.107  14.977  0.00  0.00    +0.000 NA
ATOM      4  C   UNL     1       6.532   4.319  13.814  0.00  0.00    +0.000 C 
ATOM      5  N   UNL     1       4.777   4.595  16.995  0.00  0.00    +0.000 N 
ATOM      6  H   UNL     1       5.861   6.838  15.179  0.00  0.00    +0.000 HD
ATOM      7  H   UNL     1       4.201   5.339  17.351  0.00  0.00    +0.000 HD
ENDROOT
BRANCH   1   8
ATOM      8  C   UNL     1       6.167   6.961  17.278  0.00  0.00    +0.000 C 
BRANCH   8  10
ATOM      9  C   UNL     1       7.587   5.891  19.046  0.00  0.00    +0.000 C 
ATOM     10  C   UNL     1       7.581   6.809  17.834  0.00  0.00    +0.000 C 
ENDBRANCH   8  10
ENDBRANCH   1   8
BRANCH   5  11
ATOM     11  C   UNL     1       4.206   3.257  17.046  0.00  0.00    +0.000 C 
BRANCH  11  12
ATOM     12  C   UNL     1       3.444   3.008  18.342  0.00  0.00    +0.000 C 
BRANCH  12  13
ATOM     13  C   UNL     1       2.075   3.687  18.318  0.00  0.00    +0.000 C 
BRANCH  13  14
ATOM     14  C   UNL     1       2.144   5.108  18.773  0.00  0.00    +0.000 A 
ATOM     15  N   UNL     1       2.278   6.133  17.957  0.00  0.00    +0.000 NA
ATOM     16  C   UNL     1       2.284   7.315  18.680  0.00  0.00    +0.000 A 
ATOM     17  C   UNL     1       2.429   8.602  17.953  0.00  0.00    +0.000 C 
ATOM     18  C   UNL     1       2.150   7.157  20.045  0.00  0.00    +0.000 A 
ATOM     19  S   UNL     1       2.013   5.497  20.438  0.00  0.00    +0.000 S 
ENDBRANCH  13  14
ENDBRANCH  12  13
ENDBRANCH  11  12
ENDBRANCH   5  11
TORSDOF 6
ENDMDL
MODEL 4
REMARK VINA RESULT:      -5.7      2.410      4.283
REMARK  Name = 
REMARK  9 active torsions:
REMARK  status: ('A' for Active; 'I' for Inactive)
REMARK    1  A    between atoms: C_1  and  C_2
REMARK    2  A    between atoms: C_2  and  C_3
REMARK    3  A    between atoms: C_3  and  N_4
REMARK    4  A    between atoms: N_6  and  C_7
REMARK    5  A    between atoms: N_8  and  C_9
REMARK    6  A    between atoms: C_9  and  C_10
REMARK    7  A    between atoms: C_10  and  C_11
REMARK    8  A    between atoms: C_11  and  C_12
REMARK    9  A    between atoms: C_14  and  C_15
REMARK                            x       y       z     vdW  Elec       q    Type
REMARK                         _______ _______ _______ _____ _____    ______ ____
ROOT
ATOM      1  N   UNL     1       7.609   6.912  16.700  0.00  0.00    +0.000 N 
ATOM      2  C   UNL     1       6.393   6.336  16.486  0.00  0.00    +0.000 C 
ATOM      3  N   UNL     1       6.073   5.347  15.714  0.00  0.00    +0.000 NA
ATOM      4  C   UNL     1       7.003   4.570  14.946  0.00  0.00    +0.000 C 
ATOM      5  N   UNL     1       5.394   6.932  17.206  0.00  0.00    +0.000 N 
ATOM      6  H   UNL     1       8.173   7.101  15.884  0.00  0.00    +0.000 HD
ATOM      7  H   UNL     1       5.519   7.927  17.294  0.00  0.00    +0.000 HD
ENDROOT
BRANCH   1   8
ATOM      8  C   UNL     1       7.966   7.610  17.936  0.00  0.00    +0.000 C 
BRANCH   8  10
ATOM      9  C   UNL     1       8.962   9.696  18.908  0.00  0.00    +0.000 C 
ATOM     10  C   UNL     1       8.156   9.115  17.758  0.00  0.00    +0.000 C 
ENDBRANCH   8  10
ENDBRANCH   1   8
BRANCH   5  11
ATOM     11  C   UNL     1       4.022   6.465  17.069  0.00  0.00    +0.000 C 
BRANCH  11  12
ATOM     12  C   UNL     1       3.257   6.541  18.385  0.00  0.00    +0.000 C 
BRANCH  12  13
ATOM     13  C   UNL     1       1.893   5.858  18.273  0.00  0.00    +0.000 C 
BRANCH  13  14
ATOM     14  C   UNL     1       1.891   4.501  18.896  0.00  0.00    +0.000 A 
ATOM     15  N   UNL     1       1.676   4.282  20.177  0.00  0.00    +0.000 NA
ATOM     16  C   UNL     1       1.713   2.923  20.438  0.00  0.00    +0.000 A 
ATOM     17  C   UNL     1       1.497   2.450  21.829  0.00  0.00    +0.000 C 
ATOM     18  C   UNL     1       1.957   2.130  19.333  0.00  0.00    +0.000 A 
ATOM     19  S   UNL     1       2.144   3.102  17.937  0.00  0.00    +0.000 S 
ENDBRANCH  13  14
ENDBRANCH  12  13
ENDBRANCH  11  12
ENDBRANCH   5  11
TORSDOF 6
ENDMDL
MODEL 5
REMARK VINA RESULT:      -5.7      2.349      5.143
REMARK  Name = 
REMARK  9 active torsions:
REMARK  status: ('A' for Active; 'I' for Inactive)
REMARK    1  A    between atoms: C_1  and  C_2
REMARK    2  A    between atoms: C_2  and  C_3
REMARK    3  A    between atoms: C_3  and  N_4
REMARK    4  A    between atoms: N_6  and  C_7
REMARK    5  A    between atoms: N_8  and  C_9
REMARK    6  A    between atoms: C_9  and  C_10
REMARK    7  A    between atoms: C_10  and  C_11
REMARK    8  A    between atoms: C_11  and  C_12
REMARK    9  A    between atoms: C_14  and  C_15
REMARK                            x       y       z     vdW  Elec       q    Type
REMARK                         _______ _______ _______ _____ _____    ______ ____
ROOT
ATOM      1  N   UNL     1       2.358   6.287  19.112  0.00  0.00    +0.000 N 
ATOM      2  C   UNL     1       2.626   5.058  18.591  0.00  0.00    +0.000 C 
ATOM      3  N   UNL     1       2.145   3.901  18.917  0.00  0.00    +0.000 NA
ATOM      4  C   UNL     1       1.120   3.683  19.897  0.00  0.00    +0.000 C 
ATOM      5  N   UNL     1       3.553   5.102  17.586  0.00  0.00    +0.000 N 
ATOM      6  H   UNL     1       2.326   6.358  20.120  0.00  0.00    +0.000 HD
ATOM      7  H   UNL     1       4.266   5.795  17.745  0.00  0.00    +0.000 HD
ENDROOT
BRANCH   1   8
ATOM      8  C   UNL     1       2.505   7.534  18.359  0.00  0.00    +0.000 C 
BRANCH   8  10
ATOM      9  C   UNL     1       1.265   9.670  17.925  0.00  0.00    +0.000 C 
ATOM     10  C   UNL     1       1.785   8.722  18.994  0.00  0.00    +0.000 C 
ENDBRANCH   8  10
ENDBRANCH   1   8
BRANCH   5  11
ATOM     11  C   UNL     1       3.984   3.871  16.940  0.00  0.00    +0.000 C 
BRANCH  11  12
ATOM     12  C   UNL     1       5.317   4.037  16.220  0.00  0.00    +0.000 C 
BRANCH  12  13
ATOM     13  C   UNL     1       5.586   5.504  15.884  0.00  0.00    +0.000 C 
BRANCH  13  14
ATOM     14  C   UNL     1       6.539   6.135  16.844  0.00  0.00    +0.000 A 
ATOM     15  N   UNL     1       6.894   7.403  16.800  0.00  0.00    +0.000 NA
ATOM     16  C   UNL     1       7.766   7.688  17.837  0.00  0.00    +0.000 A 
ATOM     17  C   UNL     1       8.297   9.068  17.973  0.00  0.00    +0.000 C 
ATOM     18  C   UNL     1       8.057   6.615  18.658  0.00  0.00    +0.000 A 
ATOM     19  S   UNL     1       7.222   5.219  18.124  0.00  0.00    +0.000 S 
ENDBRANCH  13  14
ENDBRANCH  12  13
ENDBRANCH  11  12
ENDBRANCH   5  11
TORSDOF 6
ENDMDL
MODEL 6
REMARK VINA RESULT:      -5.6      2.710      4.471
REMARK  Name = 
REMARK  9 active torsions:
REMARK  status: ('A' for Active; 'I' for Inactive)
REMARK    1  A    between atoms: C_1  and  C_2
REMARK    2  A    between atoms: C_2  and  C_3
REMARK    3  A    between atoms: C_3  and  N_4
REMARK    4  A    between atoms: N_6  and  C_7
REMARK    5  A    between atoms: N_8  and  C_9
REMARK    6  A    between atoms: C_9  and  C_10
REMARK    7  A    between atoms: C_10  and  C_11
REMARK    8  A    between atoms: C_11  and  C_12
REMARK    9  A    between atoms: C_14  and  C_15
REMARK                            x       y       z     vdW  Elec       q    Type
REMARK                         _______ _______ _______ _____ _____    ______ ____
ROOT
ATOM      1  N   UNL     1       8.524   7.976  18.587  0.00  0.00    +0.000 N 
ATOM      2  C   UNL     1       7.828   6.886  18.160  0.00  0.00    +0.000 C 
ATOM      3  N   UNL     1       7.603   5.763  18.764  0.00  0.00    +0.000 NA
ATOM      4  C   UNL     1       8.004   5.457  20.107  0.00  0.00    +0.000 C 
ATOM      5  N   UNL     1       7.319   7.045  16.900  0.00  0.00    +0.000 N 
ATOM      6  H   UNL     1       9.416   7.803  19.029  0.00  0.00    +0.000 HD
ATOM      7  H   UNL     1       7.930   7.572  16.298  0.00  0.00    +0.000 HD
ENDROOT
BRANCH   1   8
ATOM      8  C   UNL     1       8.269   9.336  18.109  0.00  0.00    +0.000 C 
BRANCH   8  10
ATOM      9  C   UNL     1       9.034  11.721  18.001  0.00  0.00    +0.000 C 
ATOM     10  C   UNL     1       9.220  10.380  18.691  0.00  0.00    +0.000 C 
ENDBRANCH   8  10
ENDBRANCH   1   8
BRANCH   5  11
ATOM     11  C   UNL     1       6.576   5.961  16.274  0.00  0.00    +0.000 C 
BRANCH  11  12
ATOM     12  C   UNL     1       5.131   6.349  15.985  0.00  0.00    +0.000 C 
BRANCH  12  13
ATOM     13  C   UNL     1       4.415   6.805  17.257  0.00  0.00    +0.000 C 
BRANCH  13  14
ATOM     14  C   UNL     1       3.559   5.728  17.837  0.00  0.00    +0.000 A 
ATOM     15  N   UNL     1       3.492   4.504  17.354  0.00  0.00    +0.000 NA
ATOM     16  C   UNL     1       2.634   3.737  18.125  0.00  0.00    +0.000 A 
ATOM     17  C   UNL     1       2.408   2.317  17.753  0.00  0.00    +0.000 C 
ATOM     18  C   UNL     1       2.063   4.405  19.191  0.00  0.00    +0.000 A 
ATOM     19  S   UNL     1       2.609   6.026  19.234  0.00  0.00    +0.000 S 
ENDBRANCH  13  14
ENDBRANCH  12  13
ENDBRANCH  11  12
ENDBRANCH   5  11
TORSDOF 6
ENDMDL
MODEL 7
REMARK VINA RESULT:      -5.6      2.955      4.368
REMARK  Name = 
REMARK  9 active torsions:
REMARK  status: ('A' for Active; 'I' for Inactive)
REMARK    1  A    between atoms: C_1  and  C_2
REMARK    2  A    between atoms: C_2  and  C_3
REMARK    3  A    between atoms: C_3  and  N_4
REMARK    4  A    between atoms: N_6  and  C_7
REMARK    5  A    between atoms: N_8  and  C_9
REMARK    6  A    between atoms: C_9  and  C_10
REMARK    7  A    between atoms: C_10  and  C_11
REMARK    8  A    between atoms: C_11  and  C_12
REMARK    9  A    between atoms: C_14  and  C_15
REMARK                            x       y       z     vdW  Elec       q    Type
REMARK                         _______ _______ _______ _____ _____    ______ ____
ROOT
ATOM      1  N   UNL     1       6.605   3.546  12.678  0.00  0.00    +0.000 N 
ATOM      2  C   UNL     1       6.622   4.449  13.697  0.00  0.00    +0.000 C 
ATOM      3  N   UNL     1       7.478   5.386  13.955  0.00  0.00    +0.000 NA
ATOM      4  C   UNL     1       8.600   5.724  13.129  0.00  0.00    +0.000 C 
ATOM      5  N   UNL     1       5.566   4.297  14.554  0.00  0.00    +0.000 N 
ATOM      6  H   UNL     1       7.479   3.088  12.461  0.00  0.00    +0.000 HD
ATOM      7  H   UNL     1       5.306   3.333  14.682  0.00  0.00    +0.000 HD
ENDROOT
BRANCH   1   8
ATOM      8  C   UNL     1       5.381   2.928  12.166  0.00  0.00    +0.000 C 
BRANCH   8  10
ATOM      9  C   UNL     1       7.120   1.517  11.038  0.00  0.00    +0.000 C 
ATOM     10  C   UNL     1       5.632   1.703  11.289  0.00  0.00    +0.000 C 
ENDBRANCH   8  10
ENDBRANCH   1   8
BRANCH   5  11
ATOM     11  C   UNL     1       5.448   5.158  15.722  0.00  0.00    +0.000 C 
BRANCH  11  12
ATOM     12  C   UNL     1       5.332   4.358  17.014  0.00  0.00    +0.000 C 
BRANCH  12  13
ATOM     13  C   UNL     1       3.960   3.695  17.133  0.00  0.00    +0.000 C 
BRANCH  13  14
ATOM     14  C   UNL     1       3.314   3.973  18.450  0.00  0.00    +0.000 A 
ATOM     15  N   UNL     1       2.603   3.089  19.120  0.00  0.00    +0.000 NA
ATOM     16  C   UNL     1       2.162   3.641  20.311  0.00  0.00    +0.000 A 
ATOM     17  C   UNL     1       1.334   2.813  21.225  0.00  0.00    +0.000 C 
ATOM     18  C   UNL     1       2.557   4.948  20.523  0.00  0.00    +0.000 A 
ATOM     19  S   UNL     1       3.499   5.502  19.206  0.00  0.00    +0.000 S 
ENDBRANCH  13  14
ENDBRANCH  12  13
ENDBRANCH  11  12
ENDBRANCH   5  11
TORSDOF 6
ENDMDL
MODEL 8
REMARK VINA RESULT:      -5.6      2.661      4.274
REMARK  Name = 
REMARK  9 active torsions:
REMARK  status: ('A' for Active; 'I' for Inactive)
REMARK    1  A    between atoms: C_1  and  C_2
REMARK    2  A    between atoms: C_2  and  C_3
REMARK    3  A    between atoms: C_3  and  N_4
REMARK    4  A    between atoms: N_6  and  C_7
REMARK    5  A    between atoms: N_8  and  C_9
REMARK    6  A    between atoms: C_9  and  C_10
REMARK    7  A    between atoms: C_10  and  C_11
REMARK    8  A    between atoms: C_11  and  C_12
REMARK    9  A    between atoms: C_14  and  C_15
REMARK                            x       y       z     vdW  Elec       q    Type
REMARK                         _______ _______ _______ _____ _____    ______ ____
ROOT
ATOM      1  N   UNL     1       8.405   7.898  18.514  0.00  0.00    +0.000 N 
ATOM      2  C   UNL     1       7.853   6.716  18.122  0.00  0.00    +0.000 C 
ATOM      3  N   UNL     1       7.700   5.617  18.789  0.00  0.00    +0.000 NA
ATOM      4  C   UNL     1       8.033   5.442  20.173  0.00  0.00    +0.000 C 
ATOM      5  N   UNL     1       7.422   6.739  16.824  0.00  0.00    +0.000 N 
ATOM      6  H   UNL     1       9.275   7.848  19.024  0.00  0.00    +0.000 HD
ATOM      7  H   UNL     1       8.018   7.288  16.227  0.00  0.00    +0.000 HD
ENDROOT
BRANCH   1   8
ATOM      8  C   UNL     1       8.049   9.191  17.924  0.00  0.00    +0.000 C 
BRANCH   8  10
ATOM      9  C   UNL     1       9.335  10.395  19.708  0.00  0.00    +0.000 C 
ATOM     10  C   UNL     1       9.060  10.297  18.217  0.00  0.00    +0.000 C 
ENDBRANCH   8  10
ENDBRANCH   1   8
BRANCH   5  11
ATOM     11  C   UNL     1       6.838   5.545  16.231  0.00  0.00    +0.000 C 
BRANCH  11  12
ATOM     12  C   UNL     1       5.315   5.584  16.245  0.00  0.00    +0.000 C 
BRANCH  12  13
ATOM     13  C   UNL     1       4.726   4.176  16.335  0.00  0.00    +0.000 C 
BRANCH  13  14
ATOM     14  C   UNL     1       3.810   4.024  17.505  0.00  0.00    +0.000 A 
ATOM     15  N   UNL     1       3.459   5.017  18.296  0.00  0.00    +0.000 NA
ATOM     16  C   UNL     1       2.584   4.562  19.268  0.00  0.00    +0.000 A 
ATOM     17  C   UNL     1       2.063   5.522  20.274  0.00  0.00    +0.000 C 
ATOM     18  C   UNL     1       2.284   3.216  19.189  0.00  0.00    +0.000 A 
ATOM     19  S   UNL     1       3.112   2.501  17.873  0.00  0.00    +0.000 S 
ENDBRANCH  13  14
ENDBRANCH  12  13
ENDBRANCH  11  12
ENDBRANCH   5  11
TORSDOF 6
ENDMDL
MODEL 9
REMARK VINA RESULT:      -5.6      2.368      5.012
REMARK  Name = 
REMARK  9 active torsions:
REMARK  status: ('A' for Active; 'I' for Inactive)
REMARK    1  A    between atoms: C_1  and  C_2
REMARK    2  A    between atoms: C_2  and  C_3
REMARK    3  A    between atoms: C_3  and  N_4
REMARK    4  A    between atoms: N_6  and  C_7
REMARK    5  A    between atoms: N_8  and  C_9
REMARK    6  A    between atoms: C_9  and  C_10
REMARK    7  A    between atoms: C_10  and  C_11
REMARK    8  A    between atoms: C_11  and  C_12
REMARK    9  A    between atoms: C_14  and  C_15
REMARK                            x       y       z     vdW  Elec       q    Type
REMARK                         _______ _______ _______ _____ _____    ______ ____
ROOT
ATOM      1  N   UNL     1       2.641   4.508  19.843  0.00  0.00    +0.000 N 
ATOM      2  C   UNL     1       2.790   3.779  18.703  0.00  0.00    +0.000 C 
ATOM      3  N   UNL     1       2.021   2.866  18.201  0.00  0.00    +0.000 NA
ATOM      4  C   UNL     1       0.751   2.473  18.741  0.00  0.00    +0.000 C 
ATOM      5  N   UNL     1       3.940   4.084  18.028  0.00  0.00    +0.000 N 
ATOM      6  H   UNL     1       2.357   4.005  20.672  0.00  0.00    +0.000 HD
ATOM      7  H   UNL     1       4.707   4.297  18.645  0.00  0.00    +0.000 HD
ENDROOT
BRANCH   1   8
ATOM      8  C   UNL     1       3.225   5.837  20.035  0.00  0.00    +0.000 C 
BRANCH   8  10
ATOM      9  C   UNL     1       2.558   7.396  18.187  0.00  0.00    +0.000 C 
ATOM     10  C   UNL     1       2.298   6.980  19.626  0.00  0.00    +0.000 C 
ENDBRANCH   8  10
ENDBRANCH   1   8
BRANCH   5  11
ATOM     11  C   UNL     1       4.276   3.372  16.804  0.00  0.00    +0.000 C 
BRANCH  11  12
ATOM     12  C   UNL     1       5.479   3.984  16.096  0.00  0.00    +0.000 C 
BRANCH  12  13
ATOM     13  C   UNL     1       5.399   5.510  16.086  0.00  0.00    +0.000 C 
BRANCH  13  14
ATOM     14  C   UNL     1       6.439   6.134  16.956  0.00  0.00    +0.000 A 
ATOM     15  N   UNL     1       6.767   7.409  16.910  0.00  0.00    +0.000 NA
ATOM     16  C   UNL     1       7.741   7.683  17.855  0.00  0.00    +0.000 A 
ATOM     17  C   UNL     1       8.261   9.069  17.972  0.00  0.00    +0.000 C 
ATOM     18  C   UNL     1       8.134   6.595  18.611  0.00  0.00    +0.000 A 
ATOM     19  S   UNL     1       7.268   5.198  18.131  0.00  0.00    +0.000 S 
ENDBRANCH  13  14
ENDBRANCH  12  13
ENDBRANCH  11  12
ENDBRANCH   5  11
TORSDOF 6
ENDMDL
