MODEL 1
REMARK VINA RESULT:      -8.1      0.000      0.000
REMARK  Name = 
REMARK  12 active torsions:
REMARK  status: ('A' for Active; 'I' for Inactive)
REMARK    1  A    between atoms: C_1  and  C_2
REMARK    2  A    between atoms: C_2  and  C_3
REMARK    3  A    between atoms: C_3  and  C_4
REMARK    4  A    between atoms: C_4  and  C_5
REMARK    5  A    between atoms: C_5  and  C_6
REMARK    6  A    between atoms: C_8  and  C_9
REMARK    7  A    between atoms: C_9  and  O_11
REMARK    8  A    between atoms: C_12  and  C_13
REMARK    9  A    between atoms: C_16  and  C_17
REMARK   10  A    between atoms: N_21  and  S_22
REMARK   11  A    between atoms: S_22  and  C_25
REMARK   12  A    between atoms: C_28  and  C_29
REMARK                            x       y       z     vdW  Elec       q    Type
REMARK                         _______ _______ _______ _____ _____    ______ ____
ROOT
ATOM      1  C   UNL     1       5.737   4.263  16.352  0.00  0.00    +0.000 C 
ATOM      2  C   UNL     1       4.553   3.366  16.478  0.00  0.00    +0.000 C 
ATOM      3  C   UNL     1       3.842   3.643  17.578  0.00  0.00    +0.000 C 
ATOM      4  C   UNL     1       4.417   4.795  18.366  0.00  0.00    +0.000 C 
ATOM      5  N   UNL     1       5.686   5.085  17.595  0.00  0.00    +0.000 NA
ENDROOT
BRANCH   4   6
ATOM      6  C   UNL     1       3.505   6.028  18.507  0.00  0.00    +0.000 A 
ATOM      7  C   UNL     1       2.702   6.276  19.637  0.00  0.00    +0.000 A 
ATOM      8  C   UNL     1       1.963   7.462  19.770  0.00  0.00    +0.000 A 
ATOM      9  C   UNL     1       1.988   8.429  18.764  0.00  0.00    +0.000 A 
ATOM     10  C   UNL     1       2.771   8.205  17.634  0.00  0.00    +0.000 A 
ATOM     11  C   UNL     1       3.523   7.026  17.516  0.00  0.00    +0.000 A 
BRANCH   9  12
ATOM     12  C   UNL     1       1.227   9.637  18.895  0.00  0.00    +0.000 C 
ATOM     13  N   UNL     1       0.607  10.611  19.005  0.00  0.00    +0.000 NA
ENDBRANCH   9  12
ENDBRANCH   4   6
BRANCH   5  14
ATOM     14  S   UNL     1       7.143   5.186  18.480  0.00  0.00    +0.000 S 
ATOM     15  O   UNL     1       6.853   4.929  19.875  0.00  0.00    +0.000 OA
ATOM     16  O   UNL     1       8.156   4.415  17.795  0.00  0.00    +0.000 OA
BRANCH  14  17
ATOM     17  C   UNL     1       7.633   6.894  18.376  0.00  0.00    +0.000 A 
ATOM     18  C   UNL     1       8.588   7.403  19.260  0.00  0.00    +0.000 A 
ATOM     19  C   UNL     1       8.987   8.735  19.150  0.00  0.00    +0.000 A 
ATOM     20  C   UNL     1       8.464   9.551  18.139  0.00  0.00    +0.000 A 
ATOM     21  C   UNL     1       8.901  10.980  18.006  0.00  0.00    +0.000 C 
ATOM     22  C   UNL     1       7.554   9.011  17.220  0.00  0.00    +0.000 A 
ATOM     23  C   UNL     1       7.139   7.685  17.335  0.00  0.00    +0.000 A 
ENDBRANCH  14  17
ENDBRANCH   5  14
BRANCH   3  24
ATOM     24  C   UNL     1       2.691   2.890  18.093  0.00  0.00    +0.000 C 
ATOM     25  O   UNL     1       2.805   1.990  18.905  0.00  0.00    +0.000 OA
BRANCH  24  26
ATOM     26  O   UNL     1       1.498   3.319  17.640  0.00  0.00    +0.000 OA
ATOM     27  H   UNL     1       1.047   3.985  18.192  0.00  0.00    +0.000 HD
ENDBRANCH  24  26
ENDBRANCH   3  24
BRANCH   1  28
ATOM     28  C   UNL     1       5.660   5.126  15.084  0.00  0.00    +0.000 C 
BRANCH  28  29
ATOM     29  C   UNL     1       5.197   4.319  13.870  0.00  0.00    +0.000 C 
BRANCH  29  30
ATOM     30  C   UNL     1       6.350   3.740  13.052  0.00  0.00    +0.000 C 
BRANCH  30  32
ATOM     31  C   UNL     1       4.385   3.318  11.516  0.00  0.00    +0.000 C 
ATOM     32  C   UNL     1       5.801   2.913  11.888  0.00  0.00    +0.000 C 
ENDBRANCH  30  32
ENDBRANCH  29  30
ENDBRANCH  28  29
ENDBRANCH   1  28
TORSDOF 10
ENDMDL
MODEL 2
REMARK VINA RESULT:      -8.0      0.421      1.069
REMARK  Name = 
REMARK  12 active torsions:
REMARK  status: ('A' for Active; 'I' for Inactive)
REMARK    1  A    between atoms: C_1  and  C_2
REMARK    2  A    between atoms: C_2  and  C_3
REMARK    3  A    between atoms: C_3  and  C_4
REMARK    4  A    between atoms: C_4  and  C_5
REMARK    5  A    between atoms: C_5  and  C_6
REMARK    6  A    between atoms: C_8  and  C_9
REMARK    7  A    between atoms: C_9  and  O_11
REMARK    8  A    between atoms: C_12  and  C_13
REMARK    9  A    between atoms: C_16  and  C_17
REMARK   10  A    between atoms: N_21  and  S_22
REMARK   11  A    between atoms: S_22  and  C_25
REMARK   12  A    between atoms: C_28  and  C_29
REMARK                            x       y       z     vdW  Elec       q    Type
REMARK                         _______ _______ _______ _____ _____    ______ ____
ROOT
ATOM      1  C   UNL     1       5.517   4.317  16.373  0.00  0.00    +0.000 C 
ATOM      2  C   UNL     1       4.314   3.446  16.500  0.00  0.00    +0.000 C 
ATOM      3  C   UNL     1       3.627   3.718  17.616  0.00  0.00    +0.000 C 
ATOM      4  C   UNL     1       4.241   4.840  18.417  0.00  0.00    +0.000 C 
ATOM      5  N   UNL     1       5.505   5.115  17.632  0.00  0.00    +0.000 NA
ENDROOT
BRANCH   4   6
ATOM      6  C   UNL     1       3.362   6.091  18.597  0.00  0.00    +0.000 A 
ATOM      7  C   UNL     1       2.670   6.392  19.787  0.00  0.00    +0.000 A 
ATOM      8  C   UNL     1       1.962   7.594  19.944  0.00  0.00    +0.000 A 
ATOM      9  C   UNL     1       1.906   8.524  18.906  0.00  0.00    +0.000 A 
ATOM     10  C   UNL     1       2.577   8.247  17.716  0.00  0.00    +0.000 A 
ATOM     11  C   UNL     1       3.300   7.054  17.573  0.00  0.00    +0.000 A 
BRANCH   9  12
ATOM     12  C   UNL     1       1.176   9.748  19.062  0.00  0.00    +0.000 C 
ATOM     13  N   UNL     1       0.591  10.742  19.188  0.00  0.00    +0.000 NA
ENDBRANCH   9  12
ENDBRANCH   4   6
BRANCH   5  14
ATOM     14  S   UNL     1       6.977   5.162  18.496  0.00  0.00    +0.000 S 
ATOM     15  O   UNL     1       6.691   4.977  19.904  0.00  0.00    +0.000 OA
ATOM     16  O   UNL     1       7.934   4.307  17.831  0.00  0.00    +0.000 OA
BRANCH  14  17
ATOM     17  C   UNL     1       7.566   6.833  18.320  0.00  0.00    +0.000 A 
ATOM     18  C   UNL     1       6.981   7.686  17.381  0.00  0.00    +0.000 A 
ATOM     19  C   UNL     1       7.429   9.002  17.273  0.00  0.00    +0.000 A 
ATOM     20  C   UNL     1       8.434   9.481  18.122  0.00  0.00    +0.000 A 
ATOM     21  C   UNL     1       8.909  10.901  18.021  0.00  0.00    +0.000 C 
ATOM     22  C   UNL     1       8.968   8.634  19.102  0.00  0.00    +0.000 A 
ATOM     23  C   UNL     1       8.536   7.313  19.204  0.00  0.00    +0.000 A 
ENDBRANCH  14  17
ENDBRANCH   5  14
BRANCH   3  24
ATOM     24  C   UNL     1       2.465   2.983  18.134  0.00  0.00    +0.000 C 
ATOM     25  O   UNL     1       1.475   3.542  18.569  0.00  0.00    +0.000 OA
BRANCH  24  26
ATOM     26  O   UNL     1       2.563   1.644  18.030  0.00  0.00    +0.000 OA
ATOM     27  H   UNL     1       3.367   1.307  17.594  0.00  0.00    +0.000 HD
ENDBRANCH  24  26
ENDBRANCH   3  24
BRANCH   1  28
ATOM     28  C   UNL     1       5.442   5.207  15.124  0.00  0.00    +0.000 C 
BRANCH  28  29
ATOM     29  C   UNL     1       6.476   4.805  14.072  0.00  0.00    +0.000 C 
BRANCH  29  30
ATOM     30  C   UNL     1       6.227   3.421  13.476  0.00  0.00    +0.000 C 
BRANCH  30  32
ATOM     31  C   UNL     1       4.569   3.133  11.586  0.00  0.00    +0.000 C 
ATOM     32  C   UNL     1       5.981   3.538  11.969  0.00  0.00    +0.000 C 
ENDBRANCH  30  32
ENDBRANCH  29  30
ENDBRANCH  28  29
ENDBRANCH   1  28
TORSDOF 10
ENDMDL
MODEL 3
REMARK VINA RESULT:      -7.9      0.590      1.492
REMARK  Name = 
REMARK  12 active torsions:
REMARK  status: ('A' for Active; 'I' for Inactive)
REMARK    1  A    between atoms: C_1  and  C_2
REMARK    2  A    between atoms: C_2  and  C_3
REMARK    3  A    between atoms: C_3  and  C_4
REMARK    4  A    between atoms: C_4  and  C_5
REMARK    5  A    between atoms: C_5  and  C_6
REMARK    6  A    between atoms: C_8  and  C_9
REMARK    7  A    between atoms: C_9  and  O_11
REMARK    8  A    between atoms: C_12  and  C_13
REMARK    9  A    between atoms: C_16  and  C_17
REMARK   10  A    between atoms: N_21  and  S_22
REMARK   11  A    between atoms: S_22  and  C_25
REMARK   12  A    between atoms: C_28  and  C_29
REMARK                            x       y       z     vdW  Elec       q    Type
REMARK                         _______ _______ _______ _____ _____    ______ ____
ROOT
ATOM      1  C   UNL     1       5.584   4.201  16.534  0.00  0.00    +0.000 C 
ATOM      2  C   UNL     1       4.354   3.397  16.787  0.00  0.00    +0.000 C 
ATOM      3  C   UNL     1       3.710   3.815  17.882  0.00  0.00    +0.000 C 
ATOM      4  C   UNL     1       4.387   4.994  18.539  0.00  0.00    +0.000 C 
ATOM      5  N   UNL     1       5.637   5.132  17.698  0.00  0.00    +0.000 NA
ENDROOT
BRANCH   4   6
ATOM      6  C   UNL     1       3.558   6.290  18.602  0.00  0.00    +0.000 A 
ATOM      7  C   UNL     1       3.488   7.221  17.548  0.00  0.00    +0.000 A 
ATOM      8  C   UNL     1       2.641   8.339  17.606  0.00  0.00    +0.000 A 
ATOM      9  C   UNL     1       1.853   8.572  18.733  0.00  0.00    +0.000 A 
ATOM     10  C   UNL     1       1.908   7.669  19.793  0.00  0.00    +0.000 A 
ATOM     11  C   UNL     1       2.741   6.543  19.719  0.00  0.00    +0.000 A 
BRANCH   9  12
ATOM     12  C   UNL     1       0.994   9.718  18.798  0.00  0.00    +0.000 C 
ATOM     13  N   UNL     1       0.294  10.642  18.847  0.00  0.00    +0.000 NA
ENDBRANCH   9  12
ENDBRANCH   4   6
BRANCH   5  14
ATOM     14  S   UNL     1       7.134   5.217  18.514  0.00  0.00    +0.000 S 
ATOM     15  O   UNL     1       6.900   5.008  19.928  0.00  0.00    +0.000 OA
ATOM     16  O   UNL     1       8.094   4.400  17.809  0.00  0.00    +0.000 OA
BRANCH  14  17
ATOM     17  C   UNL     1       7.664   6.907  18.339  0.00  0.00    +0.000 A 
ATOM     18  C   UNL     1       7.063   7.734  17.386  0.00  0.00    +0.000 A 
ATOM     19  C   UNL     1       7.464   9.065  17.277  0.00  0.00    +0.000 A 
ATOM     20  C   UNL     1       8.438   9.585  18.140  0.00  0.00    +0.000 A 
ATOM     21  C   UNL     1       8.862  11.020  18.038  0.00  0.00    +0.000 C 
ATOM     22  C   UNL     1       8.987   8.763  19.132  0.00  0.00    +0.000 A 
ATOM     23  C   UNL     1       8.602   7.427  19.235  0.00  0.00    +0.000 A 
ENDBRANCH  14  17
ENDBRANCH   5  14
BRANCH   3  24
ATOM     24  C   UNL     1       2.539   3.187  18.507  0.00  0.00    +0.000 C 
ATOM     25  O   UNL     1       1.533   2.904  17.882  0.00  0.00    +0.000 OA
BRANCH  24  26
ATOM     26  O   UNL     1       2.695   2.893  19.812  0.00  0.00    +0.000 OA
ATOM     27  H   UNL     1       1.908   2.541  20.267  0.00  0.00    +0.000 HD
ENDBRANCH  24  26
ENDBRANCH   3  24
BRANCH   1  28
ATOM     28  C   UNL     1       5.504   4.952  15.197  0.00  0.00    +0.000 C 
BRANCH  28  29
ATOM     29  C   UNL     1       6.486   4.391  14.167  0.00  0.00    +0.000 C 
BRANCH  29  30
ATOM     30  C   UNL     1       5.807   3.597  13.052  0.00  0.00    +0.000 C 
BRANCH  30  32
ATOM     31  C   UNL     1       6.944   2.069  11.386  0.00  0.00    +0.000 C 
ATOM     32  C   UNL     1       6.736   3.504  11.839  0.00  0.00    +0.000 C 
ENDBRANCH  30  32
ENDBRANCH  29  30
ENDBRANCH  28  29
ENDBRANCH   1  28
TORSDOF 10
ENDMDL
MODEL 4
REMARK VINA RESULT:      -7.5      0.731      1.307
REMARK  Name = 
REMARK  12 active torsions:
REMARK  status: ('A' for Active; 'I' for Inactive)
REMARK    1  A    between atoms: C_1  and  C_2
REMARK    2  A    between atoms: C_2  and  C_3
REMARK    3  A    between atoms: C_3  and  C_4
REMARK    4  A    between atoms: C_4  and  C_5
REMARK    5  A    between atoms: C_5  and  C_6
REMARK    6  A    between atoms: C_8  and  C_9
REMARK    7  A    between atoms: C_9  and  O_11
REMARK    8  A    between atoms: C_12  and  C_13
REMARK    9  A    between atoms: C_16  and  C_17
REMARK   10  A    between atoms: N_21  and  S_22
REMARK   11  A    between atoms: S_22  and  C_25
REMARK   12  A    between atoms: C_28  and  C_29
REMARK                            x       y       z     vdW  Elec       q    Type
REMARK                         _______ _______ _______ _____ _____    ______ ____
ROOT
ATOM      1  C   UNL     1       5.239   4.080  16.666  0.00  0.00    +0.000 C 
ATOM      2  C   UNL     1       3.976   3.352  16.978  0.00  0.00    +0.000 C 
ATOM      3  C   UNL     1       3.378   3.851  18.067  0.00  0.00    +0.000 C 
ATOM      4  C   UNL     1       4.128   5.019  18.658  0.00  0.00    +0.000 C 
ATOM      5  N   UNL     1       5.365   5.056  17.787  0.00  0.00    +0.000 NA
ENDROOT
BRANCH   4   6
ATOM      6  C   UNL     1       3.369   6.358  18.680  0.00  0.00    +0.000 A 
ATOM      7  C   UNL     1       3.359   7.266  17.603  0.00  0.00    +0.000 A 
ATOM      8  C   UNL     1       2.572   8.428  17.625  0.00  0.00    +0.000 A 
ATOM      9  C   UNL     1       1.786   8.730  18.737  0.00  0.00    +0.000 A 
ATOM     10  C   UNL     1       1.782   7.851  19.818  0.00  0.00    +0.000 A 
ATOM     11  C   UNL     1       2.555   6.681  19.781  0.00  0.00    +0.000 A 
BRANCH   9  12
ATOM     12  C   UNL     1       0.989   9.921  18.763  0.00  0.00    +0.000 C 
ATOM     13  N   UNL     1       0.342  10.884  18.792  0.00  0.00    +0.000 NA
ENDBRANCH   9  12
ENDBRANCH   4   6
BRANCH   5  14
ATOM     14  S   UNL     1       6.882   5.098  18.569  0.00  0.00    +0.000 S 
ATOM     15  O   UNL     1       6.678   4.864  19.984  0.00  0.00    +0.000 OA
ATOM     16  O   UNL     1       7.811   4.277  17.825  0.00  0.00    +0.000 OA
BRANCH  14  17
ATOM     17  C   UNL     1       7.439   6.781  18.415  0.00  0.00    +0.000 A 
ATOM     18  C   UNL     1       8.480   7.251  19.219  0.00  0.00    +0.000 A 
ATOM     19  C   UNL     1       8.929   8.563  19.068  0.00  0.00    +0.000 A 
ATOM     20  C   UNL     1       8.367   9.397  18.093  0.00  0.00    +0.000 A 
ATOM     21  C   UNL     1       8.856  10.804  17.916  0.00  0.00    +0.000 C 
ATOM     22  C   UNL     1       7.367   8.894  17.251  0.00  0.00    +0.000 A 
ATOM     23  C   UNL     1       6.903   7.589  17.408  0.00  0.00    +0.000 A 
ENDBRANCH  14  17
ENDBRANCH   5  14
BRANCH   3  24
ATOM     24  C   UNL     1       2.190   3.311  18.742  0.00  0.00    +0.000 C 
ATOM     25  O   UNL     1       1.137   3.117  18.162  0.00  0.00    +0.000 OA
BRANCH  24  26
ATOM     26  O   UNL     1       2.382   2.993  20.036  0.00  0.00    +0.000 OA
ATOM     27  H   UNL     1       2.488   3.744  20.649  0.00  0.00    +0.000 HD
ENDBRANCH  24  26
ENDBRANCH   3  24
BRANCH   1  28
ATOM     28  C   UNL     1       5.168   4.775  15.299  0.00  0.00    +0.000 C 
BRANCH  28  29
ATOM     29  C   UNL     1       5.986   4.036  14.239  0.00  0.00    +0.000 C 
BRANCH  29  30
ATOM     30  C   UNL     1       7.176   4.842  13.721  0.00  0.00    +0.000 C 
BRANCH  30  32
ATOM     31  C   UNL     1       6.688   3.317  11.762  0.00  0.00    +0.000 C 
ATOM     32  C   UNL     1       7.355   4.602  12.220  0.00  0.00    +0.000 C 
ENDBRANCH  30  32
ENDBRANCH  29  30
ENDBRANCH  28  29
ENDBRANCH   1  28
TORSDOF 10
ENDMDL
MODEL 5
REMARK VINA RESULT:      -7.4      0.701      1.399
REMARK  Name = 
REMARK  12 active torsions:
REMARK  status: ('A' for Active; 'I' for Inactive)
REMARK    1  A    between atoms: C_1  and  C_2
REMARK    2  A    between atoms: C_2  and  C_3
REMARK    3  A    between atoms: C_3  and  C_4
REMARK    4  A    between atoms: C_4  and  C_5
REMARK    5  A    between atoms: C_5  and  C_6
REMARK    6  A    between atoms: C_8  and  C_9
REMARK    7  A    between atoms: C_9  and  O_11
REMARK    8  A    between atoms: C_12  and  C_13
REMARK    9  A    between atoms: C_16  and  C_17
REMARK   10  A    between atoms: N_21  and  S_22
REMARK   11  A    between atoms: S_22  and  C_25
REMARK   12  A    between atoms: C_28  and  C_29
REMARK                            x       y       z     vdW  Elec       q    Type
REMARK                         _______ _______ _______ _____ _____    ______ ____
ROOT
ATOM      1  C   UNL     1       5.549   4.047  16.268  0.00  0.00    +0.000 C 
ATOM      2  C   UNL     1       4.338   3.203  16.483  0.00  0.00    +0.000 C 
ATOM      3  C   UNL     1       3.688   3.553  17.600  0.00  0.00    +0.000 C 
ATOM      4  C   UNL     1       4.341   4.712  18.312  0.00  0.00    +0.000 C 
ATOM      5  N   UNL     1       5.585   4.920  17.476  0.00  0.00    +0.000 NA
ENDROOT
BRANCH   4   6
ATOM      6  C   UNL     1       3.484   5.985  18.441  0.00  0.00    +0.000 A 
ATOM      7  C   UNL     1       2.709   6.291  19.576  0.00  0.00    +0.000 A 
ATOM      8  C   UNL     1       2.023   7.510  19.694  0.00  0.00    +0.000 A 
ATOM      9  C   UNL     1       2.074   8.454  18.668  0.00  0.00    +0.000 A 
ATOM     10  C   UNL     1       2.830   8.173  17.532  0.00  0.00    +0.000 A 
ATOM     11  C   UNL     1       3.529   6.962  17.429  0.00  0.00    +0.000 A 
BRANCH   9  12
ATOM     12  C   UNL     1       1.367   9.695  18.784  0.00  0.00    +0.000 C 
ATOM     13  N   UNL     1       0.797  10.701  18.885  0.00  0.00    +0.000 NA
ENDBRANCH   9  12
ENDBRANCH   4   6
BRANCH   5  14
ATOM     14  S   UNL     1       7.083   4.998  18.293  0.00  0.00    +0.000 S 
ATOM     15  O   UNL     1       6.856   4.730  19.698  0.00  0.00    +0.000 OA
ATOM     16  O   UNL     1       8.054   4.224  17.554  0.00  0.00    +0.000 OA
BRANCH  14  17
ATOM     17  C   UNL     1       7.584   6.702  18.181  0.00  0.00    +0.000 A 
ATOM     18  C   UNL     1       6.986   7.548  17.244  0.00  0.00    +0.000 A 
ATOM     19  C   UNL     1       7.365   8.889  17.186  0.00  0.00    +0.000 A 
ATOM     20  C   UNL     1       8.312   9.398  18.084  0.00  0.00    +0.000 A 
ATOM     21  C   UNL     1       8.712  10.843  18.036  0.00  0.00    +0.000 C 
ATOM     22  C   UNL     1       8.858   8.554  19.060  0.00  0.00    +0.000 A 
ATOM     23  C   UNL     1       8.495   7.209  19.112  0.00  0.00    +0.000 A 
ENDBRANCH  14  17
ENDBRANCH   5  14
BRANCH   3  24
ATOM     24  C   UNL     1       2.534   2.869  18.195  0.00  0.00    +0.000 C 
ATOM     25  O   UNL     1       2.649   2.004  19.045  0.00  0.00    +0.000 OA
BRANCH  24  26
ATOM     26  O   UNL     1       1.338   3.319  17.769  0.00  0.00    +0.000 OA
ATOM     27  H   UNL     1       0.714   2.640  17.455  0.00  0.00    +0.000 HD
ENDBRANCH  24  26
ENDBRANCH   3  24
BRANCH   1  28
ATOM     28  C   UNL     1       5.448   4.860  14.970  0.00  0.00    +0.000 C 
BRANCH  28  29
ATOM     29  C   UNL     1       5.446   3.962  13.731  0.00  0.00    +0.000 C 
BRANCH  29  30
ATOM     30  C   UNL     1       6.610   4.237  12.782  0.00  0.00    +0.000 C 
BRANCH  30  32
ATOM     31  C   UNL     1       8.492   5.907  12.514  0.00  0.00    +0.000 C 
ATOM     32  C   UNL     1       7.673   5.081  13.490  0.00  0.00    +0.000 C 
ENDBRANCH  30  32
ENDBRANCH  29  30
ENDBRANCH  28  29
ENDBRANCH   1  28
TORSDOF 10
ENDMDL
MODEL 6
REMARK VINA RESULT:      -7.2      0.828      1.591
REMARK  Name = 
REMARK  12 active torsions:
REMARK  status: ('A' for Active; 'I' for Inactive)
REMARK    1  A    between atoms: C_1  and  C_2
REMARK    2  A    between atoms: C_2  and  C_3
REMARK    3  A    between atoms: C_3  and  C_4
REMARK    4  A    between atoms: C_4  and  C_5
REMARK    5  A    between atoms: C_5  and  C_6
REMARK    6  A    between atoms: C_8  and  C_9
REMARK    7  A    between atoms: C_9  and  O_11
REMARK    8  A    between atoms: C_12  and  C_13
REMARK    9  A    between atoms: C_16  and  C_17
REMARK   10  A    between atoms: N_21  and  S_22
REMARK   11  A    between atoms: S_22  and  C_25
REMARK   12  A    between atoms: C_28  and  C_29
REMARK                            x       y       z     vdW  Elec       q    Type
REMARK                         _______ _______ _______ _____ _____    ______ ____
ROOT
ATOM      1  C   UNL     1       5.258   4.294  16.398  0.00  0.00    +0.000 C 
ATOM      2  C   UNL     1       4.023   3.511  16.688  0.00  0.00    +0.000 C 
ATOM      3  C   UNL     1       3.463   3.889  17.844  0.00  0.00    +0.000 C 
ATOM      4  C   UNL     1       4.216   5.011  18.515  0.00  0.00    +0.000 C 
ATOM      5  N   UNL     1       5.414   5.159  17.602  0.00  0.00    +0.000 NA
ENDROOT
BRANCH   4   6
ATOM      6  C   UNL     1       3.435   6.325  18.698  0.00  0.00    +0.000 A 
ATOM      7  C   UNL     1       3.336   7.318  17.704  0.00  0.00    +0.000 A 
ATOM      8  C   UNL     1       2.530   8.454  17.874  0.00  0.00    +0.000 A 
ATOM      9  C   UNL     1       1.814   8.644  19.056  0.00  0.00    +0.000 A 
ATOM     10  C   UNL     1       1.899   7.679  20.057  0.00  0.00    +0.000 A 
ATOM     11  C   UNL     1       2.690   6.536  19.873  0.00  0.00    +0.000 A 
BRANCH   9  12
ATOM     12  C   UNL     1       0.998   9.809  19.233  0.00  0.00    +0.000 C 
ATOM     13  N   UNL     1       0.342  10.756  19.379  0.00  0.00    +0.000 NA
ENDBRANCH   9  12
ENDBRANCH   4   6
BRANCH   5  14
ATOM     14  S   UNL     1       6.962   5.159  18.323  0.00  0.00    +0.000 S 
ATOM     15  O   UNL     1       6.813   4.868  19.734  0.00  0.00    +0.000 OA
ATOM     16  O   UNL     1       7.853   4.364  17.508  0.00  0.00    +0.000 OA
BRANCH  14  17
ATOM     17  C   UNL     1       7.526   6.843  18.215  0.00  0.00    +0.000 A 
ATOM     18  C   UNL     1       6.928   7.725  17.311  0.00  0.00    +0.000 A 
ATOM     19  C   UNL     1       7.356   9.051  17.256  0.00  0.00    +0.000 A 
ATOM     20  C   UNL     1       8.354   9.510  18.125  0.00  0.00    +0.000 A 
ATOM     21  C   UNL     1       8.808  10.940  18.081  0.00  0.00    +0.000 C 
ATOM     22  C   UNL     1       8.901   8.632  19.070  0.00  0.00    +0.000 A 
ATOM     23  C   UNL     1       8.489   7.302  19.118  0.00  0.00    +0.000 A 
ENDBRANCH  14  17
ENDBRANCH   5  14
BRANCH   3  24
ATOM     24  C   UNL     1       2.315   3.261  18.510  0.00  0.00    +0.000 C 
ATOM     25  O   UNL     1       2.416   2.655  19.562  0.00  0.00    +0.000 OA
BRANCH  24  26
ATOM     26  O   UNL     1       1.134   3.464  17.895  0.00  0.00    +0.000 OA
ATOM     27  H   UNL     1       0.909   4.392  17.698  0.00  0.00    +0.000 HD
ENDBRANCH  24  26
ENDBRANCH   3  24
BRANCH   1  28
ATOM     28  C   UNL     1       5.117   5.116  15.109  0.00  0.00    +0.000 C 
BRANCH  28  29
ATOM     29  C   UNL     1       5.697   4.384  13.898  0.00  0.00    +0.000 C 
BRANCH  29  30
ATOM     30  C   UNL     1       7.204   4.575  13.739  0.00  0.00    +0.000 C 
BRANCH  30  32
ATOM     31  C   UNL     1       7.828   6.001  11.745  0.00  0.00    +0.000 C 
ATOM     32  C   UNL     1       7.575   4.594  12.254  0.00  0.00    +0.000 C 
ENDBRANCH  30  32
ENDBRANCH  29  30
ENDBRANCH  28  29
ENDBRANCH   1  28
TORSDOF 10
ENDMDL
MODEL 7
REMARK VINA RESULT:      -6.8      8.168     10.084
REMARK  Name = 
REMARK  12 active torsions:
REMARK  status: ('A' for Active; 'I' for Inactive)
REMARK    1  A    between atoms: C_1  and  C_2
REMARK    2  A    between atoms: C_2  and  C_3
REMARK    3  A    between atoms: C_3  and  C_4
REMARK    4  A    between atoms: C_4  and  C_5
REMARK    5  A    between atoms: C_5  and  C_6
REMARK    6  A    between atoms: C_8  and  C_9
REMARK    7  A    between atoms: C_9  and  O_11
REMARK    8  A    between atoms: C_12  and  C_13
REMARK    9  A    between atoms: C_16  and  C_17
REMARK   10  A    between atoms: N_21  and  S_22
REMARK   11  A    between atoms: S_22  and  C_25
REMARK   12  A    between atoms: C_28  and  C_29
REMARK                            x       y       z     vdW  Elec       q    Type
REMARK                         _______ _______ _______ _____ _____    ______ ____
ROOT
ATOM      1  C   UNL     1       0.836  11.879  19.960  0.00  0.00    +0.000 C 
ATOM      2  C   UNL     1       0.665  10.534  20.579  0.00  0.00    +0.000 C 
ATOM      3  C   UNL     1      -0.007  10.606  21.734  0.00  0.00    +0.000 C 
ATOM      4  C   UNL     1      -0.425  12.016  22.075  0.00  0.00    +0.000 C 
ATOM      5  N   UNL     1       0.231  12.803  20.962  0.00  0.00    +0.000 NA
ENDROOT
BRANCH   4   6
ATOM      6  C   UNL     1      -1.943  12.258  22.169  0.00  0.00    +0.000 A 
ATOM      7  C   UNL     1      -2.656  12.270  23.383  0.00  0.00    +0.000 A 
ATOM      8  C   UNL     1      -4.021  12.595  23.433  0.00  0.00    +0.000 A 
ATOM      9  C   UNL     1      -4.720  12.898  22.265  0.00  0.00    +0.000 A 
ATOM     10  C   UNL     1      -4.039  12.887  21.050  0.00  0.00    +0.000 A 
ATOM     11  C   UNL     1      -2.670  12.581  21.009  0.00  0.00    +0.000 A 
BRANCH   9  12
ATOM     12  C   UNL     1      -6.116  13.221  22.315  0.00  0.00    +0.000 C 
ATOM     13  N   UNL     1      -7.245  13.486  22.349  0.00  0.00    +0.000 NA
ENDBRANCH   9  12
ENDBRANCH   4   6
BRANCH   5  14
ATOM     14  S   UNL     1       1.183  14.151  21.402  0.00  0.00    +0.000 S 
ATOM     15  O   UNL     1       0.602  14.761  22.580  0.00  0.00    +0.000 OA
ATOM     16  O   UNL     1       2.574  13.756  21.399  0.00  0.00    +0.000 OA
BRANCH  14  17
ATOM     17  C   UNL     1       0.974  15.320  20.076  0.00  0.00    +0.000 A 
ATOM     18  C   UNL     1      -0.294  15.549  19.538  0.00  0.00    +0.000 A 
ATOM     19  C   UNL     1      -0.452  16.490  18.521  0.00  0.00    +0.000 A 
ATOM     20  C   UNL     1       0.646  17.230  18.063  0.00  0.00    +0.000 A 
ATOM     21  C   UNL     1       0.480  18.254  16.980  0.00  0.00    +0.000 C 
ATOM     22  C   UNL     1       1.901  17.036  18.655  0.00  0.00    +0.000 A 
ATOM     23  C   UNL     1       2.068  16.086  19.660  0.00  0.00    +0.000 A 
ENDBRANCH  14  17
ENDBRANCH   5  14
BRANCH   3  24
ATOM     24  C   UNL     1      -0.252   9.509  22.679  0.00  0.00    +0.000 C 
ATOM     25  O   UNL     1      -0.809   8.475  22.355  0.00  0.00    +0.000 OA
BRANCH  24  26
ATOM     26  O   UNL     1       0.245   9.716  23.914  0.00  0.00    +0.000 OA
ATOM     27  H   UNL     1       0.238   8.945  24.511  0.00  0.00    +0.000 HD
ENDBRANCH  24  26
ENDBRANCH   3  24
BRANCH   1  28
ATOM     28  C   UNL     1       0.137  11.967  18.596  0.00  0.00    +0.000 C 
BRANCH  28  29
ATOM     29  C   UNL     1      -0.743  10.746  18.325  0.00  0.00    +0.000 C 
BRANCH  29  30
ATOM     30  C   UNL     1      -2.042  11.085  17.595  0.00  0.00    +0.000 C 
BRANCH  30  32
ATOM     31  C   UNL     1      -2.899  10.544  15.276  0.00  0.00    +0.000 C 
ATOM     32  C   UNL     1      -2.376   9.983  16.586  0.00  0.00    +0.000 C 
ENDBRANCH  30  32
ENDBRANCH  29  30
ENDBRANCH  28  29
ENDBRANCH   1  28
TORSDOF 10
ENDMDL
MODEL 8
REMARK VINA RESULT:      -6.8      5.825     10.358
REMARK  Name = 
REMARK  12 active torsions:
REMARK  status: ('A' for Active; 'I' for Inactive)
REMARK    1  A    between atoms: C_1  and  C_2
REMARK    2  A    between atoms: C_2  and  C_3
REMARK    3  A    between atoms: C_3  and  C_4
REMARK    4  A    between atoms: C_4  and  C_5
REMARK    5  A    between atoms: C_5  and  C_6
REMARK    6  A    between atoms: C_8  and  C_9
REMARK    7  A    between atoms: C_9  and  O_11
REMARK    8  A    between atoms: C_12  and  C_13
REMARK    9  A    between atoms: C_16  and  C_17
REMARK   10  A    between atoms: N_21  and  S_22
REMARK   11  A    between atoms: S_22  and  C_25
REMARK   12  A    between atoms: C_28  and  C_29
REMARK                            x       y       z     vdW  Elec       q    Type
REMARK                         _______ _______ _______ _____ _____    ______ ____
ROOT
ATOM      1  C   UNL     1      -0.592  12.205  21.016  0.00  0.00    +0.000 C 
ATOM      2  C   UNL     1      -1.626  11.757  20.040  0.00  0.00    +0.000 C 
ATOM      3  C   UNL     1      -1.070  11.257  18.930  0.00  0.00    +0.000 C 
ATOM      4  C   UNL     1       0.438  11.260  18.984  0.00  0.00    +0.000 C 
ATOM      5  N   UNL     1       0.692  11.975  20.294  0.00  0.00    +0.000 NA
ENDROOT
BRANCH   4   6
ATOM      6  C   UNL     1       1.113   9.878  18.914  0.00  0.00    +0.000 A 
ATOM      7  C   UNL     1       1.771   9.390  17.768  0.00  0.00    +0.000 A 
ATOM      8  C   UNL     1       2.460   8.168  17.778  0.00  0.00    +0.000 A 
ATOM      9  C   UNL     1       2.493   7.383  18.931  0.00  0.00    +0.000 A 
ATOM     10  C   UNL     1       1.845   7.840  20.077  0.00  0.00    +0.000 A 
ATOM     11  C   UNL     1       1.176   9.073  20.066  0.00  0.00    +0.000 A 
BRANCH   9  12
ATOM     12  C   UNL     1       3.190   6.130  18.940  0.00  0.00    +0.000 C 
ATOM     13  N   UNL     1       3.759   5.119  18.943  0.00  0.00    +0.000 NA
ENDBRANCH   9  12
ENDBRANCH   4   6
BRANCH   5  14
ATOM     14  S   UNL     1       1.783  13.288  20.280  0.00  0.00    +0.000 S 
ATOM     15  O   UNL     1       2.348  13.432  21.606  0.00  0.00    +0.000 OA
ATOM     16  O   UNL     1       2.651  13.158  19.131  0.00  0.00    +0.000 OA
BRANCH  14  17
ATOM     17  C   UNL     1       0.774  14.728  20.006  0.00  0.00    +0.000 A 
ATOM     18  C   UNL     1       0.462  15.577  21.071  0.00  0.00    +0.000 A 
ATOM     19  C   UNL     1      -0.304  16.719  20.840  0.00  0.00    +0.000 A 
ATOM     20  C   UNL     1      -0.730  17.038  19.545  0.00  0.00    +0.000 A 
ATOM     21  C   UNL     1      -1.541  18.273  19.288  0.00  0.00    +0.000 C 
ATOM     22  C   UNL     1      -0.357  16.213  18.476  0.00  0.00    +0.000 A 
ATOM     23  C   UNL     1       0.395  15.061  18.703  0.00  0.00    +0.000 A 
ENDBRANCH  14  17
ENDBRANCH   5  14
BRANCH   3  24
ATOM     24  C   UNL     1      -1.769  10.837  17.709  0.00  0.00    +0.000 C 
ATOM     25  O   UNL     1      -2.375   9.784  17.627  0.00  0.00    +0.000 OA
BRANCH  24  26
ATOM     26  O   UNL     1      -1.737  11.741  16.711  0.00  0.00    +0.000 OA
ATOM     27  H   UNL     1      -2.341  11.573  15.964  0.00  0.00    +0.000 HD
ENDBRANCH  24  26
ENDBRANCH   3  24
BRANCH   1  28
ATOM     28  C   UNL     1      -0.669  11.410  22.327  0.00  0.00    +0.000 C 
BRANCH  28  29
ATOM     29  C   UNL     1      -1.988  11.649  23.064  0.00  0.00    +0.000 C 
BRANCH  29  30
ATOM     30  C   UNL     1      -2.293  13.128  23.295  0.00  0.00    +0.000 C 
BRANCH  30  32
ATOM     31  C   UNL     1      -4.333  12.473  24.640  0.00  0.00    +0.000 C 
ATOM     32  C   UNL     1      -3.797  13.324  23.504  0.00  0.00    +0.000 C 
ENDBRANCH  30  32
ENDBRANCH  29  30
ENDBRANCH  28  29
ENDBRANCH   1  28
TORSDOF 10
ENDMDL
MODEL 9
REMARK VINA RESULT:      -6.7      8.021     10.312
REMARK  Name = 
REMARK  12 active torsions:
REMARK  status: ('A' for Active; 'I' for Inactive)
REMARK    1  A    between atoms: C_1  and  C_2
REMARK    2  A    between atoms: C_2  and  C_3
REMARK    3  A    between atoms: C_3  and  C_4
REMARK    4  A    between atoms: C_4  and  C_5
REMARK    5  A    between atoms: C_5  and  C_6
REMARK    6  A    between atoms: C_8  and  C_9
REMARK    7  A    between atoms: C_9  and  O_11
REMARK    8  A    between atoms: C_12  and  C_13
REMARK    9  A    between atoms: C_16  and  C_17
REMARK   10  A    between atoms: N_21  and  S_22
REMARK   11  A    between atoms: S_22  and  C_25
REMARK   12  A    between atoms: C_28  and  C_29
REMARK                            x       y       z     vdW  Elec       q    Type
REMARK                         _______ _______ _______ _____ _____    ______ ____
ROOT
ATOM      1  C   UNL     1       0.808  11.399  19.719  0.00  0.00    +0.000 C 
ATOM      2  C   UNL     1       0.681  10.182  20.572  0.00  0.00    +0.000 C 
ATOM      3  C   UNL     1       0.092  10.462  21.741  0.00  0.00    +0.000 C 
ATOM      4  C   UNL     1      -0.301  11.914  21.860  0.00  0.00    +0.000 C 
ATOM      5  N   UNL     1       0.276  12.489  20.585  0.00  0.00    +0.000 NA
ENDROOT
BRANCH   4   6
ATOM      6  C   UNL     1      -1.809  12.187  22.015  0.00  0.00    +0.000 A 
ATOM      7  C   UNL     1      -2.479  12.174  23.253  0.00  0.00    +0.000 A 
ATOM      8  C   UNL     1      -3.833  12.528  23.362  0.00  0.00    +0.000 A 
ATOM      9  C   UNL     1      -4.565  12.887  22.230  0.00  0.00    +0.000 A 
ATOM     10  C   UNL     1      -3.926  12.903  20.992  0.00  0.00    +0.000 A 
ATOM     11  C   UNL     1      -2.567  12.567  20.893  0.00  0.00    +0.000 A 
BRANCH   9  12
ATOM     12  C   UNL     1      -5.950  13.240  22.339  0.00  0.00    +0.000 C 
ATOM     13  N   UNL     1      -7.069  13.532  22.432  0.00  0.00    +0.000 NA
ENDBRANCH   9  12
ENDBRANCH   4   6
BRANCH   5  14
ATOM     14  S   UNL     1       1.257  13.880  20.718  0.00  0.00    +0.000 S 
ATOM     15  O   UNL     1       1.501  14.139  22.122  0.00  0.00    +0.000 OA
ATOM     16  O   UNL     1       2.366  13.755  19.800  0.00  0.00    +0.000 OA
BRANCH  14  17
ATOM     17  C   UNL     1       0.245  15.221  20.130  0.00  0.00    +0.000 A 
ATOM     18  C   UNL     1       0.384  15.679  18.817  0.00  0.00    +0.000 A 
ATOM     19  C   UNL     1      -0.435  16.710  18.357  0.00  0.00    +0.000 A 
ATOM     20  C   UNL     1      -1.416  17.261  19.189  0.00  0.00    +0.000 A 
ATOM     21  C   UNL     1      -2.310  18.359  18.695  0.00  0.00    +0.000 C 
ATOM     22  C   UNL     1      -1.588  16.750  20.483  0.00  0.00    +0.000 A 
ATOM     23  C   UNL     1      -0.761  15.731  20.954  0.00  0.00    +0.000 A 
ENDBRANCH  14  17
ENDBRANCH   5  14
BRANCH   3  24
ATOM     24  C   UNL     1      -0.087   9.547  22.876  0.00  0.00    +0.000 C 
ATOM     25  O   UNL     1       0.451   9.725  23.954  0.00  0.00    +0.000 OA
BRANCH  24  26
ATOM     26  O   UNL     1      -0.941   8.532  22.644  0.00  0.00    +0.000 OA
ATOM     27  H   UNL     1      -0.591   7.636  22.799  0.00  0.00    +0.000 HD
ENDBRANCH  24  26
ENDBRANCH   3  24
BRANCH   1  28
ATOM     28  C   UNL     1       0.015  11.258  18.412  0.00  0.00    +0.000 C 
BRANCH  28  29
ATOM     29  C   UNL     1      -1.179  10.316  18.567  0.00  0.00    +0.000 C 
BRANCH  29  30
ATOM     30  C   UNL     1      -1.809   9.913  17.235  0.00  0.00    +0.000 C 
BRANCH  30  32
ATOM     31  C   UNL     1      -3.862  11.364  17.525  0.00  0.00    +0.000 C 
ATOM     32  C   UNL     1      -2.637  11.074  16.676  0.00  0.00    +0.000 C 
ENDBRANCH  30  32
ENDBRANCH  29  30
ENDBRANCH  28  29
ENDBRANCH   1  28
TORSDOF 10
ENDMDL
