MODEL 1
REMARK VINA RESULT:      -6.1      0.000      0.000
REMARK  Name = 
REMARK  6 active torsions:
REMARK  status: ('A' for Active; 'I' for Inactive)
REMARK    1  A    between atoms: C_2  and  C_3
REMARK    2  A    between atoms: C_2  and  C_7
REMARK    3  A    between atoms: C_3  and  O_5
REMARK    4  A    between atoms: O_5  and  C_6
REMARK    5  A    between atoms: C_7  and  O_8
REMARK    6  A    between atoms: C_7  and  C_9
REMARK                            x       y       z     vdW  Elec       q    Type
REMARK                         _______ _______ _______ _____ _____    ______ ____
ROOT
ATOM      1  C   UNL     1       4.712   5.149  17.053  0.00  0.00    +0.000 C 
ENDROOT
BRANCH   1   2
ATOM      2  C   UNL     1       3.619   4.175  17.485  0.00  0.00    +0.000 A 
ATOM      3  C   UNL     1       3.805   2.787  17.584  0.00  0.00    +0.000 A 
ATOM      4  C   UNL     1       2.772   1.958  18.037  0.00  0.00    +0.000 A 
ATOM      5  C   UNL     1       1.538   2.499  18.388  0.00  0.00    +0.000 A 
ATOM      6  C   UNL     1       1.325   3.869  18.271  0.00  0.00    +0.000 A 
ATOM      7  C   UNL     1       2.356   4.698  17.825  0.00  0.00    +0.000 A 
ENDBRANCH   1   2
BRANCH   1   9
ATOM      8  C   UNL     1       5.950   5.160  19.257  0.00  0.00    +0.000 C 
ATOM      9  C   UNL     1       5.955   5.196  17.909  0.00  0.00    +0.000 C 
BRANCH   9  10
ATOM     10  C   UNL     1       7.290   5.208  17.245  0.00  0.00    +0.000 C 
ATOM     11  O   UNL     1       8.089   4.280  17.303  0.00  0.00    +0.000 OA
BRANCH  10  12
ATOM     12  O   UNL     1       7.491   6.365  16.570  0.00  0.00    +0.000 OA
ATOM     13  C   UNL     1       7.622   7.523  17.400  0.00  0.00    +0.000 C 
ENDBRANCH  10  12
ENDBRANCH   9  10
ENDBRANCH   1   9
BRANCH   1  14
ATOM     14  O   UNL     1       5.094   4.835  15.704  0.00  0.00    +0.000 OA
ATOM     15  H   UNL     1       5.970   5.233  15.561  0.00  0.00    +0.000 HD
ENDBRANCH   1  14
TORSDOF 5
ENDMDL
MODEL 2
REMARK VINA RESULT:      -6.1      1.900      2.590
REMARK  Name = 
REMARK  6 active torsions:
REMARK  status: ('A' for Active; 'I' for Inactive)
REMARK    1  A    between atoms: C_2  and  C_3
REMARK    2  A    between atoms: C_2  and  C_7
REMARK    3  A    between atoms: C_3  and  O_5
REMARK    4  A    between atoms: O_5  and  C_6
REMARK    5  A    between atoms: C_7  and  O_8
REMARK    6  A    between atoms: C_7  and  C_9
REMARK                            x       y       z     vdW  Elec       q    Type
REMARK                         _______ _______ _______ _____ _____    ______ ____
ROOT
ATOM      1  C   UNL     1       5.474   6.040  16.568  0.00  0.00    +0.000 C 
ENDROOT
BRANCH   1   2
ATOM      2  C   UNL     1       4.235   5.351  17.135  0.00  0.00    +0.000 A 
ATOM      3  C   UNL     1       3.894   4.016  16.871  0.00  0.00    +0.000 A 
ATOM      4  C   UNL     1       2.770   3.434  17.467  0.00  0.00    +0.000 A 
ATOM      5  C   UNL     1       1.964   4.177  18.326  0.00  0.00    +0.000 A 
ATOM      6  C   UNL     1       2.269   5.511  18.579  0.00  0.00    +0.000 A 
ATOM      7  C   UNL     1       3.394   6.091  17.989  0.00  0.00    +0.000 A 
ENDBRANCH   1   2
BRANCH   1   9
ATOM      8  C   UNL     1       7.411   4.592  17.307  0.00  0.00    +0.000 C 
ATOM      9  C   UNL     1       6.683   5.168  16.328  0.00  0.00    +0.000 C 
BRANCH   9  10
ATOM     10  C   UNL     1       7.074   4.846  14.925  0.00  0.00    +0.000 C 
ATOM     11  O   UNL     1       7.996   5.394  14.331  0.00  0.00    +0.000 OA
BRANCH  10  12
ATOM     12  O   UNL     1       6.287   3.871  14.409  0.00  0.00    +0.000 OA
ATOM     13  C   UNL     1       6.344   3.751  12.985  0.00  0.00    +0.000 C 
ENDBRANCH  10  12
ENDBRANCH   9  10
ENDBRANCH   1   9
BRANCH   1  14
ATOM     14  O   UNL     1       5.114   6.678  15.332  0.00  0.00    +0.000 OA
ATOM     15  H   UNL     1       4.927   7.609  15.541  0.00  0.00    +0.000 HD
ENDBRANCH   1  14
TORSDOF 5
ENDMDL
MODEL 3
REMARK VINA RESULT:      -6.0      1.781      2.358
REMARK  Name = 
REMARK  6 active torsions:
REMARK  status: ('A' for Active; 'I' for Inactive)
REMARK    1  A    between atoms: C_2  and  C_3
REMARK    2  A    between atoms: C_2  and  C_7
REMARK    3  A    between atoms: C_3  and  O_5
REMARK    4  A    between atoms: O_5  and  C_6
REMARK    5  A    between atoms: C_7  and  O_8
REMARK    6  A    between atoms: C_7  and  C_9
REMARK                            x       y       z     vdW  Elec       q    Type
REMARK                         _______ _______ _______ _____ _____    ______ ____
ROOT
ATOM      1  C   UNL     1       4.938   3.916  17.873  0.00  0.00    +0.000 C 
ENDROOT
BRANCH   1   2
ATOM      2  C   UNL     1       3.563   3.976  18.535  0.00  0.00    +0.000 A 
ATOM      3  C   UNL     1       2.391   3.477  17.947  0.00  0.00    +0.000 A 
ATOM      4  C   UNL     1       1.173   3.520  18.633  0.00  0.00    +0.000 A 
ATOM      5  C   UNL     1       1.103   4.070  19.911  0.00  0.00    +0.000 A 
ATOM      6  C   UNL     1       2.248   4.596  20.500  0.00  0.00    +0.000 A 
ATOM      7  C   UNL     1       3.466   4.549  19.818  0.00  0.00    +0.000 A 
ENDBRANCH   1   2
BRANCH   1   9
ATOM      8  C   UNL     1       4.608   6.230  16.911  0.00  0.00    +0.000 C 
ATOM      9  C   UNL     1       5.331   5.097  17.019  0.00  0.00    +0.000 C 
BRANCH   9  10
ATOM     10  C   UNL     1       6.635   5.063  16.295  0.00  0.00    +0.000 C 
ATOM     11  O   UNL     1       7.689   4.704  16.807  0.00  0.00    +0.000 OA
BRANCH  10  12
ATOM     12  O   UNL     1       6.493   5.471  15.012  0.00  0.00    +0.000 OA
ATOM     13  C   UNL     1       6.564   4.423  14.042  0.00  0.00    +0.000 C 
ENDBRANCH  10  12
ENDBRANCH   9  10
ENDBRANCH   1   9
BRANCH   1  14
ATOM     14  O   UNL     1       5.928   3.741  18.900  0.00  0.00    +0.000 OA
ATOM     15  H   UNL     1       5.988   2.785  19.072  0.00  0.00    +0.000 HD
ENDBRANCH   1  14
TORSDOF 5
ENDMDL
MODEL 4
REMARK VINA RESULT:      -6.0      1.301      1.735
REMARK  Name = 
REMARK  6 active torsions:
REMARK  status: ('A' for Active; 'I' for Inactive)
REMARK    1  A    between atoms: C_2  and  C_3
REMARK    2  A    between atoms: C_2  and  C_7
REMARK    3  A    between atoms: C_3  and  O_5
REMARK    4  A    between atoms: O_5  and  C_6
REMARK    5  A    between atoms: C_7  and  O_8
REMARK    6  A    between atoms: C_7  and  C_9
REMARK                            x       y       z     vdW  Elec       q    Type
REMARK                         _______ _______ _______ _____ _____    ______ ____
ROOT
ATOM      1  C   UNL     1       4.733   4.191  16.519  0.00  0.00    +0.000 C 
ENDROOT
BRANCH   1   2
ATOM      2  C   UNL     1       3.826   3.650  17.622  0.00  0.00    +0.000 A 
ATOM      3  C   UNL     1       4.287   3.238  18.881  0.00  0.00    +0.000 A 
ATOM      4  C   UNL     1       3.392   2.801  19.863  0.00  0.00    +0.000 A 
ATOM      5  C   UNL     1       2.025   2.758  19.601  0.00  0.00    +0.000 A 
ATOM      6  C   UNL     1       1.549   3.136  18.349  0.00  0.00    +0.000 A 
ATOM      7  C   UNL     1       2.442   3.577  17.370  0.00  0.00    +0.000 A 
ENDBRANCH   1   2
BRANCH   1   9
ATOM      8  C   UNL     1       4.679   6.676  16.979  0.00  0.00    +0.000 C 
ATOM      9  C   UNL     1       5.369   5.537  16.766  0.00  0.00    +0.000 C 
BRANCH   9  10
ATOM     10  C   UNL     1       6.855   5.628  16.860  0.00  0.00    +0.000 C 
ATOM     11  O   UNL     1       7.552   6.253  16.068  0.00  0.00    +0.000 OA
BRANCH  10  12
ATOM     12  O   UNL     1       7.321   4.940  17.930  0.00  0.00    +0.000 OA
ATOM     13  C   UNL     1       7.684   5.753  19.049  0.00  0.00    +0.000 C 
ENDBRANCH  10  12
ENDBRANCH   9  10
ENDBRANCH   1   9
BRANCH   1  14
ATOM     14  O   UNL     1       5.771   3.229  16.273  0.00  0.00    +0.000 OA
ATOM     15  H   UNL     1       6.124   2.967  17.141  0.00  0.00    +0.000 HD
ENDBRANCH   1  14
TORSDOF 5
ENDMDL
MODEL 5
REMARK VINA RESULT:      -6.0      1.431      1.985
REMARK  Name = 
REMARK  6 active torsions:
REMARK  status: ('A' for Active; 'I' for Inactive)
REMARK    1  A    between atoms: C_2  and  C_3
REMARK    2  A    between atoms: C_2  and  C_7
REMARK    3  A    between atoms: C_3  and  O_5
REMARK    4  A    between atoms: O_5  and  C_6
REMARK    5  A    between atoms: C_7  and  O_8
REMARK    6  A    between atoms: C_7  and  C_9
REMARK                            x       y       z     vdW  Elec       q    Type
REMARK                         _______ _______ _______ _____ _____    ______ ____
ROOT
ATOM      1  C   UNL     1       5.100   4.200  17.646  0.00  0.00    +0.000 C 
ENDROOT
BRANCH   1   2
ATOM      2  C   UNL     1       3.775   4.200  18.405  0.00  0.00    +0.000 A 
ATOM      3  C   UNL     1       3.615   4.728  19.695  0.00  0.00    +0.000 A 
ATOM      4  C   UNL     1       2.358   4.742  20.311  0.00  0.00    +0.000 A 
ATOM      5  C   UNL     1       1.246   4.220  19.654  0.00  0.00    +0.000 A 
ATOM      6  C   UNL     1       1.389   3.668  18.385  0.00  0.00    +0.000 A 
ATOM      7  C   UNL     1       2.642   3.659  17.767  0.00  0.00    +0.000 A 
ENDBRANCH   1   2
BRANCH   1   9
ATOM      8  C   UNL     1       4.609   6.480  16.671  0.00  0.00    +0.000 C 
ATOM      9  C   UNL     1       5.472   5.477  16.932  0.00  0.00    +0.000 C 
BRANCH   9  10
ATOM     10  C   UNL     1       6.895   5.701  16.547  0.00  0.00    +0.000 C 
ATOM     11  O   UNL     1       7.622   4.829  16.084  0.00  0.00    +0.000 OA
BRANCH  10  12
ATOM     12  O   UNL     1       7.266   6.985  16.767  0.00  0.00    +0.000 OA
ATOM     13  C   UNL     1       7.836   7.228  18.056  0.00  0.00    +0.000 C 
ENDBRANCH  10  12
ENDBRANCH   9  10
ENDBRANCH   1   9
BRANCH   1  14
ATOM     14  O   UNL     1       6.151   3.864  18.566  0.00  0.00    +0.000 OA
ATOM     15  H   UNL     1       5.791   3.988  19.461  0.00  0.00    +0.000 HD
ENDBRANCH   1  14
TORSDOF 5
ENDMDL
MODEL 6
REMARK VINA RESULT:      -6.0      1.486      1.892
REMARK  Name = 
REMARK  6 active torsions:
REMARK  status: ('A' for Active; 'I' for Inactive)
REMARK    1  A    between atoms: C_2  and  C_3
REMARK    2  A    between atoms: C_2  and  C_7
REMARK    3  A    between atoms: C_3  and  O_5
REMARK    4  A    between atoms: O_5  and  C_6
REMARK    5  A    between atoms: C_7  and  O_8
REMARK    6  A    between atoms: C_7  and  C_9
REMARK                            x       y       z     vdW  Elec       q    Type
REMARK                         _______ _______ _______ _____ _____    ______ ____
ROOT
ATOM      1  C   UNL     1       4.927   4.331  17.779  0.00  0.00    +0.000 C 
ENDROOT
BRANCH   1   2
ATOM      2  C   UNL     1       3.561   4.175  18.444  0.00  0.00    +0.000 A 
ATOM      3  C   UNL     1       2.428   3.667  17.791  0.00  0.00    +0.000 A 
ATOM      4  C   UNL     1       1.220   3.504  18.479  0.00  0.00    +0.000 A 
ATOM      5  C   UNL     1       1.122   3.853  19.823  0.00  0.00    +0.000 A 
ATOM      6  C   UNL     1       2.227   4.383  20.482  0.00  0.00    +0.000 A 
ATOM      7  C   UNL     1       3.434   4.542  19.798  0.00  0.00    +0.000 A 
ENDBRANCH   1   2
BRANCH   1   9
ATOM      8  C   UNL     1       4.395   6.712  17.119  0.00  0.00    +0.000 C 
ATOM      9  C   UNL     1       5.284   5.710  17.281  0.00  0.00    +0.000 C 
BRANCH   9  10
ATOM     10  C   UNL     1       6.715   6.035  17.016  0.00  0.00    +0.000 C 
ATOM     11  O   UNL     1       7.609   5.197  16.981  0.00  0.00    +0.000 OA
BRANCH  10  12
ATOM     12  O   UNL     1       6.886   7.363  16.814  0.00  0.00    +0.000 OA
ATOM     13  C   UNL     1       7.846   7.979  17.678  0.00  0.00    +0.000 C 
ENDBRANCH  10  12
ENDBRANCH   9  10
ENDBRANCH   1   9
BRANCH   1  14
ATOM     14  O   UNL     1       5.936   3.901  18.707  0.00  0.00    +0.000 OA
ATOM     15  H   UNL     1       5.950   2.929  18.677  0.00  0.00    +0.000 HD
ENDBRANCH   1  14
TORSDOF 5
ENDMDL
MODEL 7
REMARK VINA RESULT:      -5.9      1.869      2.720
REMARK  Name = 
REMARK  6 active torsions:
REMARK  status: ('A' for Active; 'I' for Inactive)
REMARK    1  A    between atoms: C_2  and  C_3
REMARK    2  A    between atoms: C_2  and  C_7
REMARK    3  A    between atoms: C_3  and  O_5
REMARK    4  A    between atoms: O_5  and  C_6
REMARK    5  A    between atoms: C_7  and  O_8
REMARK    6  A    between atoms: C_7  and  C_9
REMARK                            x       y       z     vdW  Elec       q    Type
REMARK                         _______ _______ _______ _____ _____    ______ ____
ROOT
ATOM      1  C   UNL     1       4.434   3.974  17.767  0.00  0.00    +0.000 C 
ENDROOT
BRANCH   1   2
ATOM      2  C   UNL     1       3.204   3.699  18.627  0.00  0.00    +0.000 A 
ATOM      3  C   UNL     1       3.140   3.957  20.005  0.00  0.00    +0.000 A 
ATOM      4  C   UNL     1       1.960   3.729  20.721  0.00  0.00    +0.000 A 
ATOM      5  C   UNL     1       0.830   3.230  20.078  0.00  0.00    +0.000 A 
ATOM      6  C   UNL     1       0.881   2.941  18.717  0.00  0.00    +0.000 A 
ATOM      7  C   UNL     1       2.056   3.174  18.000  0.00  0.00    +0.000 A 
ENDBRANCH   1   2
BRANCH   1   9
ATOM      8  C   UNL     1       3.951   6.451  17.629  0.00  0.00    +0.000 C 
ATOM      9  C   UNL     1       4.522   5.338  17.126  0.00  0.00    +0.000 C 
BRANCH   9  10
ATOM     10  C   UNL     1       5.348   5.507  15.896  0.00  0.00    +0.000 C 
ATOM     11  O   UNL     1       5.325   6.510  15.191  0.00  0.00    +0.000 OA
BRANCH  10  12
ATOM     12  O   UNL     1       6.123   4.418  15.673  0.00  0.00    +0.000 OA
ATOM     13  C   UNL     1       6.218   4.024  14.302  0.00  0.00    +0.000 C 
ENDBRANCH  10  12
ENDBRANCH   9  10
ENDBRANCH   1   9
BRANCH   1  14
ATOM     14  O   UNL     1       5.607   3.768  18.572  0.00  0.00    +0.000 OA
ATOM     15  H   UNL     1       5.381   4.051  19.475  0.00  0.00    +0.000 HD
ENDBRANCH   1  14
TORSDOF 5
ENDMDL
MODEL 8
REMARK VINA RESULT:      -5.9      1.647      2.158
REMARK  Name = 
REMARK  6 active torsions:
REMARK  status: ('A' for Active; 'I' for Inactive)
REMARK    1  A    between atoms: C_2  and  C_3
REMARK    2  A    between atoms: C_2  and  C_7
REMARK    3  A    between atoms: C_3  and  O_5
REMARK    4  A    between atoms: O_5  and  C_6
REMARK    5  A    between atoms: C_7  and  O_8
REMARK    6  A    between atoms: C_7  and  C_9
REMARK                            x       y       z     vdW  Elec       q    Type
REMARK                         _______ _______ _______ _____ _____    ______ ____
ROOT
ATOM      1  C   UNL     1       5.417   4.095  18.825  0.00  0.00    +0.000 C 
ENDROOT
BRANCH   1   2
ATOM      2  C   UNL     1       3.964   4.162  19.287  0.00  0.00    +0.000 A 
ATOM      3  C   UNL     1       3.107   3.052  19.333  0.00  0.00    +0.000 A 
ATOM      4  C   UNL     1       1.800   3.178  19.817  0.00  0.00    +0.000 A 
ATOM      5  C   UNL     1       1.325   4.413  20.251  0.00  0.00    +0.000 A 
ATOM      6  C   UNL     1       2.150   5.532  20.188  0.00  0.00    +0.000 A 
ATOM      7  C   UNL     1       3.457   5.406  19.711  0.00  0.00    +0.000 A 
ENDBRANCH   1   2
BRANCH   1   9
ATOM      8  C   UNL     1       4.759   4.593  16.436  0.00  0.00    +0.000 C 
ATOM      9  C   UNL     1       5.696   4.517  17.403  0.00  0.00    +0.000 C 
BRANCH   9  10
ATOM     10  C   UNL     1       7.074   4.956  17.036  0.00  0.00    +0.000 C 
ATOM     11  O   UNL     1       8.074   4.266  17.194  0.00  0.00    +0.000 OA
BRANCH  10  12
ATOM     12  O   UNL     1       7.065   6.202  16.505  0.00  0.00    +0.000 OA
ATOM     13  C   UNL     1       7.471   7.237  17.406  0.00  0.00    +0.000 C 
ENDBRANCH  10  12
ENDBRANCH   9  10
ENDBRANCH   1   9
BRANCH   1  14
ATOM     14  O   UNL     1       6.213   4.901  19.709  0.00  0.00    +0.000 OA
ATOM     15  H   UNL     1       7.127   4.575  19.640  0.00  0.00    +0.000 HD
ENDBRANCH   1  14
TORSDOF 5
ENDMDL
MODEL 9
REMARK VINA RESULT:      -5.9      1.964      2.692
REMARK  Name = 
REMARK  6 active torsions:
REMARK  status: ('A' for Active; 'I' for Inactive)
REMARK    1  A    between atoms: C_2  and  C_3
REMARK    2  A    between atoms: C_2  and  C_7
REMARK    3  A    between atoms: C_3  and  O_5
REMARK    4  A    between atoms: O_5  and  C_6
REMARK    5  A    between atoms: C_7  and  O_8
REMARK    6  A    between atoms: C_7  and  C_9
REMARK                            x       y       z     vdW  Elec       q    Type
REMARK                         _______ _______ _______ _____ _____    ______ ____
ROOT
ATOM      1  C   UNL     1       3.646   3.461  17.635  0.00  0.00    +0.000 C 
ENDROOT
BRANCH   1   2
ATOM      2  C   UNL     1       2.815   3.393  18.914  0.00  0.00    +0.000 A 
ATOM      3  C   UNL     1       1.478   3.812  19.000  0.00  0.00    +0.000 A 
ATOM      4  C   UNL     1       0.760   3.672  20.192  0.00  0.00    +0.000 A 
ATOM      5  C   UNL     1       1.367   3.122  21.319  0.00  0.00    +0.000 A 
ATOM      6  C   UNL     1       2.699   2.726  21.263  0.00  0.00    +0.000 A 
ATOM      7  C   UNL     1       3.415   2.860  20.071  0.00  0.00    +0.000 A 
ENDBRANCH   1   2
BRANCH   1   9
ATOM      8  C   UNL     1       4.240   5.919  17.611  0.00  0.00    +0.000 C 
ATOM      9  C   UNL     1       4.602   4.624  17.511  0.00  0.00    +0.000 C 
BRANCH   9  10
ATOM     10  C   UNL     1       6.058   4.347  17.340  0.00  0.00    +0.000 C 
ATOM     11  O   UNL     1       6.886   4.477  18.234  0.00  0.00    +0.000 OA
BRANCH  10  12
ATOM     12  O   UNL     1       6.332   3.930  16.081  0.00  0.00    +0.000 OA
ATOM     13  C   UNL     1       6.976   4.905  15.257  0.00  0.00    +0.000 C 
ENDBRANCH  10  12
ENDBRANCH   9  10
ENDBRANCH   1   9
BRANCH   1  14
ATOM     14  O   UNL     1       4.390   2.239  17.511  0.00  0.00    +0.000 OA
ATOM     15  H   UNL     1       4.597   2.130  16.566  0.00  0.00    +0.000 HD
ENDBRANCH   1  14
TORSDOF 5
ENDMDL
