MODEL 1
REMARK VINA RESULT:      -5.7      0.000      0.000
REMARK  Name = 
REMARK  22 active torsions:
REMARK  status: ('A' for Active; 'I' for Inactive)
REMARK    1  A    between atoms: C_1  and  C_2
REMARK    2  A    between atoms: C_2  and  C_3
REMARK    3  A    between atoms: C_3  and  C_4
REMARK    4  A    between atoms: C_4  and  C_5
REMARK    5  A    between atoms: C_5  and  C_6
REMARK    6  A    between atoms: C_6  and  C_7
REMARK    7  A    between atoms: C_7  and  C_8
REMARK    8  A    between atoms: C_8  and  C_9
REMARK    9  A    between atoms: C_9  and  C_10
REMARK   10  A    between atoms: C_10  and  C_11
REMARK   11  A    between atoms: C_11  and  C_12
REMARK   12  A    between atoms: C_12  and  C_13
REMARK   13  A    between atoms: C_13  and  C_14
REMARK   14  A    between atoms: C_14  and  C_15
REMARK   15  A    between atoms: C_15  and  C_16
REMARK   16  A    between atoms: C_16  and  O_17
REMARK   17  A    between atoms: O_17  and  C_18
REMARK   18  A    between atoms: C_21  and  C_22
REMARK   19  A    between atoms: C_23  and  C_24
REMARK   20  A    between atoms: C_24  and  O_26
REMARK   21  A    between atoms: O_26  and  C_27
REMARK   22  A    between atoms: C_27  and  C_28
REMARK                            x       y       z     vdW  Elec       q    Type
REMARK                         _______ _______ _______ _____ _____    ______ ____
ROOT
ATOM      1  C   UNL     1       1.569   8.333  17.909  0.00  0.00    +0.000 C 
ENDROOT
BRANCH   1   2
ATOM      2  O   UNL     1       1.671   9.739  18.141  0.00  0.00    +0.000 OA
BRANCH   2   3
ATOM      3  C   UNL     1       0.487  10.347  18.461  0.00  0.00    +0.000 A 
ATOM      4  C   UNL     1       0.542  11.314  19.461  0.00  0.00    +0.000 A 
ATOM      5  C   UNL     1      -0.638  11.922  19.924  0.00  0.00    +0.000 A 
ATOM      6  C   UNL     1      -1.880  11.656  19.317  0.00  0.00    +0.000 A 
ATOM      7  C   UNL     1      -1.904  10.678  18.311  0.00  0.00    +0.000 A 
ATOM      8  C   UNL     1      -0.738  10.039  17.887  0.00  0.00    +0.000 A 
BRANCH   6   9
ATOM      9  C   UNL     1      -3.104  12.389  19.727  0.00  0.00    +0.000 C 
ATOM     10  C   UNL     1      -3.475  12.623  20.999  0.00  0.00    +0.000 C 
BRANCH  10  11
ATOM     11  C   UNL     1      -4.764  13.310  21.308  0.00  0.00    +0.000 C 
ATOM     12  O   UNL     1      -4.920  14.128  22.179  0.00  0.00    +0.000 OA
BRANCH  11  13
ATOM     13  O   UNL     1      -5.726  12.807  20.485  0.00  0.00    +0.000 OA
BRANCH  13  14
ATOM     14  C   UNL     1      -6.777  12.079  21.155  0.00  0.00    +0.000 C 
BRANCH  14  15
ATOM     15  C   UNL     1      -7.343  10.958  20.302  0.00  0.00    +0.000 C 
ATOM     16 BR   UNL     1      -6.554  10.998  18.518  0.00  0.00    +0.000 Br
ENDBRANCH  14  15
ENDBRANCH  13  14
ENDBRANCH  11  13
ENDBRANCH  10  11
ENDBRANCH   6   9
ENDBRANCH   2   3
ENDBRANCH   1   2
BRANCH   1  17
ATOM     17  C   UNL     1       2.956   7.715  18.043  0.00  0.00    +0.000 C 
BRANCH  17  18
ATOM     18  C   UNL     1       3.013   6.739  19.213  0.00  0.00    +0.000 C 
BRANCH  18  19
ATOM     19  C   UNL     1       2.042   7.148  20.313  0.00  0.00    +0.000 C 
BRANCH  19  20
ATOM     20  C   UNL     1       1.313   5.934  20.859  0.00  0.00    +0.000 C 
BRANCH  20  21
ATOM     21  C   UNL     1       2.229   4.723  20.841  0.00  0.00    +0.000 C 
BRANCH  21  22
ATOM     22  C   UNL     1       1.415   3.454  21.021  0.00  0.00    +0.000 C 
BRANCH  22  23
ATOM     23  C   UNL     1       1.667   2.506  19.864  0.00  0.00    +0.000 C 
BRANCH  23  24
ATOM     24  C   UNL     1       0.899   2.966  18.640  0.00  0.00    +0.000 C 
BRANCH  24  25
ATOM     25  C   UNL     1       1.822   3.727  17.706  0.00  0.00    +0.000 C 
BRANCH  25  26
ATOM     26  C   UNL     1       3.038   2.880  17.378  0.00  0.00    +0.000 C 
BRANCH  26  27
ATOM     27  C   UNL     1       4.304   3.609  17.792  0.00  0.00    +0.000 C 
BRANCH  27  28
ATOM     28  C   UNL     1       4.766   4.525  16.670  0.00  0.00    +0.000 C 
BRANCH  28  29
ATOM     29  C   UNL     1       6.216   4.925  16.885  0.00  0.00    +0.000 C 
BRANCH  29  31
ATOM     30  C   UNL     1       7.696   6.077  18.531  0.00  0.00    +0.000 C 
ATOM     31  C   UNL     1       6.315   6.049  17.907  0.00  0.00    +0.000 C 
ENDBRANCH  29  31
ENDBRANCH  28  29
ENDBRANCH  27  28
ENDBRANCH  26  27
ENDBRANCH  25  26
ENDBRANCH  24  25
ENDBRANCH  23  24
ENDBRANCH  22  23
ENDBRANCH  21  22
ENDBRANCH  20  21
ENDBRANCH  19  20
ENDBRANCH  18  19
ENDBRANCH  17  18
ENDBRANCH   1  17
TORSDOF 21
ENDMDL
MODEL 2
REMARK VINA RESULT:      -5.7      2.318      4.238
REMARK  Name = 
REMARK  22 active torsions:
REMARK  status: ('A' for Active; 'I' for Inactive)
REMARK    1  A    between atoms: C_1  and  C_2
REMARK    2  A    between atoms: C_2  and  C_3
REMARK    3  A    between atoms: C_3  and  C_4
REMARK    4  A    between atoms: C_4  and  C_5
REMARK    5  A    between atoms: C_5  and  C_6
REMARK    6  A    between atoms: C_6  and  C_7
REMARK    7  A    between atoms: C_7  and  C_8
REMARK    8  A    between atoms: C_8  and  C_9
REMARK    9  A    between atoms: C_9  and  C_10
REMARK   10  A    between atoms: C_10  and  C_11
REMARK   11  A    between atoms: C_11  and  C_12
REMARK   12  A    between atoms: C_12  and  C_13
REMARK   13  A    between atoms: C_13  and  C_14
REMARK   14  A    between atoms: C_14  and  C_15
REMARK   15  A    between atoms: C_15  and  C_16
REMARK   16  A    between atoms: C_16  and  O_17
REMARK   17  A    between atoms: O_17  and  C_18
REMARK   18  A    between atoms: C_21  and  C_22
REMARK   19  A    between atoms: C_23  and  C_24
REMARK   20  A    between atoms: C_24  and  O_26
REMARK   21  A    between atoms: O_26  and  C_27
REMARK   22  A    between atoms: C_27  and  C_28
REMARK                            x       y       z     vdW  Elec       q    Type
REMARK                         _______ _______ _______ _____ _____    ______ ____
ROOT
ATOM      1  C   UNL     1       2.399   4.814  20.967  0.00  0.00    +0.000 C 
ENDROOT
BRANCH   1   2
ATOM      2  O   UNL     1       2.949   5.622  19.925  0.00  0.00    +0.000 OA
BRANCH   2   3
ATOM      3  C   UNL     1       2.343   6.840  19.775  0.00  0.00    +0.000 A 
ATOM      4  C   UNL     1       2.470   7.441  18.526  0.00  0.00    +0.000 A 
ATOM      5  C   UNL     1       1.964   8.734  18.307  0.00  0.00    +0.000 A 
ATOM      6  C   UNL     1       1.224   9.404  19.300  0.00  0.00    +0.000 A 
ATOM      7  C   UNL     1       1.112   8.772  20.548  0.00  0.00    +0.000 A 
ATOM      8  C   UNL     1       1.658   7.509  20.779  0.00  0.00    +0.000 A 
BRANCH   6   9
ATOM      9  C   UNL     1       0.589  10.717  19.025  0.00  0.00    +0.000 C 
ATOM     10  C   UNL     1      -0.727  10.976  19.134  0.00  0.00    +0.000 C 
BRANCH  10  11
ATOM     11  C   UNL     1      -1.279  12.314  18.764  0.00  0.00    +0.000 C 
ATOM     12  O   UNL     1      -1.600  13.169  19.549  0.00  0.00    +0.000 OA
BRANCH  11  13
ATOM     13  O   UNL     1      -1.409  12.364  17.409  0.00  0.00    +0.000 OA
BRANCH  13  14
ATOM     14  C   UNL     1      -2.234  11.324  16.841  0.00  0.00    +0.000 C 
BRANCH  14  15
ATOM     15  C   UNL     1      -3.664  11.375  17.348  0.00  0.00    +0.000 C 
ATOM     16 BR   UNL     1      -4.186   9.645  18.082  0.00  0.00    +0.000 Br
ENDBRANCH  14  15
ENDBRANCH  13  14
ENDBRANCH  11  13
ENDBRANCH  10  11
ENDBRANCH   6   9
ENDBRANCH   2   3
ENDBRANCH   1   2
BRANCH   1  17
ATOM     17  C   UNL     1       1.086   4.215  20.478  0.00  0.00    +0.000 C 
BRANCH  17  18
ATOM     18  C   UNL     1       1.184   2.698  20.359  0.00  0.00    +0.000 C 
BRANCH  18  19
ATOM     19  C   UNL     1       0.802   2.233  18.959  0.00  0.00    +0.000 C 
BRANCH  19  20
ATOM     20  C   UNL     1       1.834   2.691  17.945  0.00  0.00    +0.000 C 
BRANCH  20  21
ATOM     21  C   UNL     1       3.122   1.906  18.119  0.00  0.00    +0.000 C 
BRANCH  21  22
ATOM     22  C   UNL     1       4.291   2.859  18.296  0.00  0.00    +0.000 C 
BRANCH  22  23
ATOM     23  C   UNL     1       4.352   3.828  17.130  0.00  0.00    +0.000 C 
BRANCH  23  24
ATOM     24  C   UNL     1       5.408   3.379  16.138  0.00  0.00    +0.000 C 
BRANCH  24  25
ATOM     25  C   UNL     1       5.388   4.280  14.917  0.00  0.00    +0.000 C 
BRANCH  25  26
ATOM     26  C   UNL     1       6.174   5.548  15.197  0.00  0.00    +0.000 C 
BRANCH  26  27
ATOM     27  C   UNL     1       5.235   6.647  15.663  0.00  0.00    +0.000 C 
BRANCH  27  28
ATOM     28  C   UNL     1       5.700   7.192  17.003  0.00  0.00    +0.000 C 
BRANCH  28  29
ATOM     29  C   UNL     1       6.992   6.512  17.426  0.00  0.00    +0.000 C 
BRANCH  29  31
ATOM     30  C   UNL     1       8.126   5.677  19.486  0.00  0.00    +0.000 C 
ATOM     31  C   UNL     1       6.805   5.785  18.750  0.00  0.00    +0.000 C 
ENDBRANCH  29  31
ENDBRANCH  28  29
ENDBRANCH  27  28
ENDBRANCH  26  27
ENDBRANCH  25  26
ENDBRANCH  24  25
ENDBRANCH  23  24
ENDBRANCH  22  23
ENDBRANCH  21  22
ENDBRANCH  20  21
ENDBRANCH  19  20
ENDBRANCH  18  19
ENDBRANCH  17  18
ENDBRANCH   1  17
TORSDOF 21
ENDMDL
MODEL 3
REMARK VINA RESULT:      -5.7      5.529      9.715
REMARK  Name = 
REMARK  22 active torsions:
REMARK  status: ('A' for Active; 'I' for Inactive)
REMARK    1  A    between atoms: C_1  and  C_2
REMARK    2  A    between atoms: C_2  and  C_3
REMARK    3  A    between atoms: C_3  and  C_4
REMARK    4  A    between atoms: C_4  and  C_5
REMARK    5  A    between atoms: C_5  and  C_6
REMARK    6  A    between atoms: C_6  and  C_7
REMARK    7  A    between atoms: C_7  and  C_8
REMARK    8  A    between atoms: C_8  and  C_9
REMARK    9  A    between atoms: C_9  and  C_10
REMARK   10  A    between atoms: C_10  and  C_11
REMARK   11  A    between atoms: C_11  and  C_12
REMARK   12  A    between atoms: C_12  and  C_13
REMARK   13  A    between atoms: C_13  and  C_14
REMARK   14  A    between atoms: C_14  and  C_15
REMARK   15  A    between atoms: C_15  and  C_16
REMARK   16  A    between atoms: C_16  and  O_17
REMARK   17  A    between atoms: O_17  and  C_18
REMARK   18  A    between atoms: C_21  and  C_22
REMARK   19  A    between atoms: C_23  and  C_24
REMARK   20  A    between atoms: C_24  and  O_26
REMARK   21  A    between atoms: O_26  and  C_27
REMARK   22  A    between atoms: C_27  and  C_28
REMARK                            x       y       z     vdW  Elec       q    Type
REMARK                         _______ _______ _______ _____ _____    ______ ____
ROOT
ATOM      1  C   UNL     1       5.673   3.967  17.256  0.00  0.00    +0.000 C 
ENDROOT
BRANCH   1   2
ATOM      2  O   UNL     1       6.889   4.242  17.953  0.00  0.00    +0.000 OA
BRANCH   2   3
ATOM      3  C   UNL     1       7.264   5.559  17.938  0.00  0.00    +0.000 A 
ATOM      4  C   UNL     1       8.038   5.991  19.011  0.00  0.00    +0.000 A 
ATOM      5  C   UNL     1       8.389   7.347  19.131  0.00  0.00    +0.000 A 
ATOM      6  C   UNL     1       8.068   8.273  18.121  0.00  0.00    +0.000 A 
ATOM      7  C   UNL     1       7.290   7.808  17.050  0.00  0.00    +0.000 A 
ATOM      8  C   UNL     1       6.899   6.471  16.959  0.00  0.00    +0.000 A 
BRANCH   6   9
ATOM      9  C   UNL     1       8.545   9.677  18.192  0.00  0.00    +0.000 C 
ATOM     10  C   UNL     1       9.324  10.180  19.167  0.00  0.00    +0.000 C 
BRANCH  10  11
ATOM     11  C   UNL     1       9.691  11.628  19.186  0.00  0.00    +0.000 C 
ATOM     12  O   UNL     1       9.554  12.388  18.261  0.00  0.00    +0.000 OA
BRANCH  11  13
ATOM     13  O   UNL     1      10.256  11.910  20.393  0.00  0.00    +0.000 OA
BRANCH  13  14
ATOM     14  C   UNL     1      10.587  13.300  20.597  0.00  0.00    +0.000 C 
BRANCH  14  15
ATOM     15  C   UNL     1       9.808  13.921  21.743  0.00  0.00    +0.000 C 
ATOM     16 BR   UNL     1       8.754  12.561  22.662  0.00  0.00    +0.000 Br
ENDBRANCH  14  15
ENDBRANCH  13  14
ENDBRANCH  11  13
ENDBRANCH  10  11
ENDBRANCH   6   9
ENDBRANCH   2   3
ENDBRANCH   1   2
BRANCH   1  17
ATOM     17  C   UNL     1       4.542   3.861  18.272  0.00  0.00    +0.000 C 
BRANCH  17  18
ATOM     18  C   UNL     1       3.722   2.595  18.050  0.00  0.00    +0.000 C 
BRANCH  18  19
ATOM     19  C   UNL     1       2.287   2.933  17.665  0.00  0.00    +0.000 C 
BRANCH  19  20
ATOM     20  C   UNL     1       1.315   2.380  18.690  0.00  0.00    +0.000 C 
BRANCH  20  21
ATOM     21  C   UNL     1       0.618   3.519  19.416  0.00  0.00    +0.000 C 
BRANCH  21  22
ATOM     22  C   UNL     1       1.363   3.850  20.697  0.00  0.00    +0.000 C 
BRANCH  22  23
ATOM     23  C   UNL     1       2.225   5.081  20.493  0.00  0.00    +0.000 C 
BRANCH  23  24
ATOM     24  C   UNL     1       1.557   6.291  21.118  0.00  0.00    +0.000 C 
BRANCH  24  25
ATOM     25  C   UNL     1       1.893   7.538  20.320  0.00  0.00    +0.000 C 
BRANCH  25  26
ATOM     26  C   UNL     1       2.507   7.149  18.988  0.00  0.00    +0.000 C 
BRANCH  26  27
ATOM     27  C   UNL     1       1.837   7.919  17.865  0.00  0.00    +0.000 C 
BRANCH  27  28
ATOM     28  C   UNL     1       2.391   9.332  17.800  0.00  0.00    +0.000 C 
BRANCH  28  29
ATOM     29  C   UNL     1       1.331  10.331  18.234  0.00  0.00    +0.000 C 
BRANCH  29  31
ATOM     30  C   UNL     1      -1.121  10.747  18.040  0.00  0.00    +0.000 C 
ATOM     31  C   UNL     1      -0.049   9.690  18.211  0.00  0.00    +0.000 C 
ENDBRANCH  29  31
ENDBRANCH  28  29
ENDBRANCH  27  28
ENDBRANCH  26  27
ENDBRANCH  25  26
ENDBRANCH  24  25
ENDBRANCH  23  24
ENDBRANCH  22  23
ENDBRANCH  21  22
ENDBRANCH  20  21
ENDBRANCH  19  20
ENDBRANCH  18  19
ENDBRANCH  17  18
ENDBRANCH   1  17
TORSDOF 21
ENDMDL
MODEL 4
REMARK VINA RESULT:      -5.6      1.778      2.148
REMARK  Name = 
REMARK  22 active torsions:
REMARK  status: ('A' for Active; 'I' for Inactive)
REMARK    1  A    between atoms: C_1  and  C_2
REMARK    2  A    between atoms: C_2  and  C_3
REMARK    3  A    between atoms: C_3  and  C_4
REMARK    4  A    between atoms: C_4  and  C_5
REMARK    5  A    between atoms: C_5  and  C_6
REMARK    6  A    between atoms: C_6  and  C_7
REMARK    7  A    between atoms: C_7  and  C_8
REMARK    8  A    between atoms: C_8  and  C_9
REMARK    9  A    between atoms: C_9  and  C_10
REMARK   10  A    between atoms: C_10  and  C_11
REMARK   11  A    between atoms: C_11  and  C_12
REMARK   12  A    between atoms: C_12  and  C_13
REMARK   13  A    between atoms: C_13  and  C_14
REMARK   14  A    between atoms: C_14  and  C_15
REMARK   15  A    between atoms: C_15  and  C_16
REMARK   16  A    between atoms: C_16  and  O_17
REMARK   17  A    between atoms: O_17  and  C_18
REMARK   18  A    between atoms: C_21  and  C_22
REMARK   19  A    between atoms: C_23  and  C_24
REMARK   20  A    between atoms: C_24  and  O_26
REMARK   21  A    between atoms: O_26  and  C_27
REMARK   22  A    between atoms: C_27  and  C_28
REMARK                            x       y       z     vdW  Elec       q    Type
REMARK                         _______ _______ _______ _____ _____    ______ ____
ROOT
ATOM      1  C   UNL     1       2.006   8.181  17.943  0.00  0.00    +0.000 C 
ENDROOT
BRANCH   1   2
ATOM      2  O   UNL     1       2.149   8.963  19.129  0.00  0.00    +0.000 OA
BRANCH   2   3
ATOM      3  C   UNL     1       1.099   9.804  19.382  0.00  0.00    +0.000 A 
ATOM      4  C   UNL     1       1.017  10.942  18.585  0.00  0.00    +0.000 A 
ATOM      5  C   UNL     1       0.030  11.912  18.834  0.00  0.00    +0.000 A 
ATOM      6  C   UNL     1      -0.961  11.707  19.813  0.00  0.00    +0.000 A 
ATOM      7  C   UNL     1      -0.853  10.549  20.599  0.00  0.00    +0.000 A 
ATOM      8  C   UNL     1       0.158   9.612  20.383  0.00  0.00    +0.000 A 
BRANCH   6   9
ATOM      9  C   UNL     1      -2.072  12.675  19.991  0.00  0.00    +0.000 C 
ATOM     10  C   UNL     1      -3.349  12.346  20.257  0.00  0.00    +0.000 C 
BRANCH  10  11
ATOM     11  C   UNL     1      -4.409  13.393  20.347  0.00  0.00    +0.000 C 
ATOM     12  O   UNL     1      -5.355  13.486  19.607  0.00  0.00    +0.000 OA
BRANCH  11  13
ATOM     13  O   UNL     1      -4.083  14.245  21.360  0.00  0.00    +0.000 OA
BRANCH  13  14
ATOM     14  C   UNL     1      -5.067  14.338  22.413  0.00  0.00    +0.000 C 
BRANCH  14  15
ATOM     15  C   UNL     1      -5.398  12.986  23.019  0.00  0.00    +0.000 C 
ATOM     16 BR   UNL     1      -4.287  12.655  24.589  0.00  0.00    +0.000 Br
ENDBRANCH  14  15
ENDBRANCH  13  14
ENDBRANCH  11  13
ENDBRANCH  10  11
ENDBRANCH   6   9
ENDBRANCH   2   3
ENDBRANCH   1   2
BRANCH   1  17
ATOM     17  C   UNL     1       1.946   6.709  18.333  0.00  0.00    +0.000 C 
BRANCH  17  18
ATOM     18  C   UNL     1       2.549   6.482  19.715  0.00  0.00    +0.000 C 
BRANCH  18  19
ATOM     19  C   UNL     1       1.631   5.627  20.579  0.00  0.00    +0.000 C 
BRANCH  19  20
ATOM     20  C   UNL     1       2.420   4.532  21.274  0.00  0.00    +0.000 C 
BRANCH  20  21
ATOM     21  C   UNL     1       1.752   3.186  21.052  0.00  0.00    +0.000 C 
BRANCH  21  22
ATOM     22  C   UNL     1       0.756   3.283  19.910  0.00  0.00    +0.000 C 
BRANCH  22  23
ATOM     23  C   UNL     1       1.229   2.449  18.735  0.00  0.00    +0.000 C 
BRANCH  23  24
ATOM     24  C   UNL     1       2.627   1.922  19.003  0.00  0.00    +0.000 C 
BRANCH  24  25
ATOM     25  C   UNL     1       3.500   2.127  17.778  0.00  0.00    +0.000 C 
BRANCH  25  26
ATOM     26  C   UNL     1       3.321   3.536  17.245  0.00  0.00    +0.000 C 
BRANCH  26  27
ATOM     27  C   UNL     1       4.671   4.222  17.131  0.00  0.00    +0.000 C 
BRANCH  27  28
ATOM     28  C   UNL     1       5.428   4.099  18.442  0.00  0.00    +0.000 C 
BRANCH  28  29
ATOM     29  C   UNL     1       5.916   5.466  18.895  0.00  0.00    +0.000 C 
BRANCH  29  31
ATOM     30  C   UNL     1       7.440   6.907  17.543  0.00  0.00    +0.000 C 
ATOM     31  C   UNL     1       7.353   5.694  18.449  0.00  0.00    +0.000 C 
ENDBRANCH  29  31
ENDBRANCH  28  29
ENDBRANCH  27  28
ENDBRANCH  26  27
ENDBRANCH  25  26
ENDBRANCH  24  25
ENDBRANCH  23  24
ENDBRANCH  22  23
ENDBRANCH  21  22
ENDBRANCH  20  21
ENDBRANCH  19  20
ENDBRANCH  18  19
ENDBRANCH  17  18
ENDBRANCH   1  17
TORSDOF 21
ENDMDL
MODEL 5
REMARK VINA RESULT:      -5.4      5.456      8.700
REMARK  Name = 
REMARK  22 active torsions:
REMARK  status: ('A' for Active; 'I' for Inactive)
REMARK    1  A    between atoms: C_1  and  C_2
REMARK    2  A    between atoms: C_2  and  C_3
REMARK    3  A    between atoms: C_3  and  C_4
REMARK    4  A    between atoms: C_4  and  C_5
REMARK    5  A    between atoms: C_5  and  C_6
REMARK    6  A    between atoms: C_6  and  C_7
REMARK    7  A    between atoms: C_7  and  C_8
REMARK    8  A    between atoms: C_8  and  C_9
REMARK    9  A    between atoms: C_9  and  C_10
REMARK   10  A    between atoms: C_10  and  C_11
REMARK   11  A    between atoms: C_11  and  C_12
REMARK   12  A    between atoms: C_12  and  C_13
REMARK   13  A    between atoms: C_13  and  C_14
REMARK   14  A    between atoms: C_14  and  C_15
REMARK   15  A    between atoms: C_15  and  C_16
REMARK   16  A    between atoms: C_16  and  O_17
REMARK   17  A    between atoms: O_17  and  C_18
REMARK   18  A    between atoms: C_21  and  C_22
REMARK   19  A    between atoms: C_23  and  C_24
REMARK   20  A    between atoms: C_24  and  O_26
REMARK   21  A    between atoms: O_26  and  C_27
REMARK   22  A    between atoms: C_27  and  C_28
REMARK                            x       y       z     vdW  Elec       q    Type
REMARK                         _______ _______ _______ _____ _____    ______ ____
ROOT
ATOM      1  C   UNL     1       6.109   4.616  18.388  0.00  0.00    +0.000 C 
ENDROOT
BRANCH   1   2
ATOM      2  O   UNL     1       5.095   5.026  17.470  0.00  0.00    +0.000 OA
BRANCH   2   3
ATOM      3  C   UNL     1       4.217   5.949  17.973  0.00  0.00    +0.000 A 
ATOM      4  C   UNL     1       3.609   5.625  19.183  0.00  0.00    +0.000 A 
ATOM      5  C   UNL     1       2.623   6.466  19.728  0.00  0.00    +0.000 A 
ATOM      6  C   UNL     1       2.308   7.701  19.129  0.00  0.00    +0.000 A 
ATOM      7  C   UNL     1       2.938   8.001  17.912  0.00  0.00    +0.000 A 
ATOM      8  C   UNL     1       3.881   7.140  17.347  0.00  0.00    +0.000 A 
BRANCH   6   9
ATOM      9  C   UNL     1       1.355   8.641  19.772  0.00  0.00    +0.000 C 
ATOM     10  C   UNL     1       0.757   9.676  19.155  0.00  0.00    +0.000 C 
BRANCH  10  11
ATOM     11  C   UNL     1      -0.133  10.609  19.909  0.00  0.00    +0.000 C 
ATOM     12  O   UNL     1      -0.525  10.431  21.033  0.00  0.00    +0.000 OA
BRANCH  11  13
ATOM     13  O   UNL     1      -0.463  11.643  19.086  0.00  0.00    +0.000 OA
BRANCH  13  14
ATOM     14  C   UNL     1      -0.324  12.954  19.675  0.00  0.00    +0.000 C 
BRANCH  14  15
ATOM     15  C   UNL     1      -0.007  14.023  18.645  0.00  0.00    +0.000 C 
ATOM     16 BR   UNL     1      -0.459  15.789  19.339  0.00  0.00    +0.000 Br
ENDBRANCH  14  15
ENDBRANCH  13  14
ENDBRANCH  11  13
ENDBRANCH  10  11
ENDBRANCH   6   9
ENDBRANCH   2   3
ENDBRANCH   1   2
BRANCH   1  17
ATOM     17  C   UNL     1       7.452   5.145  17.900  0.00  0.00    +0.000 C 
BRANCH  17  18
ATOM     18  C   UNL     1       7.695   6.567  18.394  0.00  0.00    +0.000 C 
BRANCH  18  19
ATOM     19  C   UNL     1       7.629   7.564  17.246  0.00  0.00    +0.000 C 
BRANCH  19  20
ATOM     20  C   UNL     1       7.841   8.978  17.754  0.00  0.00    +0.000 C 
BRANCH  20  21
ATOM     21  C   UNL     1       8.792   8.970  18.939  0.00  0.00    +0.000 C 
BRANCH  21  22
ATOM     22  C   UNL     1       9.345  10.365  19.170  0.00  0.00    +0.000 C 
BRANCH  22  23
ATOM     23  C   UNL     1       9.233  11.185  17.899  0.00  0.00    +0.000 C 
BRANCH  23  24
ATOM     24  C   UNL     1       9.769  12.584  18.135  0.00  0.00    +0.000 C 
BRANCH  24  25
ATOM     25  C   UNL     1      10.965  12.840  17.236  0.00  0.00    +0.000 C 
BRANCH  25  26
ATOM     26  C   UNL     1      12.207  13.063  18.079  0.00  0.00    +0.000 C 
BRANCH  26  27
ATOM     27  C   UNL     1      11.810  13.449  19.493  0.00  0.00    +0.000 C 
BRANCH  27  28
ATOM     28  C   UNL     1      12.188  14.896  19.761  0.00  0.00    +0.000 C 
BRANCH  28  29
ATOM     29  C   UNL     1      11.071  15.822  19.309  0.00  0.00    +0.000 C 
BRANCH  29  31
ATOM     30  C   UNL     1      10.381  16.904  17.169  0.00  0.00    +0.000 C 
ATOM     31  C   UNL     1      11.527  16.677  18.136  0.00  0.00    +0.000 C 
ENDBRANCH  29  31
ENDBRANCH  28  29
ENDBRANCH  27  28
ENDBRANCH  26  27
ENDBRANCH  25  26
ENDBRANCH  24  25
ENDBRANCH  23  24
ENDBRANCH  22  23
ENDBRANCH  21  22
ENDBRANCH  20  21
ENDBRANCH  19  20
ENDBRANCH  18  19
ENDBRANCH  17  18
ENDBRANCH   1  17
TORSDOF 21
ENDMDL
MODEL 6
REMARK VINA RESULT:      -5.4      6.572     11.562
REMARK  Name = 
REMARK  22 active torsions:
REMARK  status: ('A' for Active; 'I' for Inactive)
REMARK    1  A    between atoms: C_1  and  C_2
REMARK    2  A    between atoms: C_2  and  C_3
REMARK    3  A    between atoms: C_3  and  C_4
REMARK    4  A    between atoms: C_4  and  C_5
REMARK    5  A    between atoms: C_5  and  C_6
REMARK    6  A    between atoms: C_6  and  C_7
REMARK    7  A    between atoms: C_7  and  C_8
REMARK    8  A    between atoms: C_8  and  C_9
REMARK    9  A    between atoms: C_9  and  C_10
REMARK   10  A    between atoms: C_10  and  C_11
REMARK   11  A    between atoms: C_11  and  C_12
REMARK   12  A    between atoms: C_12  and  C_13
REMARK   13  A    between atoms: C_13  and  C_14
REMARK   14  A    between atoms: C_14  and  C_15
REMARK   15  A    between atoms: C_15  and  C_16
REMARK   16  A    between atoms: C_16  and  O_17
REMARK   17  A    between atoms: O_17  and  C_18
REMARK   18  A    between atoms: C_21  and  C_22
REMARK   19  A    between atoms: C_23  and  C_24
REMARK   20  A    between atoms: C_24  and  O_26
REMARK   21  A    between atoms: O_26  and  C_27
REMARK   22  A    between atoms: C_27  and  C_28
REMARK                            x       y       z     vdW  Elec       q    Type
REMARK                         _______ _______ _______ _____ _____    ______ ____
ROOT
ATOM      1  C   UNL     1       8.645   9.086  18.510  0.00  0.00    +0.000 C 
ENDROOT
BRANCH   1   2
ATOM      2  O   UNL     1       8.142   8.432  17.345  0.00  0.00    +0.000 OA
BRANCH   2   3
ATOM      3  C   UNL     1       7.252   7.424  17.602  0.00  0.00    +0.000 A 
ATOM      4  C   UNL     1       7.719   6.378  18.393  0.00  0.00    +0.000 A 
ATOM      5  C   UNL     1       6.909   5.253  18.630  0.00  0.00    +0.000 A 
ATOM      6  C   UNL     1       5.579   5.206  18.174  0.00  0.00    +0.000 A 
ATOM      7  C   UNL     1       5.136   6.275  17.381  0.00  0.00    +0.000 A 
ATOM      8  C   UNL     1       5.959   7.368  17.105  0.00  0.00    +0.000 A 
BRANCH   6   9
ATOM      9  C   UNL     1       4.689   4.072  18.530  0.00  0.00    +0.000 C 
ATOM     10  C   UNL     1       4.202   3.169  17.658  0.00  0.00    +0.000 C 
BRANCH  10  11
ATOM     11  C   UNL     1       3.254   2.105  18.105  0.00  0.00    +0.000 C 
ATOM     12  O   UNL     1       3.565   0.975  18.382  0.00  0.00    +0.000 OA
BRANCH  11  13
ATOM     13  O   UNL     1       1.992   2.618  18.081  0.00  0.00    +0.000 OA
BRANCH  13  14
ATOM     14  C   UNL     1       1.119   2.127  19.120  0.00  0.00    +0.000 C 
BRANCH  14  15
ATOM     15  C   UNL     1       1.463   2.695  20.485  0.00  0.00    +0.000 C 
ATOM     16 BR   UNL     1       1.450   4.645  20.431  0.00  0.00    +0.000 Br
ENDBRANCH  14  15
ENDBRANCH  13  14
ENDBRANCH  11  13
ENDBRANCH  10  11
ENDBRANCH   6   9
ENDBRANCH   2   3
ENDBRANCH   1   2
BRANCH   1  17
ATOM     17  C   UNL     1       8.991  10.527  18.150  0.00  0.00    +0.000 C 
BRANCH  17  18
ATOM     18  C   UNL     1       9.491  11.293  19.369  0.00  0.00    +0.000 C 
BRANCH  18  19
ATOM     19  C   UNL     1      10.829  11.963  19.083  0.00  0.00    +0.000 C 
BRANCH  19  20
ATOM     20  C   UNL     1      11.249  11.724  17.645  0.00  0.00    +0.000 C 
BRANCH  20  21
ATOM     21  C   UNL     1      11.453  13.050  16.933  0.00  0.00    +0.000 C 
BRANCH  21  22
ATOM     22  C   UNL     1      11.475  14.183  17.944  0.00  0.00    +0.000 C 
BRANCH  22  23
ATOM     23  C   UNL     1      10.558  15.303  17.487  0.00  0.00    +0.000 C 
BRANCH  23  24
ATOM     24  C   UNL     1       9.812  15.878  18.676  0.00  0.00    +0.000 C 
BRANCH  24  25
ATOM     25  C   UNL     1       8.539  15.089  18.919  0.00  0.00    +0.000 C 
BRANCH  25  26
ATOM     26  C   UNL     1       7.546  15.935  19.695  0.00  0.00    +0.000 C 
BRANCH  26  27
ATOM     27  C   UNL     1       6.480  15.048  20.313  0.00  0.00    +0.000 C 
BRANCH  27  28
ATOM     28  C   UNL     1       5.121  15.718  20.205  0.00  0.00    +0.000 C 
BRANCH  28  29
ATOM     29  C   UNL     1       5.128  16.741  19.081  0.00  0.00    +0.000 C 
BRANCH  29  31
ATOM     30  C   UNL     1       3.770  15.145  17.727  0.00  0.00    +0.000 C 
ATOM     31  C   UNL     1       3.896  16.579  18.203  0.00  0.00    +0.000 C 
ENDBRANCH  29  31
ENDBRANCH  28  29
ENDBRANCH  27  28
ENDBRANCH  26  27
ENDBRANCH  25  26
ENDBRANCH  24  25
ENDBRANCH  23  24
ENDBRANCH  22  23
ENDBRANCH  21  22
ENDBRANCH  20  21
ENDBRANCH  19  20
ENDBRANCH  18  19
ENDBRANCH  17  18
ENDBRANCH   1  17
TORSDOF 21
ENDMDL
MODEL 7
REMARK VINA RESULT:      -5.4      3.683      5.275
REMARK  Name = 
REMARK  22 active torsions:
REMARK  status: ('A' for Active; 'I' for Inactive)
REMARK    1  A    between atoms: C_1  and  C_2
REMARK    2  A    between atoms: C_2  and  C_3
REMARK    3  A    between atoms: C_3  and  C_4
REMARK    4  A    between atoms: C_4  and  C_5
REMARK    5  A    between atoms: C_5  and  C_6
REMARK    6  A    between atoms: C_6  and  C_7
REMARK    7  A    between atoms: C_7  and  C_8
REMARK    8  A    between atoms: C_8  and  C_9
REMARK    9  A    between atoms: C_9  and  C_10
REMARK   10  A    between atoms: C_10  and  C_11
REMARK   11  A    between atoms: C_11  and  C_12
REMARK   12  A    between atoms: C_12  and  C_13
REMARK   13  A    between atoms: C_13  and  C_14
REMARK   14  A    between atoms: C_14  and  C_15
REMARK   15  A    between atoms: C_15  and  C_16
REMARK   16  A    between atoms: C_16  and  O_17
REMARK   17  A    between atoms: O_17  and  C_18
REMARK   18  A    between atoms: C_21  and  C_22
REMARK   19  A    between atoms: C_23  and  C_24
REMARK   20  A    between atoms: C_24  and  O_26
REMARK   21  A    between atoms: O_26  and  C_27
REMARK   22  A    between atoms: C_27  and  C_28
REMARK                            x       y       z     vdW  Elec       q    Type
REMARK                         _______ _______ _______ _____ _____    ______ ____
ROOT
ATOM      1  C   UNL     1       1.412   4.925  20.584  0.00  0.00    +0.000 C 
ENDROOT
BRANCH   1   2
ATOM      2  O   UNL     1       2.261   6.034  20.879  0.00  0.00    +0.000 OA
BRANCH   2   3
ATOM      3  C   UNL     1       1.720   7.256  20.581  0.00  0.00    +0.000 A 
ATOM      4  C   UNL     1       2.043   7.785  19.334  0.00  0.00    +0.000 A 
ATOM      5  C   UNL     1       1.613   9.075  18.979  0.00  0.00    +0.000 A 
ATOM      6  C   UNL     1       0.759   9.814  19.818  0.00  0.00    +0.000 A 
ATOM      7  C   UNL     1       0.448   9.254  21.067  0.00  0.00    +0.000 A 
ATOM      8  C   UNL     1       0.918   7.994  21.439  0.00  0.00    +0.000 A 
BRANCH   6   9
ATOM      9  C   UNL     1       0.209  11.124  19.387  0.00  0.00    +0.000 C 
ATOM     10  C   UNL     1       0.904  12.275  19.338  0.00  0.00    +0.000 C 
BRANCH  10  11
ATOM     11  C   UNL     1       0.240  13.557  18.958  0.00  0.00    +0.000 C 
ATOM     12  O   UNL     1      -0.448  13.716  17.982  0.00  0.00    +0.000 OA
BRANCH  11  13
ATOM     13  O   UNL     1       0.598  14.510  19.864  0.00  0.00    +0.000 OA
BRANCH  13  14
ATOM     14  C   UNL     1       2.021  14.693  20.019  0.00  0.00    +0.000 C 
BRANCH  14  15
ATOM     15  C   UNL     1       2.538  15.901  19.258  0.00  0.00    +0.000 C 
ATOM     16 BR   UNL     1       3.448  15.336  17.627  0.00  0.00    +0.000 Br
ENDBRANCH  14  15
ENDBRANCH  13  14
ENDBRANCH  11  13
ENDBRANCH  10  11
ENDBRANCH   6   9
ENDBRANCH   2   3
ENDBRANCH   1   2
BRANCH   1  17
ATOM     17  C   UNL     1       1.884   3.720  21.390  0.00  0.00    +0.000 C 
BRANCH  17  18
ATOM     18  C   UNL     1       2.358   2.598  20.473  0.00  0.00    +0.000 C 
BRANCH  18  19
ATOM     19  C   UNL     1       1.300   2.258  19.432  0.00  0.00    +0.000 C 
BRANCH  19  20
ATOM     20  C   UNL     1       1.848   2.452  18.031  0.00  0.00    +0.000 C 
BRANCH  20  21
ATOM     21  C   UNL     1       3.327   2.106  17.996  0.00  0.00    +0.000 C 
BRANCH  21  22
ATOM     22  C   UNL     1       4.108   3.234  17.347  0.00  0.00    +0.000 C 
BRANCH  22  23
ATOM     23  C   UNL     1       3.426   4.561  17.617  0.00  0.00    +0.000 C 
BRANCH  23  24
ATOM     24  C   UNL     1       4.386   5.504  18.318  0.00  0.00    +0.000 C 
BRANCH  24  25
ATOM     25  C   UNL     1       5.398   4.709  19.123  0.00  0.00    +0.000 C 
BRANCH  25  26
ATOM     26  C   UNL     1       6.773   5.335  18.986  0.00  0.00    +0.000 C 
BRANCH  26  27
ATOM     27  C   UNL     1       6.779   6.326  17.836  0.00  0.00    +0.000 C 
BRANCH  27  28
ATOM     28  C   UNL     1       7.023   5.599  16.525  0.00  0.00    +0.000 C 
BRANCH  28  29
ATOM     29  C   UNL     1       6.151   6.188  15.429  0.00  0.00    +0.000 C 
BRANCH  29  31
ATOM     30  C   UNL     1       6.358   3.859  14.556  0.00  0.00    +0.000 C 
ATOM     31  C   UNL     1       5.465   5.082  14.639  0.00  0.00    +0.000 C 
ENDBRANCH  29  31
ENDBRANCH  28  29
ENDBRANCH  27  28
ENDBRANCH  26  27
ENDBRANCH  25  26
ENDBRANCH  24  25
ENDBRANCH  23  24
ENDBRANCH  22  23
ENDBRANCH  21  22
ENDBRANCH  20  21
ENDBRANCH  19  20
ENDBRANCH  18  19
ENDBRANCH  17  18
ENDBRANCH   1  17
TORSDOF 21
ENDMDL
MODEL 8
REMARK VINA RESULT:      -5.4      5.905     11.315
REMARK  Name = 
REMARK  22 active torsions:
REMARK  status: ('A' for Active; 'I' for Inactive)
REMARK    1  A    between atoms: C_1  and  C_2
REMARK    2  A    between atoms: C_2  and  C_3
REMARK    3  A    between atoms: C_3  and  C_4
REMARK    4  A    between atoms: C_4  and  C_5
REMARK    5  A    between atoms: C_5  and  C_6
REMARK    6  A    between atoms: C_6  and  C_7
REMARK    7  A    between atoms: C_7  and  C_8
REMARK    8  A    between atoms: C_8  and  C_9
REMARK    9  A    between atoms: C_9  and  C_10
REMARK   10  A    between atoms: C_10  and  C_11
REMARK   11  A    between atoms: C_11  and  C_12
REMARK   12  A    between atoms: C_12  and  C_13
REMARK   13  A    between atoms: C_13  and  C_14
REMARK   14  A    between atoms: C_14  and  C_15
REMARK   15  A    between atoms: C_15  and  C_16
REMARK   16  A    between atoms: C_16  and  O_17
REMARK   17  A    between atoms: O_17  and  C_18
REMARK   18  A    between atoms: C_21  and  C_22
REMARK   19  A    between atoms: C_23  and  C_24
REMARK   20  A    between atoms: C_24  and  O_26
REMARK   21  A    between atoms: O_26  and  C_27
REMARK   22  A    between atoms: C_27  and  C_28
REMARK                            x       y       z     vdW  Elec       q    Type
REMARK                         _______ _______ _______ _____ _____    ______ ____
ROOT
ATOM      1  C   UNL     1       7.971   9.609  18.095  0.00  0.00    +0.000 C 
ENDROOT
BRANCH   1   2
ATOM      2  O   UNL     1       8.305   8.414  17.388  0.00  0.00    +0.000 OA
BRANCH   2   3
ATOM      3  C   UNL     1       7.534   7.330  17.714  0.00  0.00    +0.000 A 
ATOM      4  C   UNL     1       6.331   7.200  17.024  0.00  0.00    +0.000 A 
ATOM      5  C   UNL     1       5.430   6.174  17.358  0.00  0.00    +0.000 A 
ATOM      6  C   UNL     1       5.765   5.193  18.310  0.00  0.00    +0.000 A 
ATOM      7  C   UNL     1       6.985   5.349  18.987  0.00  0.00    +0.000 A 
ATOM      8  C   UNL     1       7.856   6.398  18.689  0.00  0.00    +0.000 A 
BRANCH   6   9
ATOM      9  C   UNL     1       4.864   4.044  18.573  0.00  0.00    +0.000 C 
ATOM     10  C   UNL     1       4.155   3.388  17.636  0.00  0.00    +0.000 C 
BRANCH  10  11
ATOM     11  C   UNL     1       3.219   2.287  18.012  0.00  0.00    +0.000 C 
ATOM     12  O   UNL     1       3.550   1.228  18.480  0.00  0.00    +0.000 OA
BRANCH  11  13
ATOM     13  O   UNL     1       1.954   2.668  17.678  0.00  0.00    +0.000 OA
BRANCH  13  14
ATOM     14  C   UNL     1       0.973   2.496  18.723  0.00  0.00    +0.000 C 
BRANCH  14  15
ATOM     15  C   UNL     1       1.059   3.579  19.784  0.00  0.00    +0.000 C 
ATOM     16 BR   UNL     1       1.707   2.831  21.466  0.00  0.00    +0.000 Br
ENDBRANCH  14  15
ENDBRANCH  13  14
ENDBRANCH  11  13
ENDBRANCH  10  11
ENDBRANCH   6   9
ENDBRANCH   2   3
ENDBRANCH   1   2
BRANCH   1  17
ATOM     17  C   UNL     1       9.146   9.990  18.989  0.00  0.00    +0.000 C 
BRANCH  17  18
ATOM     18  C   UNL     1      10.157  10.845  18.232  0.00  0.00    +0.000 C 
BRANCH  18  19
ATOM     19  C   UNL     1      11.214  11.405  19.175  0.00  0.00    +0.000 C 
BRANCH  19  20
ATOM     20  C   UNL     1      11.394  12.895  18.949  0.00  0.00    +0.000 C 
BRANCH  20  21
ATOM     21  C   UNL     1      11.022  13.662  20.206  0.00  0.00    +0.000 C 
BRANCH  21  22
ATOM     22  C   UNL     1       9.526  13.565  20.449  0.00  0.00    +0.000 C 
BRANCH  22  23
ATOM     23  C   UNL     1       9.099  14.599  21.475  0.00  0.00    +0.000 C 
BRANCH  23  24
ATOM     24  C   UNL     1       7.923  15.399  20.946  0.00  0.00    +0.000 C 
BRANCH  24  25
ATOM     25  C   UNL     1       8.313  16.102  19.658  0.00  0.00    +0.000 C 
BRANCH  25  26
ATOM     26  C   UNL     1       7.328  15.747  18.559  0.00  0.00    +0.000 C 
BRANCH  26  27
ATOM     27  C   UNL     1       6.012  15.299  19.167  0.00  0.00    +0.000 C 
BRANCH  27  28
ATOM     28  C   UNL     1       4.895  16.235  18.736  0.00  0.00    +0.000 C 
BRANCH  28  29
ATOM     29  C   UNL     1       3.950  15.518  17.785  0.00  0.00    +0.000 C 
BRANCH  29  31
ATOM     30  C   UNL     1       2.198  13.803  18.250  0.00  0.00    +0.000 C 
ATOM     31  C   UNL     1       3.685  14.098  18.264  0.00  0.00    +0.000 C 
ENDBRANCH  29  31
ENDBRANCH  28  29
ENDBRANCH  27  28
ENDBRANCH  26  27
ENDBRANCH  25  26
ENDBRANCH  24  25
ENDBRANCH  23  24
ENDBRANCH  22  23
ENDBRANCH  21  22
ENDBRANCH  20  21
ENDBRANCH  19  20
ENDBRANCH  18  19
ENDBRANCH  17  18
ENDBRANCH   1  17
TORSDOF 21
ENDMDL
MODEL 9
REMARK VINA RESULT:      -5.3      3.193     10.377
REMARK  Name = 
REMARK  22 active torsions:
REMARK  status: ('A' for Active; 'I' for Inactive)
REMARK    1  A    between atoms: C_1  and  C_2
REMARK    2  A    between atoms: C_2  and  C_3
REMARK    3  A    between atoms: C_3  and  C_4
REMARK    4  A    between atoms: C_4  and  C_5
REMARK    5  A    between atoms: C_5  and  C_6
REMARK    6  A    between atoms: C_6  and  C_7
REMARK    7  A    between atoms: C_7  and  C_8
REMARK    8  A    between atoms: C_8  and  C_9
REMARK    9  A    between atoms: C_9  and  C_10
REMARK   10  A    between atoms: C_10  and  C_11
REMARK   11  A    between atoms: C_11  and  C_12
REMARK   12  A    between atoms: C_12  and  C_13
REMARK   13  A    between atoms: C_13  and  C_14
REMARK   14  A    between atoms: C_14  and  C_15
REMARK   15  A    between atoms: C_15  and  C_16
REMARK   16  A    between atoms: C_16  and  O_17
REMARK   17  A    between atoms: O_17  and  C_18
REMARK   18  A    between atoms: C_21  and  C_22
REMARK   19  A    between atoms: C_23  and  C_24
REMARK   20  A    between atoms: C_24  and  O_26
REMARK   21  A    between atoms: O_26  and  C_27
REMARK   22  A    between atoms: C_27  and  C_28
REMARK                            x       y       z     vdW  Elec       q    Type
REMARK                         _______ _______ _______ _____ _____    ______ ____
ROOT
ATOM      1  C   UNL     1      -0.674  11.225  19.845  0.00  0.00    +0.000 C 
ENDROOT
BRANCH   1   2
ATOM      2  O   UNL     1       0.384  11.130  18.891  0.00  0.00    +0.000 OA
BRANCH   2   3
ATOM      3  C   UNL     1       1.081   9.952  18.935  0.00  0.00    +0.000 A 
ATOM      4  C   UNL     1       1.814   9.628  17.796  0.00  0.00    +0.000 A 
ATOM      5  C   UNL     1       2.483   8.394  17.712  0.00  0.00    +0.000 A 
ATOM      6  C   UNL     1       2.523   7.512  18.809  0.00  0.00    +0.000 A 
ATOM      7  C   UNL     1       1.777   7.867  19.943  0.00  0.00    +0.000 A 
ATOM      8  C   UNL     1       1.072   9.070  20.005  0.00  0.00    +0.000 A 
BRANCH   6   9
ATOM      9  C   UNL     1       3.330   6.267  18.759  0.00  0.00    +0.000 C 
ATOM     10  C   UNL     1       3.124   5.246  17.908  0.00  0.00    +0.000 C 
BRANCH  10  11
ATOM     11  C   UNL     1       3.948   4.003  17.985  0.00  0.00    +0.000 C 
ATOM     12  O   UNL     1       4.273   3.330  17.041  0.00  0.00    +0.000 OA
BRANCH  11  13
ATOM     13  O   UNL     1       4.205   3.742  19.298  0.00  0.00    +0.000 OA
BRANCH  13  14
ATOM     14  C   UNL     1       3.777   2.440  19.751  0.00  0.00    +0.000 C 
BRANCH  14  15
ATOM     15  C   UNL     1       2.268   2.276  19.706  0.00  0.00    +0.000 C 
ATOM     16 BR   UNL     1       1.468   2.893  21.374  0.00  0.00    +0.000 Br
ENDBRANCH  14  15
ENDBRANCH  13  14
ENDBRANCH  11  13
ENDBRANCH  10  11
ENDBRANCH   6   9
ENDBRANCH   2   3
ENDBRANCH   1   2
BRANCH   1  17
ATOM     17  C   UNL     1      -1.209  12.652  19.839  0.00  0.00    +0.000 C 
BRANCH  17  18
ATOM     18  C   UNL     1      -1.364  13.186  21.259  0.00  0.00    +0.000 C 
BRANCH  18  19
ATOM     19  C   UNL     1      -2.441  12.422  22.017  0.00  0.00    +0.000 C 
BRANCH  19  20
ATOM     20  C   UNL     1      -3.763  12.487  21.275  0.00  0.00    +0.000 C 
BRANCH  20  21
ATOM     21  C   UNL     1      -4.733  13.394  22.014  0.00  0.00    +0.000 C 
BRANCH  21  22
ATOM     22  C   UNL     1      -5.512  14.239  21.022  0.00  0.00    +0.000 C 
BRANCH  22  23
ATOM     23  C   UNL     1      -6.944  13.747  20.933  0.00  0.00    +0.000 C 
BRANCH  23  24
ATOM     24  C   UNL     1      -7.052  12.357  21.529  0.00  0.00    +0.000 C 
BRANCH  24  25
ATOM     25  C   UNL     1      -7.592  11.389  20.491  0.00  0.00    +0.000 C 
BRANCH  25  26
ATOM     26  C   UNL     1      -7.403  11.965  19.100  0.00  0.00    +0.000 C 
BRANCH  26  27
ATOM     27  C   UNL     1      -6.496  11.061  18.284  0.00  0.00    +0.000 C 
BRANCH  27  28
ATOM     28  C   UNL     1      -5.209  11.791  17.939  0.00  0.00    +0.000 C 
BRANCH  28  29
ATOM     29  C   UNL     1      -4.035  10.826  17.970  0.00  0.00    +0.000 C 
BRANCH  29  31
ATOM     30  C   UNL     1      -2.109   9.905  16.679  0.00  0.00    +0.000 C 
ATOM     31  C   UNL     1      -3.344  10.781  16.615  0.00  0.00    +0.000 C 
ENDBRANCH  29  31
ENDBRANCH  28  29
ENDBRANCH  27  28
ENDBRANCH  26  27
ENDBRANCH  25  26
ENDBRANCH  24  25
ENDBRANCH  23  24
ENDBRANCH  22  23
ENDBRANCH  21  22
ENDBRANCH  20  21
ENDBRANCH  19  20
ENDBRANCH  18  19
ENDBRANCH  17  18
ENDBRANCH   1  17
TORSDOF 21
ENDMDL
