MODEL 1
REMARK VINA RESULT:      -7.8      0.000      0.000
REMARK  Name = 
REMARK  10 active torsions:
REMARK  status: ('A' for Active; 'I' for Inactive)
REMARK    1  A    between atoms: C_1  and  C_2
REMARK    2  A    between atoms: C_2  and  C_4
REMARK    3  A    between atoms: N_6  and  C_7
REMARK    4  A    between atoms: C_10  and  S_11
REMARK    5  A    between atoms: S_11  and  N_14
REMARK    6  A    between atoms: C_18  and  O_20
REMARK    7  A    between atoms: O_20  and  C_21
REMARK    8  A    between atoms: C_21  and  C_22
REMARK    9  A    between atoms: C_21  and  C_23
REMARK   10  A    between atoms: C_21  and  C_24
REMARK                            x       y       z     vdW  Elec       q    Type
REMARK                         _______ _______ _______ _____ _____    ______ ____
ROOT
ATOM      1  S   UNL     1       3.489   5.437  18.952  0.00  0.00    +0.000 S 
ATOM      2  O   UNL     1       4.624   5.467  19.849  0.00  0.00    +0.000 OA
ATOM      3  O   UNL     1       2.480   4.406  19.057  0.00  0.00    +0.000 OA
ENDROOT
BRANCH   1   4
ATOM      4  N   UNL     1       4.067   5.456  17.383  0.00  0.00    +0.000 NA
ATOM      5  C   UNL     1       4.973   6.515  16.891  0.00  0.00    +0.000 C 
ATOM      6  C   UNL     1       6.292   5.949  16.344  0.00  0.00    +0.000 C 
ATOM      7  N   UNL     1       6.093   4.786  15.480  0.00  0.00    +0.000 N 
ATOM      8  C   UNL     1       6.937   4.586  14.405  0.00  0.00    +0.000 C 
ATOM      9  O   UNL     1       7.833   5.365  14.104  0.00  0.00    +0.000 OA
ATOM     10  C   UNL     1       5.227   3.739  16.018  0.00  0.00    +0.000 C 
ATOM     11  C   UNL     1       3.882   4.301  16.484  0.00  0.00    +0.000 C 
BRANCH   8  12
ATOM     12  O   UNL     1       6.636   3.454  13.717  0.00  0.00    +0.000 OA
BRANCH  12  13
ATOM     13  C   UNL     1       6.319   3.507  12.301  0.00  0.00    +0.000 C 
ATOM     14  C   UNL     1       7.157   4.576  11.594  0.00  0.00    +0.000 C 
ATOM     15  C   UNL     1       6.714   2.128  11.745  0.00  0.00    +0.000 C 
ATOM     16  C   UNL     1       4.814   3.696  12.070  0.00  0.00    +0.000 C 
ENDBRANCH  12  13
ENDBRANCH   8  12
ENDBRANCH   1   4
BRANCH   1  20
ATOM     17  C   UNL     1       1.128   9.357  19.266  0.00  0.00    +0.000 A 
ATOM     18  C   UNL     1       1.770   8.993  18.075  0.00  0.00    +0.000 A 
ATOM     19  C   UNL     1       2.528   7.822  17.992  0.00  0.00    +0.000 A 
ATOM     20  C   UNL     1       2.662   7.008  19.112  0.00  0.00    +0.000 A 
ATOM     21  C   UNL     1       2.027   7.353  20.310  0.00  0.00    +0.000 A 
ATOM     22  C   UNL     1       1.273   8.533  20.387  0.00  0.00    +0.000 A 
BRANCH  17  25
ATOM     23  C   UNL     1      -0.826  10.790  18.680  0.00  0.00    +0.000 C 
ATOM     24  O   UNL     1      -1.417  10.072  17.887  0.00  0.00    +0.000 OA
ATOM     25  N   UNL     1       0.338  10.519  19.381  0.00  0.00    +0.000 N 
ATOM     26  H   UNL     1       0.606  11.226  20.064  0.00  0.00    +0.000 HD
BRANCH  23  28
ATOM     27  C   UNL     1      -0.633  13.339  18.488  0.00  0.00    +0.000 C 
ATOM     28  C   UNL     1      -1.419  12.159  18.989  0.00  0.00    +0.000 C 
ATOM     29  O   UNL     1      -2.483  12.235  19.594  0.00  0.00    +0.000 OA
ENDBRANCH  23  28
ENDBRANCH  17  25
ENDBRANCH   1  20
TORSDOF 6
ENDMDL
MODEL 2
REMARK VINA RESULT:      -7.8      0.291      1.246
REMARK  Name = 
REMARK  10 active torsions:
REMARK  status: ('A' for Active; 'I' for Inactive)
REMARK    1  A    between atoms: C_1  and  C_2
REMARK    2  A    between atoms: C_2  and  C_4
REMARK    3  A    between atoms: N_6  and  C_7
REMARK    4  A    between atoms: C_10  and  S_11
REMARK    5  A    between atoms: S_11  and  N_14
REMARK    6  A    between atoms: C_18  and  O_20
REMARK    7  A    between atoms: O_20  and  C_21
REMARK    8  A    between atoms: C_21  and  C_22
REMARK    9  A    between atoms: C_21  and  C_23
REMARK   10  A    between atoms: C_21  and  C_24
REMARK                            x       y       z     vdW  Elec       q    Type
REMARK                         _______ _______ _______ _____ _____    ______ ____
ROOT
ATOM      1  S   UNL     1       3.654   5.303  18.964  0.00  0.00    +0.000 S 
ATOM      2  O   UNL     1       4.802   5.505  19.823  0.00  0.00    +0.000 OA
ATOM      3  O   UNL     1       2.789   4.157  19.129  0.00  0.00    +0.000 OA
ENDROOT
BRANCH   1   4
ATOM      4  N   UNL     1       4.180   5.347  17.378  0.00  0.00    +0.000 NA
ATOM      5  C   UNL     1       5.020   6.447  16.858  0.00  0.00    +0.000 C 
ATOM      6  C   UNL     1       6.345   5.941  16.268  0.00  0.00    +0.000 C 
ATOM      7  N   UNL     1       6.172   4.769  15.410  0.00  0.00    +0.000 N 
ATOM      8  C   UNL     1       6.990   4.607  14.308  0.00  0.00    +0.000 C 
ATOM      9  O   UNL     1       7.838   5.426  13.978  0.00  0.00    +0.000 OA
ATOM     10  C   UNL     1       5.372   3.684  15.975  0.00  0.00    +0.000 C 
ATOM     11  C   UNL     1       4.019   4.185  16.484  0.00  0.00    +0.000 C 
BRANCH   8  12
ATOM     12  O   UNL     1       6.718   3.461  13.629  0.00  0.00    +0.000 OA
BRANCH  12  13
ATOM     13  C   UNL     1       6.455   3.488  12.202  0.00  0.00    +0.000 C 
ATOM     14  C   UNL     1       6.878   2.173  11.543  0.00  0.00    +0.000 C 
ATOM     15  C   UNL     1       4.928   3.633  12.073  0.00  0.00    +0.000 C 
ATOM     16  C   UNL     1       7.102   4.711  11.536  0.00  0.00    +0.000 C 
ENDBRANCH  12  13
ENDBRANCH   8  12
ENDBRANCH   1   4
BRANCH   1  20
ATOM     17  C   UNL     1       1.260   9.186  19.442  0.00  0.00    +0.000 A 
ATOM     18  C   UNL     1       1.367   8.268  20.496  0.00  0.00    +0.000 A 
ATOM     19  C   UNL     1       2.056   7.063  20.335  0.00  0.00    +0.000 A 
ATOM     20  C   UNL     1       2.638   6.760  19.109  0.00  0.00    +0.000 A 
ATOM     21  C   UNL     1       2.544   7.665  18.045  0.00  0.00    +0.000 A 
ATOM     22  C   UNL     1       1.845   8.869  18.212  0.00  0.00    +0.000 A 
BRANCH  17  25
ATOM     23  C   UNL     1      -0.606  10.770  18.968  0.00  0.00    +0.000 C 
ATOM     24  O   UNL     1      -1.331  10.078  18.268  0.00  0.00    +0.000 OA
ATOM     25  N   UNL     1       0.590  10.420  19.572  0.00  0.00    +0.000 N 
ATOM     26  H   UNL     1       0.984  11.126  20.192  0.00  0.00    +0.000 HD
BRANCH  23  28
ATOM     27  C   UNL     1      -0.468  13.256  18.362  0.00  0.00    +0.000 C 
ATOM     28  C   UNL     1      -1.044  12.199  19.263  0.00  0.00    +0.000 C 
ATOM     29  O   UNL     1      -1.833  12.414  20.176  0.00  0.00    +0.000 OA
ENDBRANCH  23  28
ENDBRANCH  17  25
ENDBRANCH   1  20
TORSDOF 6
ENDMDL
MODEL 3
REMARK VINA RESULT:      -7.7      4.159      6.340
REMARK  Name = 
REMARK  10 active torsions:
REMARK  status: ('A' for Active; 'I' for Inactive)
REMARK    1  A    between atoms: C_1  and  C_2
REMARK    2  A    between atoms: C_2  and  C_4
REMARK    3  A    between atoms: N_6  and  C_7
REMARK    4  A    between atoms: C_10  and  S_11
REMARK    5  A    between atoms: S_11  and  N_14
REMARK    6  A    between atoms: C_18  and  O_20
REMARK    7  A    between atoms: O_20  and  C_21
REMARK    8  A    between atoms: C_21  and  C_22
REMARK    9  A    between atoms: C_21  and  C_23
REMARK   10  A    between atoms: C_21  and  C_24
REMARK                            x       y       z     vdW  Elec       q    Type
REMARK                         _______ _______ _______ _____ _____    ______ ____
ROOT
ATOM      1  S   UNL     1       0.902  10.947  19.998  0.00  0.00    +0.000 S 
ATOM      2  O   UNL     1       1.647  11.826  19.120  0.00  0.00    +0.000 OA
ATOM      3  O   UNL     1       1.165  10.913  21.419  0.00  0.00    +0.000 OA
ENDROOT
BRANCH   1   4
ATOM      4  N   UNL     1       1.022   9.392  19.398  0.00  0.00    +0.000 NA
ATOM      5  C   UNL     1       1.447   9.114  18.009  0.00  0.00    +0.000 C 
ATOM      6  C   UNL     1       2.679   8.199  17.947  0.00  0.00    +0.000 C 
ATOM      7  N   UNL     1       2.582   7.057  18.857  0.00  0.00    +0.000 N 
ATOM      8  C   UNL     1       3.137   5.846  18.488  0.00  0.00    +0.000 C 
ATOM      9  O   UNL     1       3.678   5.660  17.406  0.00  0.00    +0.000 OA
ATOM     10  C   UNL     1       2.203   7.375  20.232  0.00  0.00    +0.000 C 
ATOM     11  C   UNL     1       0.927   8.218  20.286  0.00  0.00    +0.000 C 
BRANCH   8  12
ATOM     12  O   UNL     1       2.983   4.897  19.448  0.00  0.00    +0.000 OA
BRANCH  12  13
ATOM     13  C   UNL     1       2.088   3.772  19.244  0.00  0.00    +0.000 C 
ATOM     14  C   UNL     1       1.381   3.876  17.890  0.00  0.00    +0.000 C 
ATOM     15  C   UNL     1       2.994   2.529  19.229  0.00  0.00    +0.000 C 
ATOM     16  C   UNL     1       1.101   3.623  20.410  0.00  0.00    +0.000 C 
ENDBRANCH  12  13
ENDBRANCH   8  12
ENDBRANCH   1   4
BRANCH   1  20
ATOM     17  C   UNL     1      -3.456  12.206  19.324  0.00  0.00    +0.000 A 
ATOM     18  C   UNL     1      -2.741  12.649  20.445  0.00  0.00    +0.000 A 
ATOM     19  C   UNL     1      -1.429  12.227  20.675  0.00  0.00    +0.000 A 
ATOM     20  C   UNL     1      -0.822  11.346  19.787  0.00  0.00    +0.000 A 
ATOM     21  C   UNL     1      -1.519  10.894  18.661  0.00  0.00    +0.000 A 
ATOM     22  C   UNL     1      -2.838  11.316  18.439  0.00  0.00    +0.000 A 
BRANCH  17  25
ATOM     23  C   UNL     1      -5.902  12.323  19.792  0.00  0.00    +0.000 C 
ATOM     24  O   UNL     1      -5.972  11.700  20.841  0.00  0.00    +0.000 OA
ATOM     25  N   UNL     1      -4.774  12.625  19.047  0.00  0.00    +0.000 N 
ATOM     26  H   UNL     1      -4.934  13.239  18.250  0.00  0.00    +0.000 HD
BRANCH  23  28
ATOM     27  C   UNL     1      -7.916  13.887  20.050  0.00  0.00    +0.000 C 
ATOM     28  C   UNL     1      -7.191  12.880  19.201  0.00  0.00    +0.000 C 
ATOM     29  O   UNL     1      -7.558  12.509  18.092  0.00  0.00    +0.000 OA
ENDBRANCH  23  28
ENDBRANCH  17  25
ENDBRANCH   1  20
TORSDOF 6
ENDMDL
MODEL 4
REMARK VINA RESULT:      -7.6      1.213      1.591
REMARK  Name = 
REMARK  10 active torsions:
REMARK  status: ('A' for Active; 'I' for Inactive)
REMARK    1  A    between atoms: C_1  and  C_2
REMARK    2  A    between atoms: C_2  and  C_4
REMARK    3  A    between atoms: N_6  and  C_7
REMARK    4  A    between atoms: C_10  and  S_11
REMARK    5  A    between atoms: S_11  and  N_14
REMARK    6  A    between atoms: C_18  and  O_20
REMARK    7  A    between atoms: O_20  and  C_21
REMARK    8  A    between atoms: C_21  and  C_22
REMARK    9  A    between atoms: C_21  and  C_23
REMARK   10  A    between atoms: C_21  and  C_24
REMARK                            x       y       z     vdW  Elec       q    Type
REMARK                         _______ _______ _______ _____ _____    ______ ____
ROOT
ATOM      1  S   UNL     1       3.753   5.260  19.016  0.00  0.00    +0.000 S 
ATOM      2  O   UNL     1       4.910   5.518  19.846  0.00  0.00    +0.000 OA
ATOM      3  O   UNL     1       2.942   4.078  19.210  0.00  0.00    +0.000 OA
ENDROOT
BRANCH   1   4
ATOM      4  N   UNL     1       4.238   5.315  17.418  0.00  0.00    +0.000 NA
ATOM      5  C   UNL     1       5.057   6.423  16.881  0.00  0.00    +0.000 C 
ATOM      6  C   UNL     1       6.370   5.931  16.257  0.00  0.00    +0.000 C 
ATOM      7  N   UNL     1       6.186   4.761  15.399  0.00  0.00    +0.000 N 
ATOM      8  C   UNL     1       6.977   4.610  14.276  0.00  0.00    +0.000 C 
ATOM      9  O   UNL     1       7.811   5.438  13.929  0.00  0.00    +0.000 OA
ATOM     10  C   UNL     1       5.410   3.667  15.979  0.00  0.00    +0.000 C 
ATOM     11  C   UNL     1       4.065   4.154  16.523  0.00  0.00    +0.000 C 
BRANCH   8  12
ATOM     12  O   UNL     1       6.699   3.465  13.600  0.00  0.00    +0.000 OA
BRANCH  12  13
ATOM     13  C   UNL     1       6.346   3.501  12.192  0.00  0.00    +0.000 C 
ATOM     14  C   UNL     1       7.139   4.584  11.458  0.00  0.00    +0.000 C 
ATOM     15  C   UNL     1       6.760   2.128  11.635  0.00  0.00    +0.000 C 
ATOM     16  C   UNL     1       4.831   3.651  11.998  0.00  0.00    +0.000 C 
ENDBRANCH  12  13
ENDBRANCH   8  12
ENDBRANCH   1   4
BRANCH   1  20
ATOM     17  C   UNL     1       1.201   9.036  19.532  0.00  0.00    +0.000 A 
ATOM     18  C   UNL     1       1.347   8.115  20.577  0.00  0.00    +0.000 A 
ATOM     19  C   UNL     1       2.086   6.941  20.405  0.00  0.00    +0.000 A 
ATOM     20  C   UNL     1       2.677   6.672  19.175  0.00  0.00    +0.000 A 
ATOM     21  C   UNL     1       2.543   7.581  18.120  0.00  0.00    +0.000 A 
ATOM     22  C   UNL     1       1.795   8.754  18.298  0.00  0.00    +0.000 A 
BRANCH  17  25
ATOM     23  C   UNL     1       0.557  11.118  20.742  0.00  0.00    +0.000 C 
ATOM     24  O   UNL     1       1.286  11.058  21.721  0.00  0.00    +0.000 OA
ATOM     25  N   UNL     1       0.480  10.240  19.674  0.00  0.00    +0.000 N 
ATOM     26  H   UNL     1      -0.134  10.533  18.916  0.00  0.00    +0.000 HD
BRANCH  23  28
ATOM     27  C   UNL     1      -1.500  12.159  19.623  0.00  0.00    +0.000 C 
ATOM     28  C   UNL     1      -0.390  12.306  20.625  0.00  0.00    +0.000 C 
ATOM     29  O   UNL     1      -0.221  13.287  21.341  0.00  0.00    +0.000 OA
ENDBRANCH  23  28
ENDBRANCH  17  25
ENDBRANCH   1  20
TORSDOF 6
ENDMDL
MODEL 5
REMARK VINA RESULT:      -7.5      4.682      7.508
REMARK  Name = 
REMARK  10 active torsions:
REMARK  status: ('A' for Active; 'I' for Inactive)
REMARK    1  A    between atoms: C_1  and  C_2
REMARK    2  A    between atoms: C_2  and  C_4
REMARK    3  A    between atoms: N_6  and  C_7
REMARK    4  A    between atoms: C_10  and  S_11
REMARK    5  A    between atoms: S_11  and  N_14
REMARK    6  A    between atoms: C_18  and  O_20
REMARK    7  A    between atoms: O_20  and  C_21
REMARK    8  A    between atoms: C_21  and  C_22
REMARK    9  A    between atoms: C_21  and  C_23
REMARK   10  A    between atoms: C_21  and  C_24
REMARK                            x       y       z     vdW  Elec       q    Type
REMARK                         _______ _______ _______ _____ _____    ______ ____
ROOT
ATOM      1  S   UNL     1       0.436  11.802  20.307  0.00  0.00    +0.000 S 
ATOM      2  O   UNL     1       0.539  12.582  19.091  0.00  0.00    +0.000 OA
ATOM      3  O   UNL     1       1.356  12.004  21.405  0.00  0.00    +0.000 OA
ENDROOT
BRANCH   1   4
ATOM      4  N   UNL     1       0.456  10.184  19.888  0.00  0.00    +0.000 NA
ATOM      5  C   UNL     1       0.853   9.725  18.540  0.00  0.00    +0.000 C 
ATOM      6  C   UNL     1       2.025   8.735  18.580  0.00  0.00    +0.000 C 
ATOM      7  N   UNL     1       1.867   7.713  19.615  0.00  0.00    +0.000 N 
ATOM      8  C   UNL     1       2.345   6.436  19.387  0.00  0.00    +0.000 C 
ATOM      9  O   UNL     1       2.865   6.095  18.332  0.00  0.00    +0.000 OA
ATOM     10  C   UNL     1       1.520   8.207  20.945  0.00  0.00    +0.000 C 
ATOM     11  C   UNL     1       0.298   9.127  20.905  0.00  0.00    +0.000 C 
BRANCH   8  12
ATOM     12  O   UNL     1       2.142   5.613  20.449  0.00  0.00    +0.000 OA
BRANCH  12  13
ATOM     13  C   UNL     1       2.294   4.175  20.314  0.00  0.00    +0.000 C 
ATOM     14  C   UNL     1       2.156   3.482  21.672  0.00  0.00    +0.000 C 
ATOM     15  C   UNL     1       1.129   3.727  19.415  0.00  0.00    +0.000 C 
ATOM     16  C   UNL     1       3.605   3.815  19.602  0.00  0.00    +0.000 C 
ENDBRANCH  12  13
ENDBRANCH   8  12
ENDBRANCH   1   4
BRANCH   1  20
ATOM     17  C   UNL     1      -3.738  12.709  21.978  0.00  0.00    +0.000 A 
ATOM     18  C   UNL     1      -2.673  12.386  22.830  0.00  0.00    +0.000 A 
ATOM     19  C   UNL     1      -1.413  12.063  22.318  0.00  0.00    +0.000 A 
ATOM     20  C   UNL     1      -1.211  12.050  20.942  0.00  0.00    +0.000 A 
ATOM     21  C   UNL     1      -2.262  12.371  20.075  0.00  0.00    +0.000 A 
ATOM     22  C   UNL     1      -3.525  12.688  20.596  0.00  0.00    +0.000 A 
BRANCH  17  25
ATOM     23  C   UNL     1      -5.552  12.715  23.688  0.00  0.00    +0.000 C 
ATOM     24  O   UNL     1      -5.017  12.106  24.603  0.00  0.00    +0.000 OA
ATOM     25  N   UNL     1      -5.017  13.059  22.458  0.00  0.00    +0.000 N 
ATOM     26  H   UNL     1      -5.610  13.652  21.879  0.00  0.00    +0.000 HD
BRANCH  23  28
ATOM     27  C   UNL     1      -7.172  14.691  23.889  0.00  0.00    +0.000 C 
ATOM     28  C   UNL     1      -6.982  13.199  23.889  0.00  0.00    +0.000 C 
ATOM     29  O   UNL     1      -7.886  12.381  24.019  0.00  0.00    +0.000 OA
ENDBRANCH  23  28
ENDBRANCH  17  25
ENDBRANCH   1  20
TORSDOF 6
ENDMDL
MODEL 6
REMARK VINA RESULT:      -7.5      4.148     11.148
REMARK  Name = 
REMARK  10 active torsions:
REMARK  status: ('A' for Active; 'I' for Inactive)
REMARK    1  A    between atoms: C_1  and  C_2
REMARK    2  A    between atoms: C_2  and  C_4
REMARK    3  A    between atoms: N_6  and  C_7
REMARK    4  A    between atoms: C_10  and  S_11
REMARK    5  A    between atoms: S_11  and  N_14
REMARK    6  A    between atoms: C_18  and  O_20
REMARK    7  A    between atoms: O_20  and  C_21
REMARK    8  A    between atoms: C_21  and  C_22
REMARK    9  A    between atoms: C_21  and  C_23
REMARK   10  A    between atoms: C_21  and  C_24
REMARK                            x       y       z     vdW  Elec       q    Type
REMARK                         _______ _______ _______ _____ _____    ______ ____
ROOT
ATOM      1  S   UNL     1       0.900  10.394  18.678  0.00  0.00    +0.000 S 
ATOM      2  O   UNL     1       1.785  11.307  17.987  0.00  0.00    +0.000 OA
ATOM      3  O   UNL     1      -0.396  10.054  18.133  0.00  0.00    +0.000 OA
ENDROOT
BRANCH   1   4
ATOM      4  N   UNL     1       0.688  10.957  20.237  0.00  0.00    +0.000 NA
ATOM      5  C   UNL     1       1.445  12.111  20.767  0.00  0.00    +0.000 C 
ATOM      6  C   UNL     1       0.525  13.233  21.269  0.00  0.00    +0.000 C 
ATOM      7  N   UNL     1      -0.586  12.734  22.079  0.00  0.00    +0.000 N 
ATOM      8  C   UNL     1      -1.054  13.496  23.133  0.00  0.00    +0.000 C 
ATOM      9  O   UNL     1      -0.555  14.566  23.458  0.00  0.00    +0.000 OA
ATOM     10  C   UNL     1      -1.339  11.622  21.504  0.00  0.00    +0.000 C 
ATOM     11  C   UNL     1      -0.420  10.474  21.084  0.00  0.00    +0.000 C 
BRANCH   8  12
ATOM     12  O   UNL     1      -2.099  12.906  23.770  0.00  0.00    +0.000 OA
BRANCH  12  13
ATOM     13  C   UNL     1      -3.368  13.597  23.913  0.00  0.00    +0.000 C 
ATOM     14  C   UNL     1      -4.462  12.637  24.388  0.00  0.00    +0.000 C 
ATOM     15  C   UNL     1      -3.135  14.654  25.006  0.00  0.00    +0.000 C 
ATOM     16  C   UNL     1      -3.754  14.331  22.621  0.00  0.00    +0.000 C 
ENDBRANCH  12  13
ENDBRANCH   8  12
ENDBRANCH   1   4
BRANCH   1  20
ATOM     17  C   UNL     1       2.983   6.338  19.166  0.00  0.00    +0.000 A 
ATOM     18  C   UNL     1       2.216   6.885  20.203  0.00  0.00    +0.000 A 
ATOM     19  C   UNL     1       1.620   8.143  20.072  0.00  0.00    +0.000 A 
ATOM     20  C   UNL     1       1.798   8.871  18.900  0.00  0.00    +0.000 A 
ATOM     21  C   UNL     1       2.559   8.340  17.853  0.00  0.00    +0.000 A 
ATOM     22  C   UNL     1       3.159   7.080  17.994  0.00  0.00    +0.000 A 
BRANCH  17  25
ATOM     23  C   UNL     1       3.003   3.860  18.889  0.00  0.00    +0.000 C 
ATOM     24  O   UNL     1       1.909   3.670  18.378  0.00  0.00    +0.000 OA
ATOM     25  N   UNL     1       3.582   5.064  19.254  0.00  0.00    +0.000 N 
ATOM     26  H   UNL     1       4.546   4.999  19.579  0.00  0.00    +0.000 HD
BRANCH  23  28
ATOM     27  C   UNL     1       3.515   1.393  18.422  0.00  0.00    +0.000 C 
ATOM     28  C   UNL     1       3.889   2.650  19.157  0.00  0.00    +0.000 C 
ATOM     29  O   UNL     1       4.844   2.756  19.918  0.00  0.00    +0.000 OA
ENDBRANCH  23  28
ENDBRANCH  17  25
ENDBRANCH   1  20
TORSDOF 6
ENDMDL
MODEL 7
REMARK VINA RESULT:      -7.5      1.151      1.473
REMARK  Name = 
REMARK  10 active torsions:
REMARK  status: ('A' for Active; 'I' for Inactive)
REMARK    1  A    between atoms: C_1  and  C_2
REMARK    2  A    between atoms: C_2  and  C_4
REMARK    3  A    between atoms: N_6  and  C_7
REMARK    4  A    between atoms: C_10  and  S_11
REMARK    5  A    between atoms: S_11  and  N_14
REMARK    6  A    between atoms: C_18  and  O_20
REMARK    7  A    between atoms: O_20  and  C_21
REMARK    8  A    between atoms: C_21  and  C_22
REMARK    9  A    between atoms: C_21  and  C_23
REMARK   10  A    between atoms: C_21  and  C_24
REMARK                            x       y       z     vdW  Elec       q    Type
REMARK                         _______ _______ _______ _____ _____    ______ ____
ROOT
ATOM      1  S   UNL     1       3.522   5.410  19.022  0.00  0.00    +0.000 S 
ATOM      2  O   UNL     1       4.674   5.462  19.896  0.00  0.00    +0.000 OA
ATOM      3  O   UNL     1       2.537   4.357  19.145  0.00  0.00    +0.000 OA
ENDROOT
BRANCH   1   4
ATOM      4  N   UNL     1       4.067   5.443  17.442  0.00  0.00    +0.000 NA
ATOM      5  C   UNL     1       4.947   6.518  16.936  0.00  0.00    +0.000 C 
ATOM      6  C   UNL     1       6.262   5.974  16.359  0.00  0.00    +0.000 C 
ATOM      7  N   UNL     1       6.063   4.811  15.494  0.00  0.00    +0.000 N 
ATOM      8  C   UNL     1       6.888   4.628  14.401  0.00  0.00    +0.000 C 
ATOM      9  O   UNL     1       7.765   5.422  14.085  0.00  0.00    +0.000 OA
ATOM     10  C   UNL     1       5.224   3.749  16.046  0.00  0.00    +0.000 C 
ATOM     11  C   UNL     1       3.881   4.289  16.541  0.00  0.00    +0.000 C 
BRANCH   8  12
ATOM     12  O   UNL     1       6.589   3.494  13.714  0.00  0.00    +0.000 OA
BRANCH  12  13
ATOM     13  C   UNL     1       6.423   3.520  12.272  0.00  0.00    +0.000 C 
ATOM     14  C   UNL     1       6.828   2.181  11.652  0.00  0.00    +0.000 C 
ATOM     15  C   UNL     1       4.917   3.734  12.040  0.00  0.00    +0.000 C 
ATOM     16  C   UNL     1       7.170   4.705  11.645  0.00  0.00    +0.000 C 
ENDBRANCH  12  13
ENDBRANCH   8  12
ENDBRANCH   1   4
BRANCH   1  20
ATOM     17  C   UNL     1       1.086   9.278  19.391  0.00  0.00    +0.000 A 
ATOM     18  C   UNL     1       1.717   8.933  18.188  0.00  0.00    +0.000 A 
ATOM     19  C   UNL     1       2.498   7.779  18.089  0.00  0.00    +0.000 A 
ATOM     20  C   UNL     1       2.665   6.962  19.202  0.00  0.00    +0.000 A 
ATOM     21  C   UNL     1       2.042   7.288  20.411  0.00  0.00    +0.000 A 
ATOM     22  C   UNL     1       1.264   8.452  20.505  0.00  0.00    +0.000 A 
BRANCH  17  25
ATOM     23  C   UNL     1       0.520  11.510  20.346  0.00  0.00    +0.000 C 
ATOM     24  O   UNL     1       1.492  11.717  21.058  0.00  0.00    +0.000 OA
ATOM     25  N   UNL     1       0.274  10.423  19.523  0.00  0.00    +0.000 N 
ATOM     26  H   UNL     1      -0.560  10.500  18.944  0.00  0.00    +0.000 HD
BRANCH  23  28
ATOM     27  C   UNL     1      -1.061  13.055  21.643  0.00  0.00    +0.000 C 
ATOM     28  C   UNL     1      -0.577  12.567  20.306  0.00  0.00    +0.000 C 
ATOM     29  O   UNL     1      -0.989  12.971  19.224  0.00  0.00    +0.000 OA
ENDBRANCH  23  28
ENDBRANCH  17  25
ENDBRANCH   1  20
TORSDOF 6
ENDMDL
MODEL 8
REMARK VINA RESULT:      -7.5      1.043      1.625
REMARK  Name = 
REMARK  10 active torsions:
REMARK  status: ('A' for Active; 'I' for Inactive)
REMARK    1  A    between atoms: C_1  and  C_2
REMARK    2  A    between atoms: C_2  and  C_4
REMARK    3  A    between atoms: N_6  and  C_7
REMARK    4  A    between atoms: C_10  and  S_11
REMARK    5  A    between atoms: S_11  and  N_14
REMARK    6  A    between atoms: C_18  and  O_20
REMARK    7  A    between atoms: O_20  and  C_21
REMARK    8  A    between atoms: C_21  and  C_22
REMARK    9  A    between atoms: C_21  and  C_23
REMARK   10  A    between atoms: C_21  and  C_24
REMARK                            x       y       z     vdW  Elec       q    Type
REMARK                         _______ _______ _______ _____ _____    ______ ____
ROOT
ATOM      1  S   UNL     1       3.487   5.420  18.946  0.00  0.00    +0.000 S 
ATOM      2  O   UNL     1       4.604   5.605  19.847  0.00  0.00    +0.000 OA
ATOM      3  O   UNL     1       2.595   4.290  19.083  0.00  0.00    +0.000 OA
ENDROOT
BRANCH   1   4
ATOM      4  N   UNL     1       4.073   5.446  17.380  0.00  0.00    +0.000 NA
ATOM      5  C   UNL     1       4.961   6.522  16.890  0.00  0.00    +0.000 C 
ATOM      6  C   UNL     1       6.293   5.981  16.352  0.00  0.00    +0.000 C 
ATOM      7  N   UNL     1       6.122   4.811  15.490  0.00  0.00    +0.000 N 
ATOM      8  C   UNL     1       6.977   4.626  14.420  0.00  0.00    +0.000 C 
ATOM      9  O   UNL     1       7.858   5.422  14.122  0.00  0.00    +0.000 OA
ATOM     10  C   UNL     1       5.274   3.749  16.027  0.00  0.00    +0.000 C 
ATOM     11  C   UNL     1       3.916   4.285  16.483  0.00  0.00    +0.000 C 
BRANCH   8  12
ATOM     12  O   UNL     1       6.702   3.486  13.733  0.00  0.00    +0.000 OA
BRANCH  12  13
ATOM     13  C   UNL     1       6.428   3.525  12.308  0.00  0.00    +0.000 C 
ATOM     14  C   UNL     1       6.784   2.190  11.647  0.00  0.00    +0.000 C 
ATOM     15  C   UNL     1       4.909   3.740  12.192  0.00  0.00    +0.000 C 
ATOM     16  C   UNL     1       7.126   4.715  11.637  0.00  0.00    +0.000 C 
ENDBRANCH  12  13
ENDBRANCH   8  12
ENDBRANCH   1   4
BRANCH   1  20
ATOM     17  C   UNL     1       1.159   9.358  19.269  0.00  0.00    +0.000 A 
ATOM     18  C   UNL     1       1.374   8.551  20.395  0.00  0.00    +0.000 A 
ATOM     19  C   UNL     1       2.042   7.328  20.288  0.00  0.00    +0.000 A 
ATOM     20  C   UNL     1       2.493   6.895  19.045  0.00  0.00    +0.000 A 
ATOM     21  C   UNL     1       2.289   7.688  17.910  0.00  0.00    +0.000 A 
ATOM     22  C   UNL     1       1.613   8.911  18.024  0.00  0.00    +0.000 A 
BRANCH  17  25
ATOM     23  C   UNL     1       1.056  11.836  19.011  0.00  0.00    +0.000 C 
ATOM     24  O   UNL     1       2.162  12.072  18.548  0.00  0.00    +0.000 OA
ATOM     25  N   UNL     1       0.508  10.607  19.341  0.00  0.00    +0.000 N 
ATOM     26  H   UNL     1      -0.470  10.632  19.626  0.00  0.00    +0.000 HD
BRANCH  23  28
ATOM     27  C   UNL     1       0.765  14.293  19.678  0.00  0.00    +0.000 C 
ATOM     28  C   UNL     1       0.113  13.008  19.250  0.00  0.00    +0.000 C 
ATOM     29  O   UNL     1      -1.092  12.863  19.072  0.00  0.00    +0.000 OA
ENDBRANCH  23  28
ENDBRANCH  17  25
ENDBRANCH   1  20
TORSDOF 6
ENDMDL
MODEL 9
REMARK VINA RESULT:      -7.5      4.534      7.199
REMARK  Name = 
REMARK  10 active torsions:
REMARK  status: ('A' for Active; 'I' for Inactive)
REMARK    1  A    between atoms: C_1  and  C_2
REMARK    2  A    between atoms: C_2  and  C_4
REMARK    3  A    between atoms: N_6  and  C_7
REMARK    4  A    between atoms: C_10  and  S_11
REMARK    5  A    between atoms: S_11  and  N_14
REMARK    6  A    between atoms: C_18  and  O_20
REMARK    7  A    between atoms: O_20  and  C_21
REMARK    8  A    between atoms: C_21  and  C_22
REMARK    9  A    between atoms: C_21  and  C_23
REMARK   10  A    between atoms: C_21  and  C_24
REMARK                            x       y       z     vdW  Elec       q    Type
REMARK                         _______ _______ _______ _____ _____    ______ ____
ROOT
ATOM      1  S   UNL     1       0.592  11.781  20.158  0.00  0.00    +0.000 S 
ATOM      2  O   UNL     1       0.640  12.653  19.004  0.00  0.00    +0.000 OA
ATOM      3  O   UNL     1       1.537  11.924  21.244  0.00  0.00    +0.000 OA
ENDROOT
BRANCH   1   4
ATOM      4  N   UNL     1       0.641  10.200  19.617  0.00  0.00    +0.000 NA
ATOM      5  C   UNL     1       1.072   9.851  18.247  0.00  0.00    +0.000 C 
ATOM      6  C   UNL     1       2.256   8.873  18.237  0.00  0.00    +0.000 C 
ATOM      7  N   UNL     1       2.089   7.772  19.186  0.00  0.00    +0.000 N 
ATOM      8  C   UNL     1       2.587   6.522  18.871  0.00  0.00    +0.000 C 
ATOM      9  O   UNL     1       3.133   6.269  17.805  0.00  0.00    +0.000 OA
ATOM     10  C   UNL     1       1.706   8.159  20.542  0.00  0.00    +0.000 C 
ATOM     11  C   UNL     1       0.474   9.066  20.546  0.00  0.00    +0.000 C 
BRANCH   8  12
ATOM     12  O   UNL     1       2.371   5.618  19.862  0.00  0.00    +0.000 OA
BRANCH  12  13
ATOM     13  C   UNL     1       2.134   4.219  19.552  0.00  0.00    +0.000 C 
ATOM     14  C   UNL     1       3.434   3.414  19.634  0.00  0.00    +0.000 C 
ATOM     15  C   UNL     1       1.176   3.717  20.646  0.00  0.00    +0.000 C 
ATOM     16  C   UNL     1       1.430   4.057  18.198  0.00  0.00    +0.000 C 
ENDBRANCH  12  13
ENDBRANCH   8  12
ENDBRANCH   1   4
BRANCH   1  20
ATOM     17  C   UNL     1      -3.552  12.441  22.011  0.00  0.00    +0.000 A 
ATOM     18  C   UNL     1      -2.461  12.052  22.800  0.00  0.00    +0.000 A 
ATOM     19  C   UNL     1      -1.210  11.805  22.228  0.00  0.00    +0.000 A 
ATOM     20  C   UNL     1      -1.042  11.934  20.854  0.00  0.00    +0.000 A 
ATOM     21  C   UNL     1      -2.119  12.324  20.049  0.00  0.00    +0.000 A 
ATOM     22  C   UNL     1      -3.373  12.564  20.629  0.00  0.00    +0.000 A 
BRANCH  17  25
ATOM     23  C   UNL     1      -5.206  13.892  23.184  0.00  0.00    +0.000 C 
ATOM     24  O   UNL     1      -4.555  14.915  23.340  0.00  0.00    +0.000 OA
ATOM     25  N   UNL     1      -4.823  12.719  22.553  0.00  0.00    +0.000 N 
ATOM     26  H   UNL     1      -5.559  12.022  22.454  0.00  0.00    +0.000 HD
BRANCH  23  28
ATOM     27  C   UNL     1      -7.376  15.171  23.657  0.00  0.00    +0.000 C 
ATOM     28  C   UNL     1      -6.634  13.864  23.711  0.00  0.00    +0.000 C 
ATOM     29  O   UNL     1      -7.106  12.811  24.126  0.00  0.00    +0.000 OA
ENDBRANCH  23  28
ENDBRANCH  17  25
ENDBRANCH   1  20
TORSDOF 6
ENDMDL
