MODEL 1
REMARK VINA RESULT:      -8.0      0.000      0.000
REMARK  Name = 
REMARK  5 active torsions:
REMARK  status: ('A' for Active; 'I' for Inactive)
REMARK    1  A    between atoms: C_1  and  C_2
REMARK    2  A    between atoms: C_10  and  C_11
REMARK    3  A    between atoms: C_18  and  C_19
REMARK    4  A    between atoms: C_19  and  C_20
REMARK    5  A    between atoms: C_20  and  O_22
REMARK                            x       y       z     vdW  Elec       q    Type
REMARK                         _______ _______ _______ _____ _____    ______ ____
ROOT
ATOM      1  C   UNL     1       3.073   1.970  17.727  0.00  0.00    +0.000 C 
ATOM      2  C   UNL     1       3.544   3.393  17.838  0.00  0.00    +0.000 A 
ATOM      3  N   UNL     1       4.833   3.532  17.467  0.00  0.00    +0.000 NA
ATOM      4  C   UNL     1       5.399   4.735  17.412  0.00  0.00    +0.000 A 
ATOM      5  C   UNL     1       6.724   4.769  16.997  0.00  0.00    +0.000 A 
ATOM      6  C   UNL     1       7.442   5.959  16.895  0.00  0.00    +0.000 A 
ATOM      7  C   UNL     1       6.802   7.149  17.180  0.00  0.00    +0.000 A 
ATOM      8  C   UNL     1       5.457   7.130  17.561  0.00  0.00    +0.000 A 
ATOM      9  C   UNL     1       4.713   5.919  17.736  0.00  0.00    +0.000 A 
ATOM     10  C   UNL     1       3.339   5.793  18.195  0.00  0.00    +0.000 A 
ATOM     11  C   UNL     1       2.751   4.475  18.257  0.00  0.00    +0.000 A 
ENDROOT
BRANCH  10  12
ATOM     12  C   UNL     1       2.569   7.031  18.603  0.00  0.00    +0.000 A 
ATOM     13  C   UNL     1       2.194   8.032  17.684  0.00  0.00    +0.000 A 
ATOM     14  C   UNL     1       1.429   9.145  18.063  0.00  0.00    +0.000 A 
ATOM     15  C   UNL     1       1.123   9.350  19.400  0.00  0.00    +0.000 A 
ATOM     16 CL   UNL     1       0.255  10.755  19.880  0.00  0.00    +0.000 Cl
ATOM     17  C   UNL     1       1.524   8.422  20.349  0.00  0.00    +0.000 A 
ATOM     18  C   UNL     1       2.185   7.252  19.943  0.00  0.00    +0.000 A 
ENDBRANCH  10  12
BRANCH  11  19
ATOM     19  C   UNL     1       1.285   4.289  18.627  0.00  0.00    +0.000 C 
BRANCH  19  20
ATOM     20  C   UNL     1       0.898   3.678  19.955  0.00  0.00    +0.000 C 
ATOM     21  O   UNL     1       1.365   4.039  21.022  0.00  0.00    +0.000 OA
BRANCH  20  22
ATOM     22  O   UNL     1       0.040   2.656  19.852  0.00  0.00    +0.000 OA
ATOM     23  H   UNL     1      -0.760   2.842  19.325  0.00  0.00    +0.000 HD
ENDBRANCH  20  22
ENDBRANCH  19  20
ENDBRANCH  11  19
TORSDOF 4
ENDMDL
MODEL 2
REMARK VINA RESULT:      -8.0      3.135      5.264
REMARK  Name = 
REMARK  5 active torsions:
REMARK  status: ('A' for Active; 'I' for Inactive)
REMARK    1  A    between atoms: C_1  and  C_2
REMARK    2  A    between atoms: C_10  and  C_11
REMARK    3  A    between atoms: C_18  and  C_19
REMARK    4  A    between atoms: C_19  and  C_20
REMARK    5  A    between atoms: C_20  and  O_22
REMARK                            x       y       z     vdW  Elec       q    Type
REMARK                         _______ _______ _______ _____ _____    ______ ____
ROOT
ATOM      1  C   UNL     1       2.259   3.536  21.578  0.00  0.00    +0.000 C 
ATOM      2  C   UNL     1       2.559   4.507  20.471  0.00  0.00    +0.000 A 
ATOM      3  N   UNL     1       1.882   5.665  20.614  0.00  0.00    +0.000 NA
ATOM      4  C   UNL     1       2.087   6.681  19.780  0.00  0.00    +0.000 A 
ATOM      5  C   UNL     1       1.355   7.835  20.028  0.00  0.00    +0.000 A 
ATOM      6  C   UNL     1       1.468   8.974  19.235  0.00  0.00    +0.000 A 
ATOM      7  C   UNL     1       2.368   8.969  18.188  0.00  0.00    +0.000 A 
ATOM      8  C   UNL     1       3.140   7.827  17.952  0.00  0.00    +0.000 A 
ATOM      9  C   UNL     1       2.999   6.621  18.710  0.00  0.00    +0.000 A 
ATOM     10  C   UNL     1       3.701   5.365  18.498  0.00  0.00    +0.000 A 
ATOM     11  C   UNL     1       3.450   4.273  19.410  0.00  0.00    +0.000 A 
ENDROOT
BRANCH  10  12
ATOM     12  C   UNL     1       4.656   5.229  17.333  0.00  0.00    +0.000 A 
ATOM     13  C   UNL     1       4.339   4.502  16.168  0.00  0.00    +0.000 A 
ATOM     14  C   UNL     1       5.208   4.432  15.069  0.00  0.00    +0.000 A 
ATOM     15  C   UNL     1       6.477   4.988  15.156  0.00  0.00    +0.000 A 
ATOM     16 CL   UNL     1       7.576   4.835  13.843  0.00  0.00    +0.000 Cl
ATOM     17  C   UNL     1       6.856   5.662  16.308  0.00  0.00    +0.000 A 
ATOM     18  C   UNL     1       5.935   5.828  17.353  0.00  0.00    +0.000 A 
ENDBRANCH  10  12
BRANCH  11  19
ATOM     19  C   UNL     1       4.232   2.970  19.304  0.00  0.00    +0.000 C 
BRANCH  19  20
ATOM     20  C   UNL     1       3.672   1.797  18.531  0.00  0.00    +0.000 C 
ATOM     21  O   UNL     1       2.634   1.847  17.894  0.00  0.00    +0.000 OA
BRANCH  20  22
ATOM     22  O   UNL     1       4.386   0.672  18.661  0.00  0.00    +0.000 OA
ATOM     23  H   UNL     1       5.159   0.741  19.251  0.00  0.00    +0.000 HD
ENDBRANCH  20  22
ENDBRANCH  19  20
ENDBRANCH  11  19
TORSDOF 4
ENDMDL
MODEL 3
REMARK VINA RESULT:      -8.0      0.073      1.024
REMARK  Name = 
REMARK  5 active torsions:
REMARK  status: ('A' for Active; 'I' for Inactive)
REMARK    1  A    between atoms: C_1  and  C_2
REMARK    2  A    between atoms: C_10  and  C_11
REMARK    3  A    between atoms: C_18  and  C_19
REMARK    4  A    between atoms: C_19  and  C_20
REMARK    5  A    between atoms: C_20  and  O_22
REMARK                            x       y       z     vdW  Elec       q    Type
REMARK                         _______ _______ _______ _____ _____    ______ ____
ROOT
ATOM      1  C   UNL     1       3.128   1.970  17.809  0.00  0.00    +0.000 C 
ATOM      2  C   UNL     1       3.589   3.398  17.908  0.00  0.00    +0.000 A 
ATOM      3  N   UNL     1       4.881   3.541  17.545  0.00  0.00    +0.000 NA
ATOM      4  C   UNL     1       5.440   4.746  17.481  0.00  0.00    +0.000 A 
ATOM      5  C   UNL     1       6.767   4.785  17.076  0.00  0.00    +0.000 A 
ATOM      6  C   UNL     1       7.478   5.977  16.967  0.00  0.00    +0.000 A 
ATOM      7  C   UNL     1       6.829   7.167  17.233  0.00  0.00    +0.000 A 
ATOM      8  C   UNL     1       5.480   7.143  17.603  0.00  0.00    +0.000 A 
ATOM      9  C   UNL     1       4.743   5.930  17.786  0.00  0.00    +0.000 A 
ATOM     10  C   UNL     1       3.366   5.801  18.235  0.00  0.00    +0.000 A 
ATOM     11  C   UNL     1       2.786   4.479  18.307  0.00  0.00    +0.000 A 
ENDROOT
BRANCH  10  12
ATOM     12  C   UNL     1       2.585   7.037  18.622  0.00  0.00    +0.000 A 
ATOM     13  C   UNL     1       2.181   7.299  19.947  0.00  0.00    +0.000 A 
ATOM     14  C   UNL     1       1.509   8.478  20.305  0.00  0.00    +0.000 A 
ATOM     15  C   UNL     1       1.114   9.373  19.322  0.00  0.00    +0.000 A 
ATOM     16 CL   UNL     1       0.220  10.779  19.745  0.00  0.00    +0.000 Cl
ATOM     17  C   UNL     1       1.437   9.127  17.995  0.00  0.00    +0.000 A 
ATOM     18  C   UNL     1       2.213   8.005  17.664  0.00  0.00    +0.000 A 
ENDBRANCH  10  12
BRANCH  11  19
ATOM     19  C   UNL     1       1.318   4.288  18.668  0.00  0.00    +0.000 C 
BRANCH  19  20
ATOM     20  C   UNL     1       0.924   3.691  20.000  0.00  0.00    +0.000 C 
ATOM     21  O   UNL     1       1.408   4.041  21.062  0.00  0.00    +0.000 OA
BRANCH  20  22
ATOM     22  O   UNL     1       0.038   2.692  19.905  0.00  0.00    +0.000 OA
ATOM     23  H   UNL     1      -0.891   2.974  19.813  0.00  0.00    +0.000 HD
ENDBRANCH  20  22
ENDBRANCH  19  20
ENDBRANCH  11  19
TORSDOF 4
ENDMDL
MODEL 4
REMARK VINA RESULT:      -8.0      3.143      5.302
REMARK  Name = 
REMARK  5 active torsions:
REMARK  status: ('A' for Active; 'I' for Inactive)
REMARK    1  A    between atoms: C_1  and  C_2
REMARK    2  A    between atoms: C_10  and  C_11
REMARK    3  A    between atoms: C_18  and  C_19
REMARK    4  A    between atoms: C_19  and  C_20
REMARK    5  A    between atoms: C_20  and  O_22
REMARK                            x       y       z     vdW  Elec       q    Type
REMARK                         _______ _______ _______ _____ _____    ______ ____
ROOT
ATOM      1  C   UNL     1       2.265   3.527  21.566  0.00  0.00    +0.000 C 
ATOM      2  C   UNL     1       2.569   4.500  20.461  0.00  0.00    +0.000 A 
ATOM      3  N   UNL     1       1.887   5.655  20.601  0.00  0.00    +0.000 NA
ATOM      4  C   UNL     1       2.095   6.672  19.768  0.00  0.00    +0.000 A 
ATOM      5  C   UNL     1       1.357   7.824  20.012  0.00  0.00    +0.000 A 
ATOM      6  C   UNL     1       1.472   8.964  19.220  0.00  0.00    +0.000 A 
ATOM      7  C   UNL     1       2.379   8.962  18.179  0.00  0.00    +0.000 A 
ATOM      8  C   UNL     1       3.157   7.822  17.948  0.00  0.00    +0.000 A 
ATOM      9  C   UNL     1       3.014   6.615  18.705  0.00  0.00    +0.000 A 
ATOM     10  C   UNL     1       3.721   5.362  18.497  0.00  0.00    +0.000 A 
ATOM     11  C   UNL     1       3.469   4.268  19.407  0.00  0.00    +0.000 A 
ENDROOT
BRANCH  10  12
ATOM     12  C   UNL     1       4.685   5.229  17.338  0.00  0.00    +0.000 A 
ATOM     13  C   UNL     1       5.966   5.819  17.341  0.00  0.00    +0.000 A 
ATOM     14  C   UNL     1       6.874   5.640  16.287  0.00  0.00    +0.000 A 
ATOM     15  C   UNL     1       6.478   4.965  15.141  0.00  0.00    +0.000 A 
ATOM     16 CL   UNL     1       7.560   4.812  13.814  0.00  0.00    +0.000 Cl
ATOM     17  C   UNL     1       5.205   4.419  15.069  0.00  0.00    +0.000 A 
ATOM     18  C   UNL     1       4.348   4.501  16.176  0.00  0.00    +0.000 A 
ENDBRANCH  10  12
BRANCH  11  19
ATOM     19  C   UNL     1       4.255   2.968  19.305  0.00  0.00    +0.000 C 
BRANCH  19  20
ATOM     20  C   UNL     1       3.707   1.796  18.524  0.00  0.00    +0.000 C 
ATOM     21  O   UNL     1       2.675   1.843  17.877  0.00  0.00    +0.000 OA
BRANCH  20  22
ATOM     22  O   UNL     1       4.424   0.673  18.656  0.00  0.00    +0.000 OA
ATOM     23  H   UNL     1       4.013  -0.125  18.273  0.00  0.00    +0.000 HD
ENDBRANCH  20  22
ENDBRANCH  19  20
ENDBRANCH  11  19
TORSDOF 4
ENDMDL
MODEL 5
REMARK VINA RESULT:      -7.8      2.327      4.341
REMARK  Name = 
REMARK  5 active torsions:
REMARK  status: ('A' for Active; 'I' for Inactive)
REMARK    1  A    between atoms: C_1  and  C_2
REMARK    2  A    between atoms: C_10  and  C_11
REMARK    3  A    between atoms: C_18  and  C_19
REMARK    4  A    between atoms: C_19  and  C_20
REMARK    5  A    between atoms: C_20  and  O_22
REMARK                            x       y       z     vdW  Elec       q    Type
REMARK                         _______ _______ _______ _____ _____    ______ ____
ROOT
ATOM      1  C   UNL     1       6.198   4.128  15.982  0.00  0.00    +0.000 C 
ATOM      2  C   UNL     1       4.909   4.343  16.725  0.00  0.00    +0.000 A 
ATOM      3  N   UNL     1       4.283   3.180  17.003  0.00  0.00    +0.000 NA
ATOM      4  C   UNL     1       3.173   3.164  17.736  0.00  0.00    +0.000 A 
ATOM      5  C   UNL     1       2.620   1.914  17.983  0.00  0.00    +0.000 A 
ATOM      6  C   UNL     1       1.458   1.748  18.732  0.00  0.00    +0.000 A 
ATOM      7  C   UNL     1       0.855   2.863  19.281  0.00  0.00    +0.000 A 
ATOM      8  C   UNL     1       1.424   4.123  19.072  0.00  0.00    +0.000 A 
ATOM      9  C   UNL     1       2.581   4.331  18.254  0.00  0.00    +0.000 A 
ATOM     10  C   UNL     1       3.202   5.603  17.920  0.00  0.00    +0.000 A 
ATOM     11  C   UNL     1       4.400   5.594  17.113  0.00  0.00    +0.000 A 
ENDROOT
BRANCH  10  12
ATOM     12  C   UNL     1       2.579   6.891  18.410  0.00  0.00    +0.000 A 
ATOM     13  C   UNL     1       2.274   7.966  17.550  0.00  0.00    +0.000 A 
ATOM     14  C   UNL     1       1.642   9.132  18.005  0.00  0.00    +0.000 A 
ATOM     15  C   UNL     1       1.408   9.307  19.362  0.00  0.00    +0.000 A 
ATOM     16 CL   UNL     1       0.708  10.769  19.935  0.00  0.00    +0.000 Cl
ATOM     17  C   UNL     1       1.747   8.300  20.254  0.00  0.00    +0.000 A 
ATOM     18  C   UNL     1       2.269   7.090  19.773  0.00  0.00    +0.000 A 
ENDBRANCH  10  12
BRANCH  11  19
ATOM     19  C   UNL     1       5.155   6.884  16.820  0.00  0.00    +0.000 C 
BRANCH  19  20
ATOM     20  C   UNL     1       6.516   7.135  17.430  0.00  0.00    +0.000 C 
ATOM     21  O   UNL     1       7.324   7.921  16.967  0.00  0.00    +0.000 OA
BRANCH  20  22
ATOM     22  O   UNL     1       6.784   6.367  18.493  0.00  0.00    +0.000 OA
ATOM     23  H   UNL     1       7.023   6.856  19.303  0.00  0.00    +0.000 HD
ENDBRANCH  20  22
ENDBRANCH  19  20
ENDBRANCH  11  19
TORSDOF 4
ENDMDL
MODEL 6
REMARK VINA RESULT:      -7.7      2.355      4.490
REMARK  Name = 
REMARK  5 active torsions:
REMARK  status: ('A' for Active; 'I' for Inactive)
REMARK    1  A    between atoms: C_1  and  C_2
REMARK    2  A    between atoms: C_10  and  C_11
REMARK    3  A    between atoms: C_18  and  C_19
REMARK    4  A    between atoms: C_19  and  C_20
REMARK    5  A    between atoms: C_20  and  O_22
REMARK                            x       y       z     vdW  Elec       q    Type
REMARK                         _______ _______ _______ _____ _____    ______ ____
ROOT
ATOM      1  C   UNL     1       6.208   4.095  16.033  0.00  0.00    +0.000 C 
ATOM      2  C   UNL     1       4.913   4.324  16.761  0.00  0.00    +0.000 A 
ATOM      3  N   UNL     1       4.266   3.169  17.022  0.00  0.00    +0.000 NA
ATOM      4  C   UNL     1       3.146   3.163  17.740  0.00  0.00    +0.000 A 
ATOM      5  C   UNL     1       2.571   1.920  17.969  0.00  0.00    +0.000 A 
ATOM      6  C   UNL     1       1.397   1.766  18.702  0.00  0.00    +0.000 A 
ATOM      7  C   UNL     1       0.804   2.885  19.253  0.00  0.00    +0.000 A 
ATOM      8  C   UNL     1       1.396   4.138  19.062  0.00  0.00    +0.000 A 
ATOM      9  C   UNL     1       2.565   4.335  18.260  0.00  0.00    +0.000 A 
ATOM     10  C   UNL     1       3.210   5.599  17.946  0.00  0.00    +0.000 A 
ATOM     11  C   UNL     1       4.419   5.579  17.154  0.00  0.00    +0.000 A 
ENDROOT
BRANCH  10  12
ATOM     12  C   UNL     1       2.601   6.894  18.439  0.00  0.00    +0.000 A 
ATOM     13  C   UNL     1       2.259   7.109  19.790  0.00  0.00    +0.000 A 
ATOM     14  C   UNL     1       1.750   8.333  20.247  0.00  0.00    +0.000 A 
ATOM     15  C   UNL     1       1.453   9.340  19.339  0.00  0.00    +0.000 A 
ATOM     16 CL   UNL     1       0.754  10.813  19.883  0.00  0.00    +0.000 Cl
ATOM     17  C   UNL     1       1.717   9.150  17.990  0.00  0.00    +0.000 A 
ATOM     18  C   UNL     1       2.336   7.967  17.561  0.00  0.00    +0.000 A 
ENDBRANCH  10  12
BRANCH  11  19
ATOM     19  C   UNL     1       5.197   6.859  16.882  0.00  0.00    +0.000 C 
BRANCH  19  20
ATOM     20  C   UNL     1       6.553   7.085  17.512  0.00  0.00    +0.000 C 
ATOM     21  O   UNL     1       6.987   6.411  18.431  0.00  0.00    +0.000 OA
BRANCH  20  22
ATOM     22  O   UNL     1       7.215   8.136  17.013  0.00  0.00    +0.000 OA
ATOM     23  H   UNL     1       8.137   7.956  16.753  0.00  0.00    +0.000 HD
ENDBRANCH  20  22
ENDBRANCH  19  20
ENDBRANCH  11  19
TORSDOF 4
ENDMDL
MODEL 7
REMARK VINA RESULT:      -7.5      0.991      1.013
REMARK  Name = 
REMARK  5 active torsions:
REMARK  status: ('A' for Active; 'I' for Inactive)
REMARK    1  A    between atoms: C_1  and  C_2
REMARK    2  A    between atoms: C_10  and  C_11
REMARK    3  A    between atoms: C_18  and  C_19
REMARK    4  A    between atoms: C_19  and  C_20
REMARK    5  A    between atoms: C_20  and  O_22
REMARK                            x       y       z     vdW  Elec       q    Type
REMARK                         _______ _______ _______ _____ _____    ______ ____
ROOT
ATOM      1  C   UNL     1       2.841   1.654  18.544  0.00  0.00    +0.000 C 
ATOM      2  C   UNL     1       3.253   3.058  18.201  0.00  0.00    +0.000 A 
ATOM      3  N   UNL     1       4.301   3.086  17.352  0.00  0.00    +0.000 NA
ATOM      4  C   UNL     1       4.750   4.239  16.863  0.00  0.00    +0.000 A 
ATOM      5  C   UNL     1       5.819   4.156  15.981  0.00  0.00    +0.000 A 
ATOM      6  C   UNL     1       6.391   5.283  15.395  0.00  0.00    +0.000 A 
ATOM      7  C   UNL     1       5.852   6.524  15.672  0.00  0.00    +0.000 A 
ATOM      8  C   UNL     1       4.749   6.616  16.527  0.00  0.00    +0.000 A 
ATOM      9  C   UNL     1       4.181   5.483  17.194  0.00  0.00    +0.000 A 
ATOM     10  C   UNL     1       3.087   5.487  18.151  0.00  0.00    +0.000 A 
ATOM     11  C   UNL     1       2.626   4.222  18.676  0.00  0.00    +0.000 A 
ENDROOT
BRANCH  10  12
ATOM     12  C   UNL     1       2.471   6.801  18.579  0.00  0.00    +0.000 A 
ATOM     13  C   UNL     1       2.120   7.813  17.662  0.00  0.00    +0.000 A 
ATOM     14  C   UNL     1       1.495   9.002  18.064  0.00  0.00    +0.000 A 
ATOM     15  C   UNL     1       1.314   9.266  19.414  0.00  0.00    +0.000 A 
ATOM     16 CL   UNL     1       0.622  10.757  19.916  0.00  0.00    +0.000 Cl
ATOM     17  C   UNL     1       1.700   8.325  20.357  0.00  0.00    +0.000 A 
ATOM     18  C   UNL     1       2.215   7.088  19.937  0.00  0.00    +0.000 A 
ENDBRANCH  10  12
BRANCH  11  19
ATOM     19  C   UNL     1       1.417   4.153  19.599  0.00  0.00    +0.000 C 
BRANCH  19  20
ATOM     20  C   UNL     1       1.563   3.677  21.027  0.00  0.00    +0.000 C 
ATOM     21  O   UNL     1       2.381   4.135  21.806  0.00  0.00    +0.000 OA
BRANCH  20  22
ATOM     22  O   UNL     1       0.757   2.657  21.344  0.00  0.00    +0.000 OA
ATOM     23  H   UNL     1      -0.194   2.875  21.360  0.00  0.00    +0.000 HD
ENDBRANCH  20  22
ENDBRANCH  19  20
ENDBRANCH  11  19
TORSDOF 4
ENDMDL
MODEL 8
REMARK VINA RESULT:      -7.3      1.065      1.180
REMARK  Name = 
REMARK  5 active torsions:
REMARK  status: ('A' for Active; 'I' for Inactive)
REMARK    1  A    between atoms: C_1  and  C_2
REMARK    2  A    between atoms: C_10  and  C_11
REMARK    3  A    between atoms: C_18  and  C_19
REMARK    4  A    between atoms: C_19  and  C_20
REMARK    5  A    between atoms: C_20  and  O_22
REMARK                            x       y       z     vdW  Elec       q    Type
REMARK                         _______ _______ _______ _____ _____    ______ ____
ROOT
ATOM      1  C   UNL     1       4.042   2.038  19.706  0.00  0.00    +0.000 C 
ATOM      2  C   UNL     1       4.289   3.471  19.328  0.00  0.00    +0.000 A 
ATOM      3  N   UNL     1       5.537   3.663  18.853  0.00  0.00    +0.000 NA
ATOM      4  C   UNL     1       5.911   4.850  18.382  0.00  0.00    +0.000 A 
ATOM      5  C   UNL     1       7.209   4.936  17.897  0.00  0.00    +0.000 A 
ATOM      6  C   UNL     1       7.734   6.117  17.376  0.00  0.00    +0.000 A 
ATOM      7  C   UNL     1       6.922   7.232  17.306  0.00  0.00    +0.000 A 
ATOM      8  C   UNL     1       5.600   7.146  17.755  0.00  0.00    +0.000 A 
ATOM      9  C   UNL     1       5.054   5.966  18.353  0.00  0.00    +0.000 A 
ATOM     10  C   UNL     1       3.721   5.803  18.911  0.00  0.00    +0.000 A 
ATOM     11  C   UNL     1       3.344   4.507  19.427  0.00  0.00    +0.000 A 
ENDROOT
BRANCH  10  12
ATOM     12  C   UNL     1       2.776   6.983  18.950  0.00  0.00    +0.000 A 
ATOM     13  C   UNL     1       2.450   7.736  17.803  0.00  0.00    +0.000 A 
ATOM     14  C   UNL     1       1.526   8.791  17.839  0.00  0.00    +0.000 A 
ATOM     15  C   UNL     1       0.994   9.202  19.053  0.00  0.00    +0.000 A 
ATOM     16 CL   UNL     1      -0.077  10.546  19.114  0.00  0.00    +0.000 Cl
ATOM     17  C   UNL     1       1.333   8.528  20.217  0.00  0.00    +0.000 A 
ATOM     18  C   UNL     1       2.164   7.400  20.152  0.00  0.00    +0.000 A 
ENDBRANCH  10  12
BRANCH  11  19
ATOM     19  C   UNL     1       1.930   4.245  19.927  0.00  0.00    +0.000 C 
BRANCH  19  20
ATOM     20  C   UNL     1       0.942   3.479  19.076  0.00  0.00    +0.000 C 
ATOM     21  O   UNL     1       0.935   3.516  17.858  0.00  0.00    +0.000 OA
BRANCH  20  22
ATOM     22  O   UNL     1       0.027   2.804  19.783  0.00  0.00    +0.000 OA
ATOM     23  H   UNL     1       0.384   2.290  20.531  0.00  0.00    +0.000 HD
ENDBRANCH  20  22
ENDBRANCH  19  20
ENDBRANCH  11  19
TORSDOF 4
ENDMDL
MODEL 9
REMARK VINA RESULT:      -7.2      1.041      1.538
REMARK  Name = 
REMARK  5 active torsions:
REMARK  status: ('A' for Active; 'I' for Inactive)
REMARK    1  A    between atoms: C_1  and  C_2
REMARK    2  A    between atoms: C_10  and  C_11
REMARK    3  A    between atoms: C_18  and  C_19
REMARK    4  A    between atoms: C_19  and  C_20
REMARK    5  A    between atoms: C_20  and  O_22
REMARK                            x       y       z     vdW  Elec       q    Type
REMARK                         _______ _______ _______ _____ _____    ______ ____
ROOT
ATOM      1  C   UNL     1       4.023   2.047  19.666  0.00  0.00    +0.000 C 
ATOM      2  C   UNL     1       4.269   3.484  19.298  0.00  0.00    +0.000 A 
ATOM      3  N   UNL     1       5.513   3.679  18.814  0.00  0.00    +0.000 NA
ATOM      4  C   UNL     1       5.883   4.870  18.351  0.00  0.00    +0.000 A 
ATOM      5  C   UNL     1       7.178   4.958  17.856  0.00  0.00    +0.000 A 
ATOM      6  C   UNL     1       7.699   6.143  17.342  0.00  0.00    +0.000 A 
ATOM      7  C   UNL     1       6.888   7.260  17.288  0.00  0.00    +0.000 A 
ATOM      8  C   UNL     1       5.570   7.171  17.748  0.00  0.00    +0.000 A 
ATOM      9  C   UNL     1       5.027   5.986  18.339  0.00  0.00    +0.000 A 
ATOM     10  C   UNL     1       3.699   5.819  18.908  0.00  0.00    +0.000 A 
ATOM     11  C   UNL     1       3.326   4.519  19.415  0.00  0.00    +0.000 A 
ENDROOT
BRANCH  10  12
ATOM     12  C   UNL     1       2.755   7.000  18.965  0.00  0.00    +0.000 A 
ATOM     13  C   UNL     1       2.149   7.433  20.162  0.00  0.00    +0.000 A 
ATOM     14  C   UNL     1       1.322   8.565  20.213  0.00  0.00    +0.000 A 
ATOM     15  C   UNL     1       0.980   9.225  19.042  0.00  0.00    +0.000 A 
ATOM     16 CL   UNL     1      -0.098  10.564  19.089  0.00  0.00    +0.000 Cl
ATOM     17  C   UNL     1       1.505   8.796  17.831  0.00  0.00    +0.000 A 
ATOM     18  C   UNL     1       2.425   7.737  17.807  0.00  0.00    +0.000 A 
ENDBRANCH  10  12
BRANCH  11  19
ATOM     19  C   UNL     1       1.915   4.254  19.925  0.00  0.00    +0.000 C 
BRANCH  19  20
ATOM     20  C   UNL     1       0.949   3.418  19.116  0.00  0.00    +0.000 C 
ATOM     21  O   UNL     1       0.940   3.391  17.898  0.00  0.00    +0.000 OA
BRANCH  20  22
ATOM     22  O   UNL     1       0.054   2.754  19.858  0.00  0.00    +0.000 OA
ATOM     23  H   UNL     1      -0.512   2.134  19.362  0.00  0.00    +0.000 HD
ENDBRANCH  20  22
ENDBRANCH  19  20
ENDBRANCH  11  19
TORSDOF 4
ENDMDL
