MODEL 1
REMARK VINA RESULT:      -6.5      0.000      0.000
REMARK  Name = 
REMARK  9 active torsions:
REMARK  status: ('A' for Active; 'I' for Inactive)
REMARK    1  A    between atoms: C_1  and  C_2
REMARK    2  A    between atoms: C_5  and  C_6
REMARK    3  A    between atoms: C_6  and  N_7
REMARK    4  A    between atoms: N_7  and  C_8
REMARK    5  A    between atoms: N_7  and  C_9
REMARK    6  A    between atoms: C_9  and  C_10
REMARK    7  A    between atoms: C_10  and  O_11
REMARK    8  A    between atoms: O_11  and  C_12
REMARK    9  A    between atoms: C_18  and  C_19
REMARK                            x       y       z     vdW  Elec       q    Type
REMARK                         _______ _______ _______ _____ _____    ______ ____
ROOT
ATOM      1  C   UNL     1       1.605   4.353  18.770  0.00  0.00    +0.000 C 
ENDROOT
BRANCH   1   2
ATOM      2  N   UNL     1       1.672   2.878  18.881  0.00  0.00    +0.000 NA
ATOM      3  C   UNL     1       1.515   2.431  20.263  0.00  0.00    +0.000 C 
BRANCH   2   4
ATOM      4  C   UNL     1       2.858   2.285  18.227  0.00  0.00    +0.000 C 
BRANCH   4   9
ATOM      5  C   UNL     1       7.518   5.561  17.893  0.00  0.00    +0.000 C 
ATOM      6  C   UNL     1       6.289   4.715  17.974  0.00  0.00    +0.000 A 
ATOM      7  C   UNL     1       5.514   4.448  16.851  0.00  0.00    +0.000 A 
ATOM      8  N   UNL     1       4.407   3.669  16.891  0.00  0.00    +0.000 NA
ATOM      9  C   UNL     1       4.082   3.163  18.108  0.00  0.00    +0.000 A 
ATOM     10  C   UNL     1       4.852   3.445  19.228  0.00  0.00    +0.000 A 
ATOM     11  N   UNL     1       5.961   4.218  19.191  0.00  0.00    +0.000 NA
ENDBRANCH   4   9
ENDBRANCH   2   4
ENDBRANCH   1   2
BRANCH   1  12
ATOM     12  C   UNL     1       1.724   5.030  20.148  0.00  0.00    +0.000 C 
BRANCH  12  13
ATOM     13  O   UNL     1       2.694   6.078  20.138  0.00  0.00    +0.000 OA
BRANCH  13  14
ATOM     14  C   UNL     1       2.231   7.310  19.736  0.00  0.00    +0.000 A 
ATOM     15  C   UNL     1       1.381   7.925  20.670  0.00  0.00    +0.000 A 
ATOM     16  C   UNL     1       0.770   9.153  20.398  0.00  0.00    +0.000 A 
ATOM     17  C   UNL     1       0.999   9.775  19.179  0.00  0.00    +0.000 A 
ATOM     18 CL   UNL     1       0.228  11.266  18.808  0.00  0.00    +0.000 Cl
ATOM     19  C   UNL     1       1.836   9.179  18.239  0.00  0.00    +0.000 A 
ATOM     20  C   UNL     1       2.453   7.936  18.496  0.00  0.00    +0.000 A 
ATOM     21  C   UNL     1       3.296   7.372  17.386  0.00  0.00    +0.000 C 
ENDBRANCH  13  14
ENDBRANCH  12  13
ENDBRANCH   1  12
TORSDOF 6
ENDMDL
MODEL 2
REMARK VINA RESULT:      -6.5      3.290      6.346
REMARK  Name = 
REMARK  9 active torsions:
REMARK  status: ('A' for Active; 'I' for Inactive)
REMARK    1  A    between atoms: C_1  and  C_2
REMARK    2  A    between atoms: C_5  and  C_6
REMARK    3  A    between atoms: C_6  and  N_7
REMARK    4  A    between atoms: N_7  and  C_8
REMARK    5  A    between atoms: N_7  and  C_9
REMARK    6  A    between atoms: C_9  and  C_10
REMARK    7  A    between atoms: C_10  and  O_11
REMARK    8  A    between atoms: O_11  and  C_12
REMARK    9  A    between atoms: C_18  and  C_19
REMARK                            x       y       z     vdW  Elec       q    Type
REMARK                         _______ _______ _______ _____ _____    ______ ____
ROOT
ATOM      1  C   UNL     1       3.044   4.399  20.077  0.00  0.00    +0.000 C 
ENDROOT
BRANCH   1   2
ATOM      2  N   UNL     1       2.264   5.244  19.145  0.00  0.00    +0.000 NA
ATOM      3  C   UNL     1       1.805   4.488  17.982  0.00  0.00    +0.000 C 
BRANCH   2   4
ATOM      4  C   UNL     1       2.946   6.500  18.768  0.00  0.00    +0.000 C 
BRANCH   4   9
ATOM      5  C   UNL     1       0.033  11.363  19.424  0.00  0.00    +0.000 C 
ATOM      6  C   UNL     1       0.805  10.094  19.264  0.00  0.00    +0.000 A 
ATOM      7  C   UNL     1       0.994   9.218  20.327  0.00  0.00    +0.000 A 
ATOM      8  N   UNL     1       1.672   8.052  20.207  0.00  0.00    +0.000 NA
ATOM      9  C   UNL     1       2.176   7.785  18.975  0.00  0.00    +0.000 A 
ATOM     10  C   UNL     1       1.997   8.670  17.921  0.00  0.00    +0.000 A 
ATOM     11  N   UNL     1       1.315   9.832  18.037  0.00  0.00    +0.000 NA
ENDBRANCH   4   9
ENDBRANCH   2   4
ENDBRANCH   1   2
BRANCH   1  12
ATOM     12  C   UNL     1       4.011   3.467  19.324  0.00  0.00    +0.000 C 
BRANCH  12  13
ATOM     13  O   UNL     1       5.344   3.978  19.326  0.00  0.00    +0.000 OA
BRANCH  13  14
ATOM     14  C   UNL     1       5.836   4.357  18.097  0.00  0.00    +0.000 A 
ATOM     15  C   UNL     1       5.176   3.750  17.016  0.00  0.00    +0.000 A 
ATOM     16  C   UNL     1       5.588   3.971  15.698  0.00  0.00    +0.000 A 
ATOM     17  C   UNL     1       6.672   4.799  15.450  0.00  0.00    +0.000 A 
ATOM     18 CL   UNL     1       7.219   5.056  13.841  0.00  0.00    +0.000 Cl
ATOM     19  C   UNL     1       7.341   5.407  16.510  0.00  0.00    +0.000 A 
ATOM     20  C   UNL     1       6.943   5.187  17.847  0.00  0.00    +0.000 A 
ATOM     21  C   UNL     1       7.771   5.860  18.905  0.00  0.00    +0.000 C 
ENDBRANCH  13  14
ENDBRANCH  12  13
ENDBRANCH   1  12
TORSDOF 6
ENDMDL
MODEL 3
REMARK VINA RESULT:      -6.5      1.332      1.994
REMARK  Name = 
REMARK  9 active torsions:
REMARK  status: ('A' for Active; 'I' for Inactive)
REMARK    1  A    between atoms: C_1  and  C_2
REMARK    2  A    between atoms: C_5  and  C_6
REMARK    3  A    between atoms: C_6  and  N_7
REMARK    4  A    between atoms: N_7  and  C_8
REMARK    5  A    between atoms: N_7  and  C_9
REMARK    6  A    between atoms: C_9  and  C_10
REMARK    7  A    between atoms: C_10  and  O_11
REMARK    8  A    between atoms: O_11  and  C_12
REMARK    9  A    between atoms: C_18  and  C_19
REMARK                            x       y       z     vdW  Elec       q    Type
REMARK                         _______ _______ _______ _____ _____    ______ ____
ROOT
ATOM      1  C   UNL     1       2.236   3.798  20.250  0.00  0.00    +0.000 C 
ENDROOT
BRANCH   1   2
ATOM      2  N   UNL     1       3.023   3.743  18.998  0.00  0.00    +0.000 NA
ATOM      3  C   UNL     1       2.461   2.789  18.046  0.00  0.00    +0.000 C 
BRANCH   2   4
ATOM      4  C   UNL     1       4.471   3.540  19.213  0.00  0.00    +0.000 C 
BRANCH   4   9
ATOM      5  C   UNL     1       7.838   7.836  17.548  0.00  0.00    +0.000 C 
ATOM      6  C   UNL     1       6.968   6.701  17.980  0.00  0.00    +0.000 A 
ATOM      7  C   UNL     1       7.377   5.803  18.960  0.00  0.00    +0.000 A 
ATOM      8  N   UNL     1       6.602   4.777  19.386  0.00  0.00    +0.000 NA
ATOM      9  C   UNL     1       5.389   4.664  18.788  0.00  0.00    +0.000 A 
ATOM     10  C   UNL     1       4.992   5.555  17.800  0.00  0.00    +0.000 A 
ATOM     11  N   UNL     1       5.761   6.583  17.377  0.00  0.00    +0.000 NA
ENDBRANCH   4   9
ENDBRANCH   2   4
ENDBRANCH   1   2
BRANCH   1  12
ATOM     12  C   UNL     1       2.106   5.239  20.775  0.00  0.00    +0.000 C 
BRANCH  12  13
ATOM     13  O   UNL     1       2.399   6.199  19.759  0.00  0.00    +0.000 OA
BRANCH  13  14
ATOM     14  C   UNL     1       1.846   7.446  19.943  0.00  0.00    +0.000 A 
ATOM     15  C   UNL     1       1.200   7.598  21.181  0.00  0.00    +0.000 A 
ATOM     16  C   UNL     1       0.529   8.779  21.509  0.00  0.00    +0.000 A 
ATOM     17  C   UNL     1       0.491   9.821  20.594  0.00  0.00    +0.000 A 
ATOM     18 CL   UNL     1      -0.361  11.269  20.961  0.00  0.00    +0.000 Cl
ATOM     19  C   UNL     1       1.122   9.687  19.360  0.00  0.00    +0.000 A 
ATOM     20  C   UNL     1       1.797   8.497  19.010  0.00  0.00    +0.000 A 
ATOM     21  C   UNL     1       2.398   8.456  17.634  0.00  0.00    +0.000 C 
ENDBRANCH  13  14
ENDBRANCH  12  13
ENDBRANCH   1  12
TORSDOF 6
ENDMDL
MODEL 4
REMARK VINA RESULT:      -6.5      2.936      5.369
REMARK  Name = 
REMARK  9 active torsions:
REMARK  status: ('A' for Active; 'I' for Inactive)
REMARK    1  A    between atoms: C_1  and  C_2
REMARK    2  A    between atoms: C_5  and  C_6
REMARK    3  A    between atoms: C_6  and  N_7
REMARK    4  A    between atoms: N_7  and  C_8
REMARK    5  A    between atoms: N_7  and  C_9
REMARK    6  A    between atoms: C_9  and  C_10
REMARK    7  A    between atoms: C_10  and  O_11
REMARK    8  A    between atoms: O_11  and  C_12
REMARK    9  A    between atoms: C_18  and  C_19
REMARK                            x       y       z     vdW  Elec       q    Type
REMARK                         _______ _______ _______ _____ _____    ______ ____
ROOT
ATOM      1  C   UNL     1       3.483   2.670  20.782  0.00  0.00    +0.000 C 
ENDROOT
BRANCH   1   2
ATOM      2  N   UNL     1       2.106   2.377  20.323  0.00  0.00    +0.000 NA
ATOM      3  C   UNL     1       2.095   1.780  18.990  0.00  0.00    +0.000 C 
BRANCH   2   4
ATOM      4  C   UNL     1       1.184   3.526  20.436  0.00  0.00    +0.000 C 
BRANCH   4   9
ATOM      5  C   UNL     1       2.815   8.365  17.888  0.00  0.00    +0.000 C 
ATOM      6  C   UNL     1       2.400   7.099  18.564  0.00  0.00    +0.000 A 
ATOM      7  C   UNL     1       2.221   7.034  19.942  0.00  0.00    +0.000 A 
ATOM      8  N   UNL     1       1.827   5.907  20.580  0.00  0.00    +0.000 NA
ATOM      9  C   UNL     1       1.624   4.821  19.792  0.00  0.00    +0.000 A 
ATOM     10  C   UNL     1       1.819   4.887  18.419  0.00  0.00    +0.000 A 
ATOM     11  N   UNL     1       2.206   6.013  17.778  0.00  0.00    +0.000 NA
ENDBRANCH   4   9
ENDBRANCH   2   4
ENDBRANCH   1   2
BRANCH   1  12
ATOM     12  C   UNL     1       4.476   2.709  19.606  0.00  0.00    +0.000 C 
BRANCH  12  13
ATOM     13  O   UNL     1       5.194   3.942  19.563  0.00  0.00    +0.000 OA
BRANCH  13  14
ATOM     14  C   UNL     1       5.685   4.299  18.328  0.00  0.00    +0.000 A 
ATOM     15  C   UNL     1       4.981   3.729  17.256  0.00  0.00    +0.000 A 
ATOM     16  C   UNL     1       5.382   3.934  15.932  0.00  0.00    +0.000 A 
ATOM     17  C   UNL     1       6.502   4.709  15.670  0.00  0.00    +0.000 A 
ATOM     18 CL   UNL     1       7.036   4.944  14.052  0.00  0.00    +0.000 Cl
ATOM     19  C   UNL     1       7.215   5.280  16.721  0.00  0.00    +0.000 A 
ATOM     20  C   UNL     1       6.828   5.075  18.062  0.00  0.00    +0.000 A 
ATOM     21  C   UNL     1       7.704   5.704  19.109  0.00  0.00    +0.000 C 
ENDBRANCH  13  14
ENDBRANCH  12  13
ENDBRANCH   1  12
TORSDOF 6
ENDMDL
MODEL 5
REMARK VINA RESULT:      -6.4      3.247      5.074
REMARK  Name = 
REMARK  9 active torsions:
REMARK  status: ('A' for Active; 'I' for Inactive)
REMARK    1  A    between atoms: C_1  and  C_2
REMARK    2  A    between atoms: C_5  and  C_6
REMARK    3  A    between atoms: C_6  and  N_7
REMARK    4  A    between atoms: N_7  and  C_8
REMARK    5  A    between atoms: N_7  and  C_9
REMARK    6  A    between atoms: C_9  and  C_10
REMARK    7  A    between atoms: C_10  and  O_11
REMARK    8  A    between atoms: O_11  and  C_12
REMARK    9  A    between atoms: C_18  and  C_19
REMARK                            x       y       z     vdW  Elec       q    Type
REMARK                         _______ _______ _______ _____ _____    ______ ____
ROOT
ATOM      1  C   UNL     1       4.755   6.947  17.201  0.00  0.00    +0.000 C 
ENDROOT
BRANCH   1   2
ATOM      2  N   UNL     1       5.610   5.781  17.521  0.00  0.00    +0.000 NA
ATOM      3  C   UNL     1       5.815   5.637  18.960  0.00  0.00    +0.000 C 
BRANCH   2   4
ATOM      4  C   UNL     1       6.879   5.748  16.763  0.00  0.00    +0.000 C 
BRANCH   4   9
ATOM      5  C   UNL     1       6.630   3.244  11.641  0.00  0.00    +0.000 C 
ATOM      6  C   UNL     1       6.710   3.896  12.983  0.00  0.00    +0.000 A 
ATOM      7  C   UNL     1       7.641   4.893  13.254  0.00  0.00    +0.000 A 
ATOM      8  N   UNL     1       7.724   5.515  14.454  0.00  0.00    +0.000 NA
ATOM      9  C   UNL     1       6.843   5.098  15.399  0.00  0.00    +0.000 A 
ATOM     10  C   UNL     1       5.925   4.092  15.127  0.00  0.00    +0.000 A 
ATOM     11  N   UNL     1       5.836   3.474  13.928  0.00  0.00    +0.000 NA
ENDBRANCH   4   9
ENDBRANCH   2   4
ENDBRANCH   1   2
BRANCH   1  12
ATOM     12  C   UNL     1       3.584   7.078  18.191  0.00  0.00    +0.000 C 
BRANCH  12  13
ATOM     13  O   UNL     1       2.489   6.236  17.827  0.00  0.00    +0.000 OA
BRANCH  13  14
ATOM     14  C   UNL     1       2.204   5.220  18.710  0.00  0.00    +0.000 A 
ATOM     15  C   UNL     1       1.933   5.666  20.014  0.00  0.00    +0.000 A 
ATOM     16  C   UNL     1       1.686   4.764  21.054  0.00  0.00    +0.000 A 
ATOM     17  C   UNL     1       1.716   3.402  20.798  0.00  0.00    +0.000 A 
ATOM     18 CL   UNL     1       1.453   2.273  22.068  0.00  0.00    +0.000 Cl
ATOM     19  C   UNL     1       1.987   2.940  19.512  0.00  0.00    +0.000 A 
ATOM     20  C   UNL     1       2.246   3.838  18.454  0.00  0.00    +0.000 A 
ATOM     21  C   UNL     1       2.571   3.219  17.123  0.00  0.00    +0.000 C 
ENDBRANCH  13  14
ENDBRANCH  12  13
ENDBRANCH   1  12
TORSDOF 6
ENDMDL
MODEL 6
REMARK VINA RESULT:      -6.4      3.218      6.166
REMARK  Name = 
REMARK  9 active torsions:
REMARK  status: ('A' for Active; 'I' for Inactive)
REMARK    1  A    between atoms: C_1  and  C_2
REMARK    2  A    between atoms: C_5  and  C_6
REMARK    3  A    between atoms: C_6  and  N_7
REMARK    4  A    between atoms: N_7  and  C_8
REMARK    5  A    between atoms: N_7  and  C_9
REMARK    6  A    between atoms: C_9  and  C_10
REMARK    7  A    between atoms: C_10  and  O_11
REMARK    8  A    between atoms: O_11  and  C_12
REMARK    9  A    between atoms: C_18  and  C_19
REMARK                            x       y       z     vdW  Elec       q    Type
REMARK                         _______ _______ _______ _____ _____    ______ ____
ROOT
ATOM      1  C   UNL     1       2.989   3.790  19.994  0.00  0.00    +0.000 C 
ENDROOT
BRANCH   1   2
ATOM      2  N   UNL     1       2.330   4.903  19.272  0.00  0.00    +0.000 NA
ATOM      3  C   UNL     1       1.877   4.494  17.945  0.00  0.00    +0.000 C 
BRANCH   2   4
ATOM      4  C   UNL     1       3.128   6.146  19.239  0.00  0.00    +0.000 C 
BRANCH   4   9
ATOM      5  C   UNL     1       0.236  11.059  18.992  0.00  0.00    +0.000 C 
ATOM      6  C   UNL     1       0.985   9.767  19.045  0.00  0.00    +0.000 A 
ATOM      7  C   UNL     1       1.632   9.255  17.926  0.00  0.00    +0.000 A 
ATOM      8  N   UNL     1       2.334   8.097  17.948  0.00  0.00    +0.000 NA
ATOM      9  C   UNL     1       2.364   7.446  19.139  0.00  0.00    +0.000 A 
ATOM     10  C   UNL     1       1.704   7.956  20.250  0.00  0.00    +0.000 A 
ATOM     11  N   UNL     1       1.007   9.114  20.231  0.00  0.00    +0.000 NA
ENDBRANCH   4   9
ENDBRANCH   2   4
ENDBRANCH   1   2
BRANCH   1  12
ATOM     12  C   UNL     1       4.073   3.119  19.132  0.00  0.00    +0.000 C 
BRANCH  12  13
ATOM     13  O   UNL     1       5.313   3.824  19.199  0.00  0.00    +0.000 OA
BRANCH  13  14
ATOM     14  C   UNL     1       5.826   4.237  17.992  0.00  0.00    +0.000 A 
ATOM     15  C   UNL     1       5.152   3.704  16.881  0.00  0.00    +0.000 A 
ATOM     16  C   UNL     1       5.580   3.968  15.576  0.00  0.00    +0.000 A 
ATOM     17  C   UNL     1       6.697   4.765  15.371  0.00  0.00    +0.000 A 
ATOM     18 CL   UNL     1       7.263   5.072  13.777  0.00  0.00    +0.000 Cl
ATOM     19  C   UNL     1       7.380   5.299  16.460  0.00  0.00    +0.000 A 
ATOM     20  C   UNL     1       6.966   5.035  17.783  0.00  0.00    +0.000 A 
ATOM     21  C   UNL     1       7.811   5.629  18.875  0.00  0.00    +0.000 C 
ENDBRANCH  13  14
ENDBRANCH  12  13
ENDBRANCH   1  12
TORSDOF 6
ENDMDL
MODEL 7
REMARK VINA RESULT:      -6.3      1.726      3.714
REMARK  Name = 
REMARK  9 active torsions:
REMARK  status: ('A' for Active; 'I' for Inactive)
REMARK    1  A    between atoms: C_1  and  C_2
REMARK    2  A    between atoms: C_5  and  C_6
REMARK    3  A    between atoms: C_6  and  N_7
REMARK    4  A    between atoms: N_7  and  C_8
REMARK    5  A    between atoms: N_7  and  C_9
REMARK    6  A    between atoms: C_9  and  C_10
REMARK    7  A    between atoms: C_10  and  O_11
REMARK    8  A    between atoms: O_11  and  C_12
REMARK    9  A    between atoms: C_18  and  C_19
REMARK                            x       y       z     vdW  Elec       q    Type
REMARK                         _______ _______ _______ _____ _____    ______ ____
ROOT
ATOM      1  C   UNL     1       4.975   6.150  16.435  0.00  0.00    +0.000 C 
ENDROOT
BRANCH   1   2
ATOM      2  N   UNL     1       5.521   4.803  16.720  0.00  0.00    +0.000 NA
ATOM      3  C   UNL     1       6.726   4.531  15.940  0.00  0.00    +0.000 C 
BRANCH   2   4
ATOM      4  C   UNL     1       4.521   3.721  16.611  0.00  0.00    +0.000 C 
BRANCH   4   9
ATOM      5  C   UNL     1       1.330   2.795  21.250  0.00  0.00    +0.000 C 
ATOM      6  C   UNL     1       2.158   3.026  20.028  0.00  0.00    +0.000 A 
ATOM      7  C   UNL     1       1.575   3.301  18.796  0.00  0.00    +0.000 A 
ATOM      8  N   UNL     1       2.300   3.533  17.676  0.00  0.00    +0.000 NA
ATOM      9  C   UNL     1       3.648   3.472  17.820  0.00  0.00    +0.000 A 
ATOM     10  C   UNL     1       4.224   3.183  19.050  0.00  0.00    +0.000 A 
ATOM     11  N   UNL     1       3.503   2.957  20.171  0.00  0.00    +0.000 NA
ENDBRANCH   4   9
ENDBRANCH   2   4
ENDBRANCH   1   2
BRANCH   1  12
ATOM     12  C   UNL     1       4.388   6.802  17.700  0.00  0.00    +0.000 C 
BRANCH  12  13
ATOM     13  O   UNL     1       3.005   7.116  17.537  0.00  0.00    +0.000 OA
BRANCH  13  14
ATOM     14  C   UNL     1       2.384   7.651  18.643  0.00  0.00    +0.000 A 
ATOM     15  C   UNL     1       2.287   6.757  19.722  0.00  0.00    +0.000 A 
ATOM     16  C   UNL     1       1.629   7.113  20.903  0.00  0.00    +0.000 A 
ATOM     17  C   UNL     1       1.052   8.370  21.012  0.00  0.00    +0.000 A 
ATOM     18 CL   UNL     1       0.206   8.816  22.441  0.00  0.00    +0.000 Cl
ATOM     19  C   UNL     1       1.135   9.268  19.951  0.00  0.00    +0.000 A 
ATOM     20  C   UNL     1       1.788   8.921  18.749  0.00  0.00    +0.000 A 
ATOM     21  C   UNL     1       1.770   9.957  17.661  0.00  0.00    +0.000 C 
ENDBRANCH  13  14
ENDBRANCH  12  13
ENDBRANCH   1  12
TORSDOF 6
ENDMDL
MODEL 8
REMARK VINA RESULT:      -6.3      3.411      5.255
REMARK  Name = 
REMARK  9 active torsions:
REMARK  status: ('A' for Active; 'I' for Inactive)
REMARK    1  A    between atoms: C_1  and  C_2
REMARK    2  A    between atoms: C_5  and  C_6
REMARK    3  A    between atoms: C_6  and  N_7
REMARK    4  A    between atoms: N_7  and  C_8
REMARK    5  A    between atoms: N_7  and  C_9
REMARK    6  A    between atoms: C_9  and  C_10
REMARK    7  A    between atoms: C_10  and  O_11
REMARK    8  A    between atoms: O_11  and  C_12
REMARK    9  A    between atoms: C_18  and  C_19
REMARK                            x       y       z     vdW  Elec       q    Type
REMARK                         _______ _______ _______ _____ _____    ______ ____
ROOT
ATOM      1  C   UNL     1       5.664   5.568  19.032  0.00  0.00    +0.000 C 
ENDROOT
BRANCH   1   2
ATOM      2  N   UNL     1       6.822   6.048  18.245  0.00  0.00    +0.000 NA
ATOM      3  C   UNL     1       6.457   7.157  17.367  0.00  0.00    +0.000 C 
BRANCH   2   4
ATOM      4  C   UNL     1       7.542   4.974  17.530  0.00  0.00    +0.000 C 
BRANCH   4   9
ATOM      5  C   UNL     1       5.552   3.590  12.364  0.00  0.00    +0.000 C 
ATOM      6  C   UNL     1       6.087   3.948  13.712  0.00  0.00    +0.000 A 
ATOM      7  C   UNL     1       7.178   4.797  13.861  0.00  0.00    +0.000 A 
ATOM      8  N   UNL     1       7.673   5.154  15.070  0.00  0.00    +0.000 NA
ATOM      9  C   UNL     1       7.043   4.620  16.147  0.00  0.00    +0.000 A 
ATOM     10  C   UNL     1       5.964   3.761  15.993  0.00  0.00    +0.000 A 
ATOM     11  N   UNL     1       5.464   3.408  14.787  0.00  0.00    +0.000 NA
ENDBRANCH   4   9
ENDBRANCH   2   4
ENDBRANCH   1   2
BRANCH   1  12
ATOM     12  C   UNL     1       4.340   6.154  18.509  0.00  0.00    +0.000 C 
BRANCH  12  13
ATOM     13  O   UNL     1       3.488   5.139  17.977  0.00  0.00    +0.000 OA
BRANCH  13  14
ATOM     14  C   UNL     1       2.838   4.362  18.908  0.00  0.00    +0.000 A 
ATOM     15  C   UNL     1       2.537   5.044  20.099  0.00  0.00    +0.000 A 
ATOM     16  C   UNL     1       1.934   4.390  21.178  0.00  0.00    +0.000 A 
ATOM     17  C   UNL     1       1.635   3.040  21.078  0.00  0.00    +0.000 A 
ATOM     18 CL   UNL     1       0.928   2.206  22.405  0.00  0.00    +0.000 Cl
ATOM     19  C   UNL     1       1.929   2.346  19.907  0.00  0.00    +0.000 A 
ATOM     20  C   UNL     1       2.545   2.990  18.812  0.00  0.00    +0.000 A 
ATOM     21  C   UNL     1       2.855   2.125  17.623  0.00  0.00    +0.000 C 
ENDBRANCH  13  14
ENDBRANCH  12  13
ENDBRANCH   1  12
TORSDOF 6
ENDMDL
MODEL 9
REMARK VINA RESULT:      -6.2      3.155      5.202
REMARK  Name = 
REMARK  9 active torsions:
REMARK  status: ('A' for Active; 'I' for Inactive)
REMARK    1  A    between atoms: C_1  and  C_2
REMARK    2  A    between atoms: C_5  and  C_6
REMARK    3  A    between atoms: C_6  and  N_7
REMARK    4  A    between atoms: N_7  and  C_8
REMARK    5  A    between atoms: N_7  and  C_9
REMARK    6  A    between atoms: C_9  and  C_10
REMARK    7  A    between atoms: C_10  and  O_11
REMARK    8  A    between atoms: O_11  and  C_12
REMARK    9  A    between atoms: C_18  and  C_19
REMARK                            x       y       z     vdW  Elec       q    Type
REMARK                         _______ _______ _______ _____ _____    ______ ____
ROOT
ATOM      1  C   UNL     1       5.358   7.040  16.631  0.00  0.00    +0.000 C 
ENDROOT
BRANCH   1   2
ATOM      2  N   UNL     1       6.544   6.768  17.475  0.00  0.00    +0.000 NA
ATOM      3  C   UNL     1       7.443   7.917  17.534  0.00  0.00    +0.000 C 
BRANCH   2   4
ATOM      4  C   UNL     1       7.248   5.516  17.127  0.00  0.00    +0.000 C 
BRANCH   4   9
ATOM      5  C   UNL     1       6.057   3.242  12.030  0.00  0.00    +0.000 C 
ATOM      6  C   UNL     1       6.383   3.834  13.363  0.00  0.00    +0.000 A 
ATOM      7  C   UNL     1       7.360   4.813  13.504  0.00  0.00    +0.000 A 
ATOM      8  N   UNL     1       7.664   5.381  14.695  0.00  0.00    +0.000 NA
ATOM      9  C   UNL     1       6.961   4.928  15.764  0.00  0.00    +0.000 A 
ATOM     10  C   UNL     1       5.997   3.939  15.619  0.00  0.00    +0.000 A 
ATOM     11  N   UNL     1       5.687   3.375  14.430  0.00  0.00    +0.000 NA
ENDBRANCH   4   9
ENDBRANCH   2   4
ENDBRANCH   1   2
BRANCH   1  12
ATOM     12  C   UNL     1       4.047   6.801  17.401  0.00  0.00    +0.000 C 
BRANCH  12  13
ATOM     13  O   UNL     1       4.259   6.792  18.813  0.00  0.00    +0.000 OA
BRANCH  13  14
ATOM     14  C   UNL     1       3.487   5.901  19.523  0.00  0.00    +0.000 A 
ATOM     15  C   UNL     1       3.929   4.572  19.426  0.00  0.00    +0.000 A 
ATOM     16  C   UNL     1       3.226   3.527  20.033  0.00  0.00    +0.000 A 
ATOM     17  C   UNL     1       2.064   3.804  20.738  0.00  0.00    +0.000 A 
ATOM     18 CL   UNL     1       1.162   2.530  21.460  0.00  0.00    +0.000 Cl
ATOM     19  C   UNL     1       1.608   5.115  20.841  0.00  0.00    +0.000 A 
ATOM     20  C   UNL     1       2.302   6.180  20.228  0.00  0.00    +0.000 A 
ATOM     21  C   UNL     1       1.687   7.544  20.371  0.00  0.00    +0.000 C 
ENDBRANCH  13  14
ENDBRANCH  12  13
ENDBRANCH   1  12
TORSDOF 6
ENDMDL
