MODEL 1
REMARK VINA RESULT:      -8.4      0.000      0.000
REMARK  Name = 
REMARK  7 active torsions:
REMARK  status: ('A' for Active; 'I' for Inactive)
REMARK    1  A    between atoms: C_1  and  C_2
REMARK    2  A    between atoms: C_2  and  C_3
REMARK    3  A    between atoms: C_2  and  N_18
REMARK    4  A    between atoms: C_4  and  C_5
REMARK    5  A    between atoms: C_8  and  O_9
REMARK    6  A    between atoms: O_9  and  C_10
REMARK    7  A    between atoms: N_18  and  O_19
REMARK                            x       y       z     vdW  Elec       q    Type
REMARK                         _______ _______ _______ _____ _____    ______ ____
ROOT
ATOM      1  C   UNL     1       8.045   8.046  18.126  0.00  0.00    +0.000 A 
ATOM      2  C   UNL     1       8.306   6.857  18.764  0.00  0.00    +0.000 A 
ATOM      3  C   UNL     1       7.391   5.921  18.226  0.00  0.00    +0.000 A 
ATOM      4  C   UNL     1       6.654   6.595  17.275  0.00  0.00    +0.000 A 
ATOM      5  O   UNL     1       7.043   7.906  17.216  0.00  0.00    +0.000 OA
ENDROOT
BRANCH   1   7
ATOM      6  C   UNL     1       9.250  10.458  18.470  0.00  0.00    +0.000 C 
ATOM      7  C   UNL     1       8.633   9.325  18.289  0.00  0.00    +0.000 C 
BRANCH   6   9
ATOM      8  C   UNL     1      10.628  11.794  20.059  0.00  0.00    +0.000 C 
ATOM      9  C   UNL     1       9.969  11.781  18.681  0.00  0.00    +0.000 C 
BRANCH   9  10
ATOM     10  N   UNL     1      10.922  11.996  17.592  0.00  0.00    +0.000 N 
ATOM     11  C   UNL     1      11.101  13.235  17.026  0.00  0.00    +0.000 C 
ATOM     12  N   UNL     1      12.164  13.318  16.180  0.00  0.00    +0.000 N 
ATOM     13  O   UNL     1      10.364  14.199  17.199  0.00  0.00    +0.000 OA
ATOM     14  H   UNL     1      12.616  12.465  15.892  0.00  0.00    +0.000 HD
ATOM     15  H   UNL     1      12.259  14.154  15.624  0.00  0.00    +0.000 HD
BRANCH  10  16
ATOM     16  O   UNL     1      12.054  11.142  17.628  0.00  0.00    +0.000 OA
ATOM     17  H   UNL     1      12.721  11.697  17.180  0.00  0.00    +0.000 HD
ENDBRANCH  10  16
ENDBRANCH   9  10
ENDBRANCH   6   9
ENDBRANCH   1   7
BRANCH   4  18
ATOM     18  O   UNL     1       5.620   6.211  16.533  0.00  0.00    +0.000 OA
BRANCH  18  19
ATOM     19  C   UNL     1       4.482   5.637  17.040  0.00  0.00    +0.000 A 
ATOM     20  C   UNL     1       3.474   6.339  17.707  0.00  0.00    +0.000 A 
ATOM     21  C   UNL     1       2.314   5.672  18.116  0.00  0.00    +0.000 A 
ATOM     22  C   UNL     1       2.166   4.314  17.843  0.00  0.00    +0.000 A 
ATOM     23  F   UNL     1       1.050   3.684  18.227  0.00  0.00    +0.000 F 
ATOM     24  C   UNL     1       3.156   3.611  17.164  0.00  0.00    +0.000 A 
ATOM     25  C   UNL     1       4.312   4.275  16.759  0.00  0.00    +0.000 A 
ENDBRANCH  18  19
ENDBRANCH   4  18
TORSDOF 6
ENDMDL
MODEL 2
REMARK VINA RESULT:      -8.3      0.439      1.119
REMARK  Name = 
REMARK  7 active torsions:
REMARK  status: ('A' for Active; 'I' for Inactive)
REMARK    1  A    between atoms: C_1  and  C_2
REMARK    2  A    between atoms: C_2  and  C_3
REMARK    3  A    between atoms: C_2  and  N_18
REMARK    4  A    between atoms: C_4  and  C_5
REMARK    5  A    between atoms: C_8  and  O_9
REMARK    6  A    between atoms: O_9  and  C_10
REMARK    7  A    between atoms: N_18  and  O_19
REMARK                            x       y       z     vdW  Elec       q    Type
REMARK                         _______ _______ _______ _____ _____    ______ ____
ROOT
ATOM      1  C   UNL     1       8.037   7.919  18.160  0.00  0.00    +0.000 A 
ATOM      2  C   UNL     1       8.249   6.711  18.781  0.00  0.00    +0.000 A 
ATOM      3  C   UNL     1       7.346   5.803  18.179  0.00  0.00    +0.000 A 
ATOM      4  C   UNL     1       6.665   6.512  17.212  0.00  0.00    +0.000 A 
ATOM      5  O   UNL     1       7.076   7.817  17.202  0.00  0.00    +0.000 OA
ENDROOT
BRANCH   1   7
ATOM      6  C   UNL     1       9.104  10.384  18.579  0.00  0.00    +0.000 C 
ATOM      7  C   UNL     1       8.637   9.183  18.380  0.00  0.00    +0.000 C 
BRANCH   6   9
ATOM      8  C   UNL     1      10.544  11.790  20.048  0.00  0.00    +0.000 C 
ATOM      9  C   UNL     1       9.648  11.784  18.810  0.00  0.00    +0.000 C 
BRANCH   9  10
ATOM     10  N   UNL     1      10.340  12.243  17.605  0.00  0.00    +0.000 N 
ATOM     11  C   UNL     1      10.404  13.574  17.274  0.00  0.00    +0.000 C 
ATOM     12  N   UNL     1      11.254  13.859  16.251  0.00  0.00    +0.000 N 
ATOM     13  O   UNL     1       9.733  14.460  17.794  0.00  0.00    +0.000 OA
ATOM     14  H   UNL     1      11.622  13.096  15.706  0.00  0.00    +0.000 HD
ATOM     15  H   UNL     1      11.233  14.792  15.866  0.00  0.00    +0.000 HD
BRANCH  10  16
ATOM     16  O   UNL     1      11.443  11.437  17.221  0.00  0.00    +0.000 OA
ATOM     17  H   UNL     1      11.998  12.090  16.756  0.00  0.00    +0.000 HD
ENDBRANCH  10  16
ENDBRANCH   9  10
ENDBRANCH   6   9
ENDBRANCH   1   7
BRANCH   4  18
ATOM     18  O   UNL     1       5.660   6.162  16.413  0.00  0.00    +0.000 OA
BRANCH  18  19
ATOM     19  C   UNL     1       4.515   5.543  16.846  0.00  0.00    +0.000 A 
ATOM     20  C   UNL     1       4.242   4.182  16.682  0.00  0.00    +0.000 A 
ATOM     21  C   UNL     1       3.079   3.634  17.232  0.00  0.00    +0.000 A 
ATOM     22  C   UNL     1       2.205   4.446  17.950  0.00  0.00    +0.000 A 
ATOM     23  F   UNL     1       1.099   3.914  18.482  0.00  0.00    +0.000 F 
ATOM     24  C   UNL     1       2.476   5.798  18.134  0.00  0.00    +0.000 A 
ATOM     25  C   UNL     1       3.634   6.345  17.584  0.00  0.00    +0.000 A 
ENDBRANCH  18  19
ENDBRANCH   4  18
TORSDOF 6
ENDMDL
MODEL 3
REMARK VINA RESULT:      -8.1      1.627      2.107
REMARK  Name = 
REMARK  7 active torsions:
REMARK  status: ('A' for Active; 'I' for Inactive)
REMARK    1  A    between atoms: C_1  and  C_2
REMARK    2  A    between atoms: C_2  and  C_3
REMARK    3  A    between atoms: C_2  and  N_18
REMARK    4  A    between atoms: C_4  and  C_5
REMARK    5  A    between atoms: C_8  and  O_9
REMARK    6  A    between atoms: O_9  and  C_10
REMARK    7  A    between atoms: N_18  and  O_19
REMARK                            x       y       z     vdW  Elec       q    Type
REMARK                         _______ _______ _______ _____ _____    ______ ____
ROOT
ATOM      1  C   UNL     1       7.886   7.967  17.918  0.00  0.00    +0.000 A 
ATOM      2  C   UNL     1       8.141   6.856  18.687  0.00  0.00    +0.000 A 
ATOM      3  C   UNL     1       7.306   5.834  18.178  0.00  0.00    +0.000 A 
ATOM      4  C   UNL     1       6.620   6.381  17.114  0.00  0.00    +0.000 A 
ATOM      5  O   UNL     1       6.963   7.697  16.955  0.00  0.00    +0.000 OA
ENDROOT
BRANCH   1   7
ATOM      6  C   UNL     1       8.877  10.486  18.160  0.00  0.00    +0.000 C 
ATOM      7  C   UNL     1       8.411   9.280  17.997  0.00  0.00    +0.000 C 
BRANCH   6   9
ATOM      8  C   UNL     1      10.748  12.037  17.611  0.00  0.00    +0.000 C 
ATOM      9  C   UNL     1       9.420  11.893  18.351  0.00  0.00    +0.000 C 
BRANCH   9  10
ATOM     10  N   UNL     1       8.417  12.866  17.915  0.00  0.00    +0.000 N 
ATOM     11  C   UNL     1       8.549  14.206  18.183  0.00  0.00    +0.000 C 
ATOM     12  N   UNL     1       7.654  15.000  17.534  0.00  0.00    +0.000 N 
ATOM     13  O   UNL     1       9.356  14.689  18.970  0.00  0.00    +0.000 OA
ATOM     14  H   UNL     1       6.874  14.564  17.069  0.00  0.00    +0.000 HD
ATOM     15  H   UNL     1       7.604  15.971  17.803  0.00  0.00    +0.000 HD
BRANCH  10  16
ATOM     16  O   UNL     1       7.752  12.519  16.711  0.00  0.00    +0.000 OA
ATOM     17  H   UNL     1       7.632  13.398  16.304  0.00  0.00    +0.000 HD
ENDBRANCH  10  16
ENDBRANCH   9  10
ENDBRANCH   6   9
ENDBRANCH   1   7
BRANCH   4  18
ATOM     18  O   UNL     1       5.661   5.882  16.339  0.00  0.00    +0.000 OA
BRANCH  18  19
ATOM     19  C   UNL     1       4.496   5.336  16.815  0.00  0.00    +0.000 A 
ATOM     20  C   UNL     1       4.154   3.985  16.704  0.00  0.00    +0.000 A 
ATOM     21  C   UNL     1       2.976   3.514  17.294  0.00  0.00    +0.000 A 
ATOM     22  C   UNL     1       2.158   4.393  17.999  0.00  0.00    +0.000 A 
ATOM     23  F   UNL     1       1.038   3.935  18.570  0.00  0.00    +0.000 F 
ATOM     24  C   UNL     1       2.499   5.735  18.130  0.00  0.00    +0.000 A 
ATOM     25  C   UNL     1       3.671   6.205  17.540  0.00  0.00    +0.000 A 
ENDBRANCH  18  19
ENDBRANCH   4  18
TORSDOF 6
ENDMDL
MODEL 4
REMARK VINA RESULT:      -8.1      1.613      1.825
REMARK  Name = 
REMARK  7 active torsions:
REMARK  status: ('A' for Active; 'I' for Inactive)
REMARK    1  A    between atoms: C_1  and  C_2
REMARK    2  A    between atoms: C_2  and  C_3
REMARK    3  A    between atoms: C_2  and  N_18
REMARK    4  A    between atoms: C_4  and  C_5
REMARK    5  A    between atoms: C_8  and  O_9
REMARK    6  A    between atoms: O_9  and  C_10
REMARK    7  A    between atoms: N_18  and  O_19
REMARK                            x       y       z     vdW  Elec       q    Type
REMARK                         _______ _______ _______ _____ _____    ______ ____
ROOT
ATOM      1  C   UNL     1       7.866   7.991  17.951  0.00  0.00    +0.000 A 
ATOM      2  C   UNL     1       8.200   6.877  18.684  0.00  0.00    +0.000 A 
ATOM      3  C   UNL     1       7.364   5.839  18.212  0.00  0.00    +0.000 A 
ATOM      4  C   UNL     1       6.596   6.381  17.203  0.00  0.00    +0.000 A 
ATOM      5  O   UNL     1       6.892   7.708  17.044  0.00  0.00    +0.000 OA
ENDROOT
BRANCH   1   7
ATOM      6  C   UNL     1       8.847  10.517  18.163  0.00  0.00    +0.000 C 
ATOM      7  C   UNL     1       8.359   9.318  18.018  0.00  0.00    +0.000 C 
BRANCH   6   9
ATOM      8  C   UNL     1      10.740  12.028  17.579  0.00  0.00    +0.000 C 
ATOM      9  C   UNL     1       9.416  11.916  18.333  0.00  0.00    +0.000 C 
BRANCH   9  10
ATOM     10  N   UNL     1       8.427  12.901  17.895  0.00  0.00    +0.000 N 
ATOM     11  C   UNL     1       8.602  14.246  18.114  0.00  0.00    +0.000 C 
ATOM     12  N   UNL     1       7.710  15.042  17.466  0.00  0.00    +0.000 N 
ATOM     13  O   UNL     1       9.446  14.731  18.860  0.00  0.00    +0.000 OA
ATOM     14  H   UNL     1       6.904  14.612  17.039  0.00  0.00    +0.000 HD
ATOM     15  H   UNL     1       7.694  16.022  17.703  0.00  0.00    +0.000 HD
BRANCH  10  16
ATOM     16  O   UNL     1       7.716  12.534  16.723  0.00  0.00    +0.000 OA
ATOM     17  H   UNL     1       7.544  13.409  16.327  0.00  0.00    +0.000 HD
ENDBRANCH  10  16
ENDBRANCH   9  10
ENDBRANCH   6   9
ENDBRANCH   1   7
BRANCH   4  18
ATOM     18  O   UNL     1       5.604   5.866  16.482  0.00  0.00    +0.000 OA
BRANCH  18  19
ATOM     19  C   UNL     1       4.450   5.355  17.019  0.00  0.00    +0.000 A 
ATOM     20  C   UNL     1       3.484   6.116  17.684  0.00  0.00    +0.000 A 
ATOM     21  C   UNL     1       2.303   5.510  18.125  0.00  0.00    +0.000 A 
ATOM     22  C   UNL     1       2.092   4.154  17.887  0.00  0.00    +0.000 A 
ATOM     23  F   UNL     1       0.955   3.583  18.302  0.00  0.00    +0.000 F 
ATOM     24  C   UNL     1       3.039   3.393  17.211  0.00  0.00    +0.000 A 
ATOM     25  C   UNL     1       4.217   3.996  16.774  0.00  0.00    +0.000 A 
ENDBRANCH  18  19
ENDBRANCH   4  18
TORSDOF 6
ENDMDL
MODEL 5
REMARK VINA RESULT:      -7.5      1.145      1.592
REMARK  Name = 
REMARK  7 active torsions:
REMARK  status: ('A' for Active; 'I' for Inactive)
REMARK    1  A    between atoms: C_1  and  C_2
REMARK    2  A    between atoms: C_2  and  C_3
REMARK    3  A    between atoms: C_2  and  N_18
REMARK    4  A    between atoms: C_4  and  C_5
REMARK    5  A    between atoms: C_8  and  O_9
REMARK    6  A    between atoms: O_9  and  C_10
REMARK    7  A    between atoms: N_18  and  O_19
REMARK                            x       y       z     vdW  Elec       q    Type
REMARK                         _______ _______ _______ _____ _____    ______ ____
ROOT
ATOM      1  C   UNL     1       7.944   8.190  17.916  0.00  0.00    +0.000 A 
ATOM      2  C   UNL     1       8.272   7.133  18.732  0.00  0.00    +0.000 A 
ATOM      3  C   UNL     1       7.467   6.051  18.305  0.00  0.00    +0.000 A 
ATOM      4  C   UNL     1       6.723   6.512  17.239  0.00  0.00    +0.000 A 
ATOM      5  O   UNL     1       7.003   7.831  17.001  0.00  0.00    +0.000 OA
ENDROOT
BRANCH   1   7
ATOM      6  C   UNL     1       8.920  10.726  17.861  0.00  0.00    +0.000 C 
ATOM      7  C   UNL     1       8.413   9.527  17.911  0.00  0.00    +0.000 C 
BRANCH   6   9
ATOM      8  C   UNL     1       8.566  13.113  18.483  0.00  0.00    +0.000 C 
ATOM      9  C   UNL     1       9.512  12.125  17.803  0.00  0.00    +0.000 C 
BRANCH   9  10
ATOM     10  N   UNL     1      10.848  12.114  18.399  0.00  0.00    +0.000 N 
ATOM     11  C   UNL     1      11.036  11.902  19.743  0.00  0.00    +0.000 C 
ATOM     12  N   UNL     1      12.333  11.708  20.106  0.00  0.00    +0.000 N 
ATOM     13  O   UNL     1      10.148  11.926  20.588  0.00  0.00    +0.000 OA
ATOM     14  H   UNL     1      13.056  11.908  19.431  0.00  0.00    +0.000 HD
ATOM     15  H   UNL     1      12.550  11.696  21.091  0.00  0.00    +0.000 HD
BRANCH  10  16
ATOM     16  O   UNL     1      11.871  11.649  17.532  0.00  0.00    +0.000 OA
ATOM     17  H   UNL     1      11.498  10.795  17.244  0.00  0.00    +0.000 HD
ENDBRANCH  10  16
ENDBRANCH   9  10
ENDBRANCH   6   9
ENDBRANCH   1   7
BRANCH   4  18
ATOM     18  O   UNL     1       5.762   5.933  16.524  0.00  0.00    +0.000 OA
BRANCH  18  19
ATOM     19  C   UNL     1       4.585   5.469  17.053  0.00  0.00    +0.000 A 
ATOM     20  C   UNL     1       3.631   6.274  17.683  0.00  0.00    +0.000 A 
ATOM     21  C   UNL     1       2.426   5.714  18.118  0.00  0.00    +0.000 A 
ATOM     22  C   UNL     1       2.179   4.359  17.910  0.00  0.00    +0.000 A 
ATOM     23  F   UNL     1       1.019   3.831  18.318  0.00  0.00    +0.000 F 
ATOM     24  C   UNL     1       3.114   3.554  17.268  0.00  0.00    +0.000 A 
ATOM     25  C   UNL     1       4.316   4.112  16.837  0.00  0.00    +0.000 A 
ENDBRANCH  18  19
ENDBRANCH   4  18
TORSDOF 6
ENDMDL
MODEL 6
REMARK VINA RESULT:      -7.5      1.663      2.344
REMARK  Name = 
REMARK  7 active torsions:
REMARK  status: ('A' for Active; 'I' for Inactive)
REMARK    1  A    between atoms: C_1  and  C_2
REMARK    2  A    between atoms: C_2  and  C_3
REMARK    3  A    between atoms: C_2  and  N_18
REMARK    4  A    between atoms: C_4  and  C_5
REMARK    5  A    between atoms: C_8  and  O_9
REMARK    6  A    between atoms: O_9  and  C_10
REMARK    7  A    between atoms: N_18  and  O_19
REMARK                            x       y       z     vdW  Elec       q    Type
REMARK                         _______ _______ _______ _____ _____    ______ ____
ROOT
ATOM      1  C   UNL     1       7.270   7.201  17.793  0.00  0.00    +0.000 A 
ATOM      2  C   UNL     1       7.594   5.939  18.232  0.00  0.00    +0.000 A 
ATOM      3  C   UNL     1       6.461   5.135  17.970  0.00  0.00    +0.000 A 
ATOM      4  C   UNL     1       5.532   5.953  17.363  0.00  0.00    +0.000 A 
ATOM      5  O   UNL     1       6.018   7.229  17.260  0.00  0.00    +0.000 OA
ENDROOT
BRANCH   1   7
ATOM      6  C   UNL     1       8.614   9.562  17.864  0.00  0.00    +0.000 C 
ATOM      7  C   UNL     1       8.012   8.407  17.831  0.00  0.00    +0.000 C 
BRANCH   6   9
ATOM      8  C   UNL     1       8.283  12.032  17.823  0.00  0.00    +0.000 C 
ATOM      9  C   UNL     1       9.316  10.910  17.902  0.00  0.00    +0.000 C 
BRANCH   9  10
ATOM     10  N   UNL     1      10.153  10.989  19.100  0.00  0.00    +0.000 N 
ATOM     11  C   UNL     1      11.286  11.764  19.137  0.00  0.00    +0.000 C 
ATOM     12  N   UNL     1      11.833  11.902  20.375  0.00  0.00    +0.000 N 
ATOM     13  O   UNL     1      11.825  12.268  18.157  0.00  0.00    +0.000 OA
ATOM     14  H   UNL     1      11.499  11.306  21.117  0.00  0.00    +0.000 HD
ATOM     15  H   UNL     1      12.743  12.332  20.444  0.00  0.00    +0.000 HD
BRANCH  10  16
ATOM     16  O   UNL     1       9.443  10.840  20.319  0.00  0.00    +0.000 OA
ATOM     17  H   UNL     1      10.176  10.686  20.945  0.00  0.00    +0.000 HD
ENDBRANCH  10  16
ENDBRANCH   9  10
ENDBRANCH   6   9
ENDBRANCH   1   7
BRANCH   4  18
ATOM     18  O   UNL     1       4.278   5.725  16.982  0.00  0.00    +0.000 OA
BRANCH  18  19
ATOM     19  C   UNL     1       3.298   5.248  17.815  0.00  0.00    +0.000 A 
ATOM     20  C   UNL     1       2.530   4.107  17.560  0.00  0.00    +0.000 A 
ATOM     21  C   UNL     1       1.610   3.659  18.513  0.00  0.00    +0.000 A 
ATOM     22  C   UNL     1       1.473   4.346  19.717  0.00  0.00    +0.000 A 
ATOM     23  F   UNL     1       0.599   3.907  20.629  0.00  0.00    +0.000 F 
ATOM     24  C   UNL     1       2.245   5.471  19.988  0.00  0.00    +0.000 A 
ATOM     25  C   UNL     1       3.160   5.919  19.037  0.00  0.00    +0.000 A 
ENDBRANCH  18  19
ENDBRANCH   4  18
TORSDOF 6
ENDMDL
MODEL 7
REMARK VINA RESULT:      -7.5      1.462      1.759
REMARK  Name = 
REMARK  7 active torsions:
REMARK  status: ('A' for Active; 'I' for Inactive)
REMARK    1  A    between atoms: C_1  and  C_2
REMARK    2  A    between atoms: C_2  and  C_3
REMARK    3  A    between atoms: C_2  and  N_18
REMARK    4  A    between atoms: C_4  and  C_5
REMARK    5  A    between atoms: C_8  and  O_9
REMARK    6  A    between atoms: O_9  and  C_10
REMARK    7  A    between atoms: N_18  and  O_19
REMARK                            x       y       z     vdW  Elec       q    Type
REMARK                         _______ _______ _______ _____ _____    ______ ____
ROOT
ATOM      1  C   UNL     1       7.821   7.828  17.977  0.00  0.00    +0.000 A 
ATOM      2  C   UNL     1       8.139   6.723  18.731  0.00  0.00    +0.000 A 
ATOM      3  C   UNL     1       7.298   5.685  18.267  0.00  0.00    +0.000 A 
ATOM      4  C   UNL     1       6.544   6.218  17.243  0.00  0.00    +0.000 A 
ATOM      5  O   UNL     1       6.853   7.540  17.066  0.00  0.00    +0.000 OA
ENDROOT
BRANCH   1   7
ATOM      6  C   UNL     1       8.779  10.372  17.984  0.00  0.00    +0.000 C 
ATOM      7  C   UNL     1       8.325   9.152  18.028  0.00  0.00    +0.000 C 
BRANCH   6   9
ATOM      8  C   UNL     1       8.201  12.740  17.467  0.00  0.00    +0.000 C 
ATOM      9  C   UNL     1       9.308  11.796  17.931  0.00  0.00    +0.000 C 
BRANCH   9  10
ATOM     10  N   UNL     1       9.857  12.160  19.238  0.00  0.00    +0.000 N 
ATOM     11  C   UNL     1      10.666  13.257  19.400  0.00  0.00    +0.000 C 
ATOM     12  N   UNL     1      10.918  13.584  20.697  0.00  0.00    +0.000 N 
ATOM     13  O   UNL     1      11.181  13.891  18.485  0.00  0.00    +0.000 OA
ATOM     14  H   UNL     1      10.664  12.926  21.416  0.00  0.00    +0.000 HD
ATOM     15  H   UNL     1      11.621  14.284  20.878  0.00  0.00    +0.000 HD
BRANCH  10  16
ATOM     16  O   UNL     1       9.029  11.811  20.337  0.00  0.00    +0.000 OA
ATOM     17  H   UNL     1       9.307  10.889  20.495  0.00  0.00    +0.000 HD
ENDBRANCH  10  16
ENDBRANCH   9  10
ENDBRANCH   6   9
ENDBRANCH   1   7
BRANCH   4  18
ATOM     18  O   UNL     1       5.554   5.700  16.521  0.00  0.00    +0.000 OA
BRANCH  18  19
ATOM     19  C   UNL     1       4.394   5.200  17.055  0.00  0.00    +0.000 A 
ATOM     20  C   UNL     1       3.438   5.968  17.724  0.00  0.00    +0.000 A 
ATOM     21  C   UNL     1       2.250   5.374  18.163  0.00  0.00    +0.000 A 
ATOM     22  C   UNL     1       2.022   4.022  17.918  0.00  0.00    +0.000 A 
ATOM     23  F   UNL     1       0.879   3.462  18.330  0.00  0.00    +0.000 F 
ATOM     24  C   UNL     1       2.960   3.253  17.237  0.00  0.00    +0.000 A 
ATOM     25  C   UNL     1       4.145   3.844  16.802  0.00  0.00    +0.000 A 
ENDBRANCH  18  19
ENDBRANCH   4  18
TORSDOF 6
ENDMDL
MODEL 8
REMARK VINA RESULT:      -7.4      1.608      2.514
REMARK  Name = 
REMARK  7 active torsions:
REMARK  status: ('A' for Active; 'I' for Inactive)
REMARK    1  A    between atoms: C_1  and  C_2
REMARK    2  A    between atoms: C_2  and  C_3
REMARK    3  A    between atoms: C_2  and  N_18
REMARK    4  A    between atoms: C_4  and  C_5
REMARK    5  A    between atoms: C_8  and  O_9
REMARK    6  A    between atoms: O_9  and  C_10
REMARK    7  A    between atoms: N_18  and  O_19
REMARK                            x       y       z     vdW  Elec       q    Type
REMARK                         _______ _______ _______ _____ _____    ______ ____
ROOT
ATOM      1  C   UNL     1       7.900   8.025  17.980  0.00  0.00    +0.000 A 
ATOM      2  C   UNL     1       8.164   6.888  18.706  0.00  0.00    +0.000 A 
ATOM      3  C   UNL     1       7.319   5.886  18.176  0.00  0.00    +0.000 A 
ATOM      4  C   UNL     1       6.617   6.470  17.144  0.00  0.00    +0.000 A 
ATOM      5  O   UNL     1       6.960   7.790  17.024  0.00  0.00    +0.000 OA
ENDROOT
BRANCH   1   7
ATOM      6  C   UNL     1       8.988  10.501  18.248  0.00  0.00    +0.000 C 
ATOM      7  C   UNL     1       8.430   9.334  18.095  0.00  0.00    +0.000 C 
BRANCH   6   9
ATOM      8  C   UNL     1       9.198  12.797  17.301  0.00  0.00    +0.000 C 
ATOM      9  C   UNL     1       9.639  11.863  18.427  0.00  0.00    +0.000 C 
BRANCH   9  10
ATOM     10  N   UNL     1       9.321  12.384  19.757  0.00  0.00    +0.000 N 
ATOM     11  C   UNL     1      10.236  12.354  20.781  0.00  0.00    +0.000 C 
ATOM     12  N   UNL     1       9.870  13.063  21.883  0.00  0.00    +0.000 N 
ATOM     13  O   UNL     1      11.284  11.717  20.767  0.00  0.00    +0.000 OA
ATOM     14  H   UNL     1       8.920  13.393  21.948  0.00  0.00    +0.000 HD
ATOM     15  H   UNL     1      10.428  12.958  22.717  0.00  0.00    +0.000 HD
BRANCH  10  16
ATOM     16  O   UNL     1       8.401  13.465  19.756  0.00  0.00    +0.000 OA
ATOM     17  H   UNL     1       7.786  13.185  19.052  0.00  0.00    +0.000 HD
ENDBRANCH  10  16
ENDBRANCH   9  10
ENDBRANCH   6   9
ENDBRANCH   1   7
BRANCH   4  18
ATOM     18  O   UNL     1       5.644   6.000  16.368  0.00  0.00    +0.000 OA
BRANCH  18  19
ATOM     19  C   UNL     1       4.519   5.373  16.842  0.00  0.00    +0.000 A 
ATOM     20  C   UNL     1       4.264   4.005  16.713  0.00  0.00    +0.000 A 
ATOM     21  C   UNL     1       3.123   3.451  17.302  0.00  0.00    +0.000 A 
ATOM     22  C   UNL     1       2.254   4.265  18.024  0.00  0.00    +0.000 A 
ATOM     23  F   UNL     1       1.170   3.727  18.595  0.00  0.00    +0.000 F 
ATOM     24  C   UNL     1       2.509   5.624  18.174  0.00  0.00    +0.000 A 
ATOM     25  C   UNL     1       3.645   6.177  17.584  0.00  0.00    +0.000 A 
ENDBRANCH  18  19
ENDBRANCH   4  18
TORSDOF 6
ENDMDL
MODEL 9
REMARK VINA RESULT:      -7.4      0.644      1.108
REMARK  Name = 
REMARK  7 active torsions:
REMARK  status: ('A' for Active; 'I' for Inactive)
REMARK    1  A    between atoms: C_1  and  C_2
REMARK    2  A    between atoms: C_2  and  C_3
REMARK    3  A    between atoms: C_2  and  N_18
REMARK    4  A    between atoms: C_4  and  C_5
REMARK    5  A    between atoms: C_8  and  O_9
REMARK    6  A    between atoms: O_9  and  C_10
REMARK    7  A    between atoms: N_18  and  O_19
REMARK                            x       y       z     vdW  Elec       q    Type
REMARK                         _______ _______ _______ _____ _____    ______ ____
ROOT
ATOM      1  C   UNL     1       8.094   8.364  18.178  0.00  0.00    +0.000 A 
ATOM      2  C   UNL     1       8.442   7.137  18.694  0.00  0.00    +0.000 A 
ATOM      3  C   UNL     1       7.551   6.206  18.110  0.00  0.00    +0.000 A 
ATOM      4  C   UNL     1       6.739   6.922  17.257  0.00  0.00    +0.000 A 
ATOM      5  O   UNL     1       7.059   8.252  17.302  0.00  0.00    +0.000 OA
ENDROOT
BRANCH   1   7
ATOM      6  C   UNL     1       9.154  10.802  18.743  0.00  0.00    +0.000 C 
ATOM      7  C   UNL     1       8.625   9.652  18.433  0.00  0.00    +0.000 C 
BRANCH   6   9
ATOM      8  C   UNL     1      11.003  11.924  19.980  0.00  0.00    +0.000 C 
ATOM      9  C   UNL     1       9.771  12.143  19.104  0.00  0.00    +0.000 C 
BRANCH   9  10
ATOM     10  N   UNL     1      10.068  12.888  17.880  0.00  0.00    +0.000 N 
ATOM     11  C   UNL     1      11.262  12.738  17.217  0.00  0.00    +0.000 C 
ATOM     12  N   UNL     1      11.303  13.330  15.992  0.00  0.00    +0.000 N 
ATOM     13  O   UNL     1      12.250  12.172  17.670  0.00  0.00    +0.000 OA
ATOM     14  H   UNL     1      10.562  13.965  15.740  0.00  0.00    +0.000 HD
ATOM     15  H   UNL     1      12.195  13.382  15.524  0.00  0.00    +0.000 HD
BRANCH  10  16
ATOM     16  O   UNL     1       8.930  13.183  17.085  0.00  0.00    +0.000 OA
ATOM     17  H   UNL     1       8.428  12.350  17.161  0.00  0.00    +0.000 HD
ENDBRANCH  10  16
ENDBRANCH   9  10
ENDBRANCH   6   9
ENDBRANCH   1   7
BRANCH   4  18
ATOM     18  O   UNL     1       5.692   6.551  16.526  0.00  0.00    +0.000 OA
BRANCH  18  19
ATOM     19  C   UNL     1       4.567   5.958  17.041  0.00  0.00    +0.000 A 
ATOM     20  C   UNL     1       3.545   6.645  17.702  0.00  0.00    +0.000 A 
ATOM     21  C   UNL     1       2.400   5.958  18.120  0.00  0.00    +0.000 A 
ATOM     22  C   UNL     1       2.282   4.594  17.862  0.00  0.00    +0.000 A 
ATOM     23  F   UNL     1       1.180   3.944  18.255  0.00  0.00    +0.000 F 
ATOM     24  C   UNL     1       3.285   3.905  17.189  0.00  0.00    +0.000 A 
ATOM     25  C   UNL     1       4.427   4.590  16.775  0.00  0.00    +0.000 A 
ENDBRANCH  18  19
ENDBRANCH   4  18
TORSDOF 6
ENDMDL
