MODEL 1
REMARK VINA RESULT:      -7.7      0.000      0.000
REMARK  Name = 
REMARK  9 active torsions:
REMARK  status: ('A' for Active; 'I' for Inactive)
REMARK    1  A    between atoms: C_1  and  C_2
REMARK    2  A    between atoms: C_2  and  O_3
REMARK    3  A    between atoms: O_3  and  C_4
REMARK    4  A    between atoms: C_4  and  C_6
REMARK    5  A    between atoms: C_10  and  C_11
REMARK    6  A    between atoms: N_12  and  C_13
REMARK    7  A    between atoms: C_13  and  C_14
REMARK    8  A    between atoms: C_23  and  C_24
REMARK    9  A    between atoms: C_27  and  N_28
REMARK                            x       y       z     vdW  Elec       q    Type
REMARK                         _______ _______ _______ _____ _____    ______ ____
ROOT
ATOM      1  C   UNL     1       2.531   4.440  20.513  0.00  0.00    +0.000 C 
ATOM      2  O   UNL     1       1.749   5.224  21.449  0.00  0.00    +0.000 OA
ATOM      3  C   UNL     1       1.633   6.429  20.786  0.00  0.00    +0.000 A 
ATOM      4  C   UNL     1       1.235   7.604  21.479  0.00  0.00    +0.000 A 
ATOM      5  C   UNL     1       1.200   8.778  20.818  0.00  0.00    +0.000 A 
ATOM      6  C   UNL     1       0.824  10.027  21.565  0.00  0.00    +0.000 C 
ATOM      7  N   UNL     1       1.533   8.829  19.444  0.00  0.00    +0.000 N 
ATOM      8  C   UNL     1       1.916   7.675  18.730  0.00  0.00    +0.000 A 
ATOM      9  O   UNL     1       2.250   7.659  17.545  0.00  0.00    +0.000 OA
ATOM     10  C   UNL     1       1.955   6.429  19.503  0.00  0.00    +0.000 A 
ATOM     11  C   UNL     1       2.396   5.074  19.103  0.00  0.00    +0.000 C 
ENDROOT
BRANCH  11  12
ATOM     12  C   UNL     1       3.687   5.034  18.303  0.00  0.00    +0.000 A 
ATOM     13  C   UNL     1       3.729   4.524  16.995  0.00  0.00    +0.000 A 
ATOM     14  C   UNL     1       4.924   4.490  16.276  0.00  0.00    +0.000 A 
ATOM     15  C   UNL     1       6.100   4.958  16.875  0.00  0.00    +0.000 A 
ATOM     16  C   UNL     1       6.080   5.465  18.178  0.00  0.00    +0.000 A 
ATOM     17  C   UNL     1       4.876   5.504  18.887  0.00  0.00    +0.000 A 
BRANCH  15  18
ATOM     18  N   UNL     1       7.359   4.904  16.127  0.00  0.00    +0.000 N 
ATOM     19  O   UNL     1       8.270   4.194  16.578  0.00  0.00    +0.000 OA
ATOM     20  O   UNL     1       7.437   5.567  15.081  0.00  0.00    +0.000 OA
ENDBRANCH  15  18
ENDBRANCH  11  12
BRANCH   1  21
ATOM     21  C   UNL     1       2.181   2.958  20.525  0.00  0.00    +0.000 C 
ATOM     22  O   UNL     1       1.066   2.487  20.348  0.00  0.00    +0.000 OA
BRANCH  21  23
ATOM     23  O   UNL     1       3.272   2.246  20.937  0.00  0.00    +0.000 OA
BRANCH  23  25
ATOM     24  C   UNL     1       3.722   1.354  18.772  0.00  0.00    +0.000 C 
ATOM     25  C   UNL     1       4.316   2.077  19.969  0.00  0.00    +0.000 C 
ENDBRANCH  23  25
ENDBRANCH  21  23
ENDBRANCH   1  21
BRANCH   7  26
ATOM     26  C   UNL     1       1.688  10.108  18.736  0.00  0.00    +0.000 C 
BRANCH  26  27
ATOM     27  C   UNL     1       0.426  10.865  18.366  0.00  0.00    +0.000 A 
ATOM     28  C   UNL     1      -0.711  10.163  17.930  0.00  0.00    +0.000 A 
ATOM     29  C   UNL     1      -1.948  10.804  17.799  0.00  0.00    +0.000 A 
ATOM     30  C   UNL     1      -2.068  12.158  18.097  0.00  0.00    +0.000 A 
ATOM     31  C   UNL     1      -0.946  12.879  18.493  0.00  0.00    +0.000 A 
ATOM     32  C   UNL     1       0.292  12.240  18.621  0.00  0.00    +0.000 A 
ENDBRANCH  26  27
ENDBRANCH   7  26
TORSDOF 7
ENDMDL
MODEL 2
REMARK VINA RESULT:      -7.5      0.490      1.139
REMARK  Name = 
REMARK  9 active torsions:
REMARK  status: ('A' for Active; 'I' for Inactive)
REMARK    1  A    between atoms: C_1  and  C_2
REMARK    2  A    between atoms: C_2  and  O_3
REMARK    3  A    between atoms: O_3  and  C_4
REMARK    4  A    between atoms: C_4  and  C_6
REMARK    5  A    between atoms: C_10  and  C_11
REMARK    6  A    between atoms: N_12  and  C_13
REMARK    7  A    between atoms: C_13  and  C_14
REMARK    8  A    between atoms: C_23  and  C_24
REMARK    9  A    between atoms: C_27  and  N_28
REMARK                            x       y       z     vdW  Elec       q    Type
REMARK                         _______ _______ _______ _____ _____    ______ ____
ROOT
ATOM      1  C   UNL     1       2.125   4.362  20.193  0.00  0.00    +0.000 C 
ATOM      2  O   UNL     1       1.302   5.118  21.118  0.00  0.00    +0.000 OA
ATOM      3  C   UNL     1       1.382   6.394  20.595  0.00  0.00    +0.000 A 
ATOM      4  C   UNL     1       1.005   7.521  21.372  0.00  0.00    +0.000 A 
ATOM      5  C   UNL     1       1.162   8.757  20.858  0.00  0.00    +0.000 A 
ATOM      6  C   UNL     1       0.807   9.951  21.699  0.00  0.00    +0.000 C 
ATOM      7  N   UNL     1       1.674   8.921  19.549  0.00  0.00    +0.000 N 
ATOM      8  C   UNL     1       2.041   7.818  18.752  0.00  0.00    +0.000 A 
ATOM      9  O   UNL     1       2.522   7.894  17.621  0.00  0.00    +0.000 OA
ATOM     10  C   UNL     1       1.866   6.498  19.368  0.00  0.00    +0.000 A 
ATOM     11  C   UNL     1       2.231   5.155  18.864  0.00  0.00    +0.000 C 
ENDROOT
BRANCH  11  12
ATOM     12  C   UNL     1       3.606   5.068  18.223  0.00  0.00    +0.000 A 
ATOM     13  C   UNL     1       4.767   5.455  18.913  0.00  0.00    +0.000 A 
ATOM     14  C   UNL     1       6.021   5.374  18.308  0.00  0.00    +0.000 A 
ATOM     15  C   UNL     1       6.120   4.913  16.989  0.00  0.00    +0.000 A 
ATOM     16  C   UNL     1       4.975   4.527  16.284  0.00  0.00    +0.000 A 
ATOM     17  C   UNL     1       3.724   4.604  16.902  0.00  0.00    +0.000 A 
BRANCH  15  18
ATOM     18  N   UNL     1       7.435   4.846  16.346  0.00  0.00    +0.000 N 
ATOM     19  O   UNL     1       7.590   5.456  15.278  0.00  0.00    +0.000 OA
ATOM     20  O   UNL     1       8.321   4.188  16.914  0.00  0.00    +0.000 OA
ENDBRANCH  15  18
ENDBRANCH  11  12
BRANCH   1  21
ATOM     21  C   UNL     1       1.643   2.933  19.986  0.00  0.00    +0.000 C 
ATOM     22  O   UNL     1       0.556   2.605  19.534  0.00  0.00    +0.000 OA
BRANCH  21  23
ATOM     23  O   UNL     1       2.548   2.074  20.546  0.00  0.00    +0.000 OA
BRANCH  23  25
ATOM     24  C   UNL     1       3.689   1.401  18.563  0.00  0.00    +0.000 C 
ATOM     25  C   UNL     1       3.844   2.037  19.934  0.00  0.00    +0.000 C 
ENDBRANCH  23  25
ENDBRANCH  21  23
ENDBRANCH   1  21
BRANCH   7  26
ATOM     26  C   UNL     1       2.034  10.246  19.023  0.00  0.00    +0.000 C 
BRANCH  26  27
ATOM     27  C   UNL     1       0.903  11.171  18.611  0.00  0.00    +0.000 A 
ATOM     28  C   UNL     1      -0.358  10.639  18.292  0.00  0.00    +0.000 A 
ATOM     29  C   UNL     1      -1.471  11.471  18.131  0.00  0.00    +0.000 A 
ATOM     30  C   UNL     1      -1.342  12.849  18.280  0.00  0.00    +0.000 A 
ATOM     31  C   UNL     1      -0.093  13.397  18.557  0.00  0.00    +0.000 A 
ATOM     32  C   UNL     1       1.021  12.567  18.717  0.00  0.00    +0.000 A 
ENDBRANCH  26  27
ENDBRANCH   7  26
TORSDOF 7
ENDMDL
MODEL 3
REMARK VINA RESULT:      -7.3      0.587      1.107
REMARK  Name = 
REMARK  9 active torsions:
REMARK  status: ('A' for Active; 'I' for Inactive)
REMARK    1  A    between atoms: C_1  and  C_2
REMARK    2  A    between atoms: C_2  and  O_3
REMARK    3  A    between atoms: O_3  and  C_4
REMARK    4  A    between atoms: C_4  and  C_6
REMARK    5  A    between atoms: C_10  and  C_11
REMARK    6  A    between atoms: N_12  and  C_13
REMARK    7  A    between atoms: C_13  and  C_14
REMARK    8  A    between atoms: C_23  and  C_24
REMARK    9  A    between atoms: C_27  and  N_28
REMARK                            x       y       z     vdW  Elec       q    Type
REMARK                         _______ _______ _______ _____ _____    ______ ____
ROOT
ATOM      1  C   UNL     1       2.249   4.618  20.279  0.00  0.00    +0.000 C 
ATOM      2  O   UNL     1       1.457   5.433  21.179  0.00  0.00    +0.000 OA
ATOM      3  C   UNL     1       1.500   6.667  20.561  0.00  0.00    +0.000 A 
ATOM      4  C   UNL     1       1.143   7.846  21.267  0.00  0.00    +0.000 A 
ATOM      5  C   UNL     1       1.264   9.041  20.656  0.00  0.00    +0.000 A 
ATOM      6  C   UNL     1       0.929  10.291  21.420  0.00  0.00    +0.000 C 
ATOM      7  N   UNL     1       1.719   9.112  19.318  0.00  0.00    +0.000 N 
ATOM      8  C   UNL     1       2.065   7.955  18.590  0.00  0.00    +0.000 A 
ATOM      9  O   UNL     1       2.499   7.951  17.438  0.00  0.00    +0.000 OA
ATOM     10  C   UNL     1       1.932   6.683  19.310  0.00  0.00    +0.000 A 
ATOM     11  C   UNL     1       2.291   5.310  18.892  0.00  0.00    +0.000 C 
ENDROOT
BRANCH  11  12
ATOM     12  C   UNL     1       3.640   5.187  18.202  0.00  0.00    +0.000 A 
ATOM     13  C   UNL     1       3.762   4.642  16.913  0.00  0.00    +0.000 A 
ATOM     14  C   UNL     1       5.008   4.531  16.297  0.00  0.00    +0.000 A 
ATOM     15  C   UNL     1       6.154   4.955  16.980  0.00  0.00    +0.000 A 
ATOM     16  C   UNL     1       6.054   5.496  18.267  0.00  0.00    +0.000 A 
ATOM     17  C   UNL     1       4.800   5.611  18.872  0.00  0.00    +0.000 A 
BRANCH  15  18
ATOM     18  N   UNL     1       7.466   4.821  16.341  0.00  0.00    +0.000 N 
ATOM     19  O   UNL     1       8.344   4.190  16.947  0.00  0.00    +0.000 OA
ATOM     20  O   UNL     1       7.618   5.339  15.224  0.00  0.00    +0.000 OA
ENDBRANCH  15  18
ENDBRANCH  11  12
BRANCH   1  21
ATOM     21  C   UNL     1       1.777   3.172  20.200  0.00  0.00    +0.000 C 
ATOM     22  O   UNL     1       0.658   2.805  19.872  0.00  0.00    +0.000 OA
BRANCH  21  23
ATOM     23  O   UNL     1       2.745   2.359  20.719  0.00  0.00    +0.000 OA
BRANCH  23  25
ATOM     24  C   UNL     1       3.561   1.469  18.663  0.00  0.00    +0.000 C 
ATOM     25  C   UNL     1       3.935   2.214  19.932  0.00  0.00    +0.000 C 
ENDBRANCH  23  25
ENDBRANCH  21  23
ENDBRANCH   1  21
BRANCH   7  26
ATOM     26  C   UNL     1       2.041  10.396  18.680  0.00  0.00    +0.000 C 
BRANCH  26  27
ATOM     27  C   UNL     1       1.000  11.499  18.753  0.00  0.00    +0.000 A 
ATOM     28  C   UNL     1       1.400  12.827  18.979  0.00  0.00    +0.000 A 
ATOM     29  C   UNL     1       0.499  13.887  18.826  0.00  0.00    +0.000 A 
ATOM     30  C   UNL     1      -0.817  13.636  18.451  0.00  0.00    +0.000 A 
ATOM     31  C   UNL     1      -1.242  12.325  18.261  0.00  0.00    +0.000 A 
ATOM     32  C   UNL     1      -0.343  11.264  18.415  0.00  0.00    +0.000 A 
ENDBRANCH  26  27
ENDBRANCH   7  26
TORSDOF 7
ENDMDL
MODEL 4
REMARK VINA RESULT:      -7.3      3.205      8.400
REMARK  Name = 
REMARK  9 active torsions:
REMARK  status: ('A' for Active; 'I' for Inactive)
REMARK    1  A    between atoms: C_1  and  C_2
REMARK    2  A    between atoms: C_2  and  O_3
REMARK    3  A    between atoms: O_3  and  C_4
REMARK    4  A    between atoms: C_4  and  C_6
REMARK    5  A    between atoms: C_10  and  C_11
REMARK    6  A    between atoms: N_12  and  C_13
REMARK    7  A    between atoms: C_13  and  C_14
REMARK    8  A    between atoms: C_23  and  C_24
REMARK    9  A    between atoms: C_27  and  N_28
REMARK                            x       y       z     vdW  Elec       q    Type
REMARK                         _______ _______ _______ _____ _____    ______ ____
ROOT
ATOM      1  C   UNL     1      -0.168   9.816  21.453  0.00  0.00    +0.000 C 
ATOM      2  O   UNL     1       0.636   8.761  22.039  0.00  0.00    +0.000 OA
ATOM      3  C   UNL     1       1.288   8.250  20.934  0.00  0.00    +0.000 A 
ATOM      4  C   UNL     1       1.922   6.981  20.987  0.00  0.00    +0.000 A 
ATOM      5  C   UNL     1       2.488   6.480  19.871  0.00  0.00    +0.000 A 
ATOM      6  C   UNL     1       3.118   5.117  19.919  0.00  0.00    +0.000 C 
ATOM      7  N   UNL     1       2.469   7.227  18.670  0.00  0.00    +0.000 N 
ATOM      8  C   UNL     1       1.859   8.496  18.594  0.00  0.00    +0.000 A 
ATOM      9  O   UNL     1       1.778   9.179  17.573  0.00  0.00    +0.000 OA
ATOM     10  C   UNL     1       1.243   8.984  19.833  0.00  0.00    +0.000 A 
ATOM     11  C   UNL     1       0.450  10.207  20.085  0.00  0.00    +0.000 C 
ENDROOT
BRANCH  11  12
ATOM     12  C   UNL     1      -0.593  10.519  19.024  0.00  0.00    +0.000 A 
ATOM     13  C   UNL     1      -0.644  11.769  18.385  0.00  0.00    +0.000 A 
ATOM     14  C   UNL     1      -1.611  12.041  17.418  0.00  0.00    +0.000 A 
ATOM     15  C   UNL     1      -2.553  11.057  17.092  0.00  0.00    +0.000 A 
ATOM     16  C   UNL     1      -2.523   9.808  17.720  0.00  0.00    +0.000 A 
ATOM     17  C   UNL     1      -1.544   9.542  18.682  0.00  0.00    +0.000 A 
BRANCH  15  18
ATOM     18  N   UNL     1      -3.582  11.349  16.089  0.00  0.00    +0.000 N 
ATOM     19  O   UNL     1      -3.303  11.152  14.898  0.00  0.00    +0.000 OA
ATOM     20  O   UNL     1      -4.677  11.770  16.494  0.00  0.00    +0.000 OA
ENDBRANCH  15  18
ENDBRANCH  11  12
BRANCH   1  21
ATOM     21  C   UNL     1      -0.360  11.013  22.374  0.00  0.00    +0.000 C 
ATOM     22  O   UNL     1      -1.071  11.041  23.367  0.00  0.00    +0.000 OA
BRANCH  21  23
ATOM     23  O   UNL     1       0.251  12.103  21.820  0.00  0.00    +0.000 OA
BRANCH  23  25
ATOM     24  C   UNL     1      -1.437  13.684  21.243  0.00  0.00    +0.000 C 
ATOM     25  C   UNL     1      -0.287  13.380  22.186  0.00  0.00    +0.000 C 
ENDBRANCH  23  25
ENDBRANCH  21  23
ENDBRANCH   1  21
BRANCH   7  26
ATOM     26  C   UNL     1       2.905   6.643  17.393  0.00  0.00    +0.000 C 
BRANCH  26  27
ATOM     27  C   UNL     1       4.368   6.259  17.258  0.00  0.00    +0.000 A 
ATOM     28  C   UNL     1       4.721   5.057  16.622  0.00  0.00    +0.000 A 
ATOM     29  C   UNL     1       6.051   4.785  16.282  0.00  0.00    +0.000 A 
ATOM     30  C   UNL     1       7.051   5.707  16.579  0.00  0.00    +0.000 A 
ATOM     31  C   UNL     1       6.726   6.885  17.245  0.00  0.00    +0.000 A 
ATOM     32  C   UNL     1       5.396   7.157  17.586  0.00  0.00    +0.000 A 
ENDBRANCH  26  27
ENDBRANCH   7  26
TORSDOF 7
ENDMDL
MODEL 5
REMARK VINA RESULT:      -7.2      3.172      8.410
REMARK  Name = 
REMARK  9 active torsions:
REMARK  status: ('A' for Active; 'I' for Inactive)
REMARK    1  A    between atoms: C_1  and  C_2
REMARK    2  A    between atoms: C_2  and  O_3
REMARK    3  A    between atoms: O_3  and  C_4
REMARK    4  A    between atoms: C_4  and  C_6
REMARK    5  A    between atoms: C_10  and  C_11
REMARK    6  A    between atoms: N_12  and  C_13
REMARK    7  A    between atoms: C_13  and  C_14
REMARK    8  A    between atoms: C_23  and  C_24
REMARK    9  A    between atoms: C_27  and  N_28
REMARK                            x       y       z     vdW  Elec       q    Type
REMARK                         _______ _______ _______ _____ _____    ______ ____
ROOT
ATOM      1  C   UNL     1      -0.048   9.669  21.396  0.00  0.00    +0.000 C 
ATOM      2  O   UNL     1       0.775   8.602  21.933  0.00  0.00    +0.000 OA
ATOM      3  C   UNL     1       1.418   8.140  20.803  0.00  0.00    +0.000 A 
ATOM      4  C   UNL     1       2.067   6.876  20.802  0.00  0.00    +0.000 A 
ATOM      5  C   UNL     1       2.625   6.423  19.662  0.00  0.00    +0.000 A 
ATOM      6  C   UNL     1       3.269   5.065  19.652  0.00  0.00    +0.000 C 
ATOM      7  N   UNL     1       2.583   7.213  18.489  0.00  0.00    +0.000 N 
ATOM      8  C   UNL     1       1.959   8.477  18.468  0.00  0.00    +0.000 A 
ATOM      9  O   UNL     1       1.859   9.197  17.473  0.00  0.00    +0.000 OA
ATOM     10  C   UNL     1       1.353   8.912  19.731  0.00  0.00    +0.000 A 
ATOM     11  C   UNL     1       0.550  10.117  20.036  0.00  0.00    +0.000 C 
ENDROOT
BRANCH  11  12
ATOM     12  C   UNL     1      -0.509  10.456  19.000  0.00  0.00    +0.000 A 
ATOM     13  C   UNL     1      -0.596  11.736  18.427  0.00  0.00    +0.000 A 
ATOM     14  C   UNL     1      -1.578  12.032  17.481  0.00  0.00    +0.000 A 
ATOM     15  C   UNL     1      -2.497  11.043  17.110  0.00  0.00    +0.000 A 
ATOM     16  C   UNL     1      -2.430   9.764  17.673  0.00  0.00    +0.000 A 
ATOM     17  C   UNL     1      -1.437   9.475  18.613  0.00  0.00    +0.000 A 
BRANCH  15  18
ATOM     18  N   UNL     1      -3.540  11.360  16.131  0.00  0.00    +0.000 N 
ATOM     19  O   UNL     1      -4.603  11.839  16.552  0.00  0.00    +0.000 OA
ATOM     20  O   UNL     1      -3.295  11.138  14.935  0.00  0.00    +0.000 OA
ENDBRANCH  15  18
ENDBRANCH  11  12
BRANCH   1  21
ATOM     21  C   UNL     1      -0.241  10.829  22.363  0.00  0.00    +0.000 C 
ATOM     22  O   UNL     1      -0.949  10.816  23.359  0.00  0.00    +0.000 OA
BRANCH  21  23
ATOM     23  O   UNL     1       0.363  11.942  21.848  0.00  0.00    +0.000 OA
BRANCH  23  25
ATOM     24  C   UNL     1       0.586  14.314  21.940  0.00  0.00    +0.000 C 
ATOM     25  C   UNL     1      -0.397  13.156  21.911  0.00  0.00    +0.000 C 
ENDBRANCH  23  25
ENDBRANCH  21  23
ENDBRANCH   1  21
BRANCH   7  26
ATOM     26  C   UNL     1       3.011   6.682  17.187  0.00  0.00    +0.000 C 
BRANCH  26  27
ATOM     27  C   UNL     1       4.485   6.369  17.004  0.00  0.00    +0.000 A 
ATOM     28  C   UNL     1       5.456   7.264  17.482  0.00  0.00    +0.000 A 
ATOM     29  C   UNL     1       6.807   6.904  17.532  0.00  0.00    +0.000 A 
ATOM     30  C   UNL     1       7.210   5.644  17.099  0.00  0.00    +0.000 A 
ATOM     31  C   UNL     1       6.268   4.758  16.585  0.00  0.00    +0.000 A 
ATOM     32  C   UNL     1       4.917   5.119  16.533  0.00  0.00    +0.000 A 
ENDBRANCH  26  27
ENDBRANCH   7  26
TORSDOF 7
ENDMDL
MODEL 6
REMARK VINA RESULT:      -7.1      0.575      1.337
REMARK  Name = 
REMARK  9 active torsions:
REMARK  status: ('A' for Active; 'I' for Inactive)
REMARK    1  A    between atoms: C_1  and  C_2
REMARK    2  A    between atoms: C_2  and  O_3
REMARK    3  A    between atoms: O_3  and  C_4
REMARK    4  A    between atoms: C_4  and  C_6
REMARK    5  A    between atoms: C_10  and  C_11
REMARK    6  A    between atoms: N_12  and  C_13
REMARK    7  A    between atoms: C_13  and  C_14
REMARK    8  A    between atoms: C_23  and  C_24
REMARK    9  A    between atoms: C_27  and  N_28
REMARK                            x       y       z     vdW  Elec       q    Type
REMARK                         _______ _______ _______ _____ _____    ______ ____
ROOT
ATOM      1  C   UNL     1       2.728   4.337  20.339  0.00  0.00    +0.000 C 
ATOM      2  O   UNL     1       2.037   5.071  21.382  0.00  0.00    +0.000 OA
ATOM      3  C   UNL     1       1.808   6.288  20.772  0.00  0.00    +0.000 A 
ATOM      4  C   UNL     1       1.458   7.431  21.539  0.00  0.00    +0.000 A 
ATOM      5  C   UNL     1       1.310   8.619  20.921  0.00  0.00    +0.000 A 
ATOM      6  C   UNL     1       0.985   9.836  21.741  0.00  0.00    +0.000 C 
ATOM      7  N   UNL     1       1.479   8.715  19.519  0.00  0.00    +0.000 N 
ATOM      8  C   UNL     1       1.811   7.594  18.733  0.00  0.00    +0.000 A 
ATOM      9  O   UNL     1       2.005   7.618  17.517  0.00  0.00    +0.000 OA
ATOM     10  C   UNL     1       1.977   6.330  19.460  0.00  0.00    +0.000 A 
ATOM     11  C   UNL     1       2.410   5.001  18.974  0.00  0.00    +0.000 C 
ENDROOT
BRANCH  11  12
ATOM     12  C   UNL     1       3.600   5.025  18.028  0.00  0.00    +0.000 A 
ATOM     13  C   UNL     1       4.659   5.932  18.199  0.00  0.00    +0.000 A 
ATOM     14  C   UNL     1       5.741   5.944  17.319  0.00  0.00    +0.000 A 
ATOM     15  C   UNL     1       5.762   5.049  16.243  0.00  0.00    +0.000 A 
ATOM     16  C   UNL     1       4.714   4.142  16.052  0.00  0.00    +0.000 A 
ATOM     17  C   UNL     1       3.639   4.132  16.945  0.00  0.00    +0.000 A 
BRANCH  15  18
ATOM     18  N   UNL     1       6.889   5.075  15.306  0.00  0.00    +0.000 N 
ATOM     19  O   UNL     1       7.755   5.948  15.465  0.00  0.00    +0.000 OA
ATOM     20  O   UNL     1       6.915   4.215  14.412  0.00  0.00    +0.000 OA
ENDBRANCH  15  18
ENDBRANCH  11  12
BRANCH   1  21
ATOM     21  C   UNL     1       2.427   2.845  20.350  0.00  0.00    +0.000 C 
ATOM     22  O   UNL     1       1.334   2.336  20.146  0.00  0.00    +0.000 OA
BRANCH  21  23
ATOM     23  O   UNL     1       3.530   2.172  20.794  0.00  0.00    +0.000 OA
BRANCH  23  25
ATOM     24  C   UNL     1       4.000   1.070  18.733  0.00  0.00    +0.000 C 
ATOM     25  C   UNL     1       4.567   1.955  19.828  0.00  0.00    +0.000 C 
ENDBRANCH  23  25
ENDBRANCH  21  23
ENDBRANCH   1  21
BRANCH   7  26
ATOM     26  C   UNL     1       1.511  10.016  18.835  0.00  0.00    +0.000 C 
BRANCH  26  27
ATOM     27  C   UNL     1       0.184  10.701  18.562  0.00  0.00    +0.000 A 
ATOM     28  C   UNL     1       0.087  12.100  18.644  0.00  0.00    +0.000 A 
ATOM     29  C   UNL     1      -1.049  12.773  18.182  0.00  0.00    +0.000 A 
ATOM     30  C   UNL     1      -2.111  12.057  17.635  0.00  0.00    +0.000 A 
ATOM     31  C   UNL     1      -2.050  10.668  17.581  0.00  0.00    +0.000 A 
ATOM     32  C   UNL     1      -0.914   9.995  18.045  0.00  0.00    +0.000 A 
ENDBRANCH  26  27
ENDBRANCH   7  26
TORSDOF 7
ENDMDL
MODEL 7
REMARK VINA RESULT:      -7.1      0.755      1.181
REMARK  Name = 
REMARK  9 active torsions:
REMARK  status: ('A' for Active; 'I' for Inactive)
REMARK    1  A    between atoms: C_1  and  C_2
REMARK    2  A    between atoms: C_2  and  O_3
REMARK    3  A    between atoms: O_3  and  C_4
REMARK    4  A    between atoms: C_4  and  C_6
REMARK    5  A    between atoms: C_10  and  C_11
REMARK    6  A    between atoms: N_12  and  C_13
REMARK    7  A    between atoms: C_13  and  C_14
REMARK    8  A    between atoms: C_23  and  C_24
REMARK    9  A    between atoms: C_27  and  N_28
REMARK                            x       y       z     vdW  Elec       q    Type
REMARK                         _______ _______ _______ _____ _____    ______ ____
ROOT
ATOM      1  C   UNL     1       2.609   4.238  20.055  0.00  0.00    +0.000 C 
ATOM      2  O   UNL     1       1.908   4.944  21.110  0.00  0.00    +0.000 OA
ATOM      3  C   UNL     1       1.737   6.195  20.553  0.00  0.00    +0.000 A 
ATOM      4  C   UNL     1       1.397   7.311  21.364  0.00  0.00    +0.000 A 
ATOM      5  C   UNL     1       1.306   8.531  20.800  0.00  0.00    +0.000 A 
ATOM      6  C   UNL     1       0.993   9.718  21.668  0.00  0.00    +0.000 C 
ATOM      7  N   UNL     1       1.523   8.689  19.411  0.00  0.00    +0.000 N 
ATOM      8  C   UNL     1       1.846   7.596  18.582  0.00  0.00    +0.000 A 
ATOM      9  O   UNL     1       2.080   7.671  17.375  0.00  0.00    +0.000 OA
ATOM     10  C   UNL     1       1.950   6.294  19.251  0.00  0.00    +0.000 A 
ATOM     11  C   UNL     1       2.356   4.977  18.714  0.00  0.00    +0.000 C 
ENDROOT
BRANCH  11  12
ATOM     12  C   UNL     1       3.576   5.007  17.808  0.00  0.00    +0.000 A 
ATOM     13  C   UNL     1       4.623   5.921  18.012  0.00  0.00    +0.000 A 
ATOM     14  C   UNL     1       5.734   5.939  17.167  0.00  0.00    +0.000 A 
ATOM     15  C   UNL     1       5.795   5.042  16.094  0.00  0.00    +0.000 A 
ATOM     16  C   UNL     1       4.761   4.128  15.871  0.00  0.00    +0.000 A 
ATOM     17  C   UNL     1       3.657   4.112  16.728  0.00  0.00    +0.000 A 
BRANCH  15  18
ATOM     18  N   UNL     1       6.952   5.074  15.194  0.00  0.00    +0.000 N 
ATOM     19  O   UNL     1       7.827   5.927  15.406  0.00  0.00    +0.000 OA
ATOM     20  O   UNL     1       6.993   4.239  14.278  0.00  0.00    +0.000 OA
ENDBRANCH  15  18
ENDBRANCH  11  12
BRANCH   1  21
ATOM     21  C   UNL     1       2.262   2.758  19.984  0.00  0.00    +0.000 C 
ATOM     22  O   UNL     1       1.234   2.246  20.403  0.00  0.00    +0.000 OA
BRANCH  21  23
ATOM     23  O   UNL     1       3.353   2.066  19.536  0.00  0.00    +0.000 OA
BRANCH  23  25
ATOM     24  C   UNL     1       5.141   1.279  20.903  0.00  0.00    +0.000 C 
ATOM     25  C   UNL     1       4.616   2.452  20.093  0.00  0.00    +0.000 C 
ENDBRANCH  23  25
ENDBRANCH  21  23
ENDBRANCH   1  21
BRANCH   7  26
ATOM     26  C   UNL     1       1.618  10.019  18.792  0.00  0.00    +0.000 C 
BRANCH  26  27
ATOM     27  C   UNL     1       0.322  10.710  18.406  0.00  0.00    +0.000 A 
ATOM     28  C   UNL     1      -0.728   9.966  17.842  0.00  0.00    +0.000 A 
ATOM     29  C   UNL     1      -2.003  10.522  17.687  0.00  0.00    +0.000 A 
ATOM     30  C   UNL     1      -2.247  11.832  18.087  0.00  0.00    +0.000 A 
ATOM     31  C   UNL     1      -1.210  12.597  18.611  0.00  0.00    +0.000 A 
ATOM     32  C   UNL     1       0.066  12.043  18.765  0.00  0.00    +0.000 A 
ENDBRANCH  26  27
ENDBRANCH   7  26
TORSDOF 7
ENDMDL
MODEL 8
REMARK VINA RESULT:      -7.1      0.866      1.075
REMARK  Name = 
REMARK  9 active torsions:
REMARK  status: ('A' for Active; 'I' for Inactive)
REMARK    1  A    between atoms: C_1  and  C_2
REMARK    2  A    between atoms: C_2  and  O_3
REMARK    3  A    between atoms: O_3  and  C_4
REMARK    4  A    between atoms: C_4  and  C_6
REMARK    5  A    between atoms: C_10  and  C_11
REMARK    6  A    between atoms: N_12  and  C_13
REMARK    7  A    between atoms: C_13  and  C_14
REMARK    8  A    between atoms: C_23  and  C_24
REMARK    9  A    between atoms: C_27  and  N_28
REMARK                            x       y       z     vdW  Elec       q    Type
REMARK                         _______ _______ _______ _____ _____    ______ ____
ROOT
ATOM      1  C   UNL     1       2.800   4.735  20.662  0.00  0.00    +0.000 C 
ATOM      2  O   UNL     1       1.997   5.476  21.616  0.00  0.00    +0.000 OA
ATOM      3  C   UNL     1       1.708   6.628  20.914  0.00  0.00    +0.000 A 
ATOM      4  C   UNL     1       1.228   7.786  21.583  0.00  0.00    +0.000 A 
ATOM      5  C   UNL     1       1.022   8.916  20.878  0.00  0.00    +0.000 A 
ATOM      6  C   UNL     1       0.559  10.152  21.596  0.00  0.00    +0.000 C 
ATOM      7  N   UNL     1       1.261   8.935  19.483  0.00  0.00    +0.000 N 
ATOM      8  C   UNL     1       1.723   7.796  18.793  0.00  0.00    +0.000 A 
ATOM      9  O   UNL     1       1.982   7.758  17.590  0.00  0.00    +0.000 OA
ATOM     10  C   UNL     1       1.947   6.600  19.612  0.00  0.00    +0.000 A 
ATOM     11  C   UNL     1       2.508   5.282  19.241  0.00  0.00    +0.000 C 
ENDROOT
BRANCH  11  12
ATOM     12  C   UNL     1       3.743   5.342  18.357  0.00  0.00    +0.000 A 
ATOM     13  C   UNL     1       3.751   4.796  17.063  0.00  0.00    +0.000 A 
ATOM     14  C   UNL     1       4.895   4.855  16.267  0.00  0.00    +0.000 A 
ATOM     15  C   UNL     1       6.055   5.454  16.774  0.00  0.00    +0.000 A 
ATOM     16  C   UNL     1       6.069   5.999  18.062  0.00  0.00    +0.000 A 
ATOM     17  C   UNL     1       4.915   5.943  18.848  0.00  0.00    +0.000 A 
BRANCH  15  18
ATOM     18  N   UNL     1       7.264   5.498  15.945  0.00  0.00    +0.000 N 
ATOM     19  O   UNL     1       7.468   4.555  15.168  0.00  0.00    +0.000 OA
ATOM     20  O   UNL     1       8.008   6.484  16.065  0.00  0.00    +0.000 OA
ENDBRANCH  15  18
ENDBRANCH  11  12
BRANCH   1  21
ATOM     21  C   UNL     1       2.616   3.227  20.760  0.00  0.00    +0.000 C 
ATOM     22  O   UNL     1       2.492   2.589  21.796  0.00  0.00    +0.000 OA
BRANCH  21  23
ATOM     23  O   UNL     1       2.784   2.677  19.520  0.00  0.00    +0.000 OA
BRANCH  23  25
ATOM     24  C   UNL     1       0.583   2.390  18.649  0.00  0.00    +0.000 C 
ATOM     25  C   UNL     1       1.831   1.676  19.140  0.00  0.00    +0.000 C 
ENDBRANCH  23  25
ENDBRANCH  21  23
ENDBRANCH   1  21
BRANCH   7  26
ATOM     26  C   UNL     1       1.230  10.188  18.714  0.00  0.00    +0.000 C 
BRANCH  26  27
ATOM     27  C   UNL     1      -0.126  10.713  18.279  0.00  0.00    +0.000 A 
ATOM     28  C   UNL     1      -1.001   9.884  17.557  0.00  0.00    +0.000 A 
ATOM     29  C   UNL     1      -2.332  10.256  17.340  0.00  0.00    +0.000 A 
ATOM     30  C   UNL     1      -2.810  11.466  17.836  0.00  0.00    +0.000 A 
ATOM     31  C   UNL     1      -1.948  12.318  18.519  0.00  0.00    +0.000 A 
ATOM     32  C   UNL     1      -0.616  11.948  18.735  0.00  0.00    +0.000 A 
ENDBRANCH  26  27
ENDBRANCH   7  26
TORSDOF 7
ENDMDL
MODEL 9
REMARK VINA RESULT:      -7.1      0.868      1.672
REMARK  Name = 
REMARK  9 active torsions:
REMARK  status: ('A' for Active; 'I' for Inactive)
REMARK    1  A    between atoms: C_1  and  C_2
REMARK    2  A    between atoms: C_2  and  O_3
REMARK    3  A    between atoms: O_3  and  C_4
REMARK    4  A    between atoms: C_4  and  C_6
REMARK    5  A    between atoms: C_10  and  C_11
REMARK    6  A    between atoms: N_12  and  C_13
REMARK    7  A    between atoms: C_13  and  C_14
REMARK    8  A    between atoms: C_23  and  C_24
REMARK    9  A    between atoms: C_27  and  N_28
REMARK                            x       y       z     vdW  Elec       q    Type
REMARK                         _______ _______ _______ _____ _____    ______ ____
ROOT
ATOM      1  C   UNL     1       2.158   4.864  20.486  0.00  0.00    +0.000 C 
ATOM      2  O   UNL     1       1.346   5.737  21.312  0.00  0.00    +0.000 OA
ATOM      3  C   UNL     1       1.428   6.934  20.629  0.00  0.00    +0.000 A 
ATOM      4  C   UNL     1       1.063   8.155  21.258  0.00  0.00    +0.000 A 
ATOM      5  C   UNL     1       1.221   9.313  20.587  0.00  0.00    +0.000 A 
ATOM      6  C   UNL     1       0.878  10.607  21.271  0.00  0.00    +0.000 C 
ATOM      7  N   UNL     1       1.723   9.305  19.264  0.00  0.00    +0.000 N 
ATOM      8  C   UNL     1       2.079   8.106  18.613  0.00  0.00    +0.000 A 
ATOM      9  O   UNL     1       2.552   8.034  17.479  0.00  0.00    +0.000 OA
ATOM     10  C   UNL     1       1.903   6.877  19.395  0.00  0.00    +0.000 A 
ATOM     11  C   UNL     1       2.257   5.479  19.065  0.00  0.00    +0.000 C 
ENDROOT
BRANCH  11  12
ATOM     12  C   UNL     1       3.627   5.302  18.431  0.00  0.00    +0.000 A 
ATOM     13  C   UNL     1       4.809   5.527  19.155  0.00  0.00    +0.000 A 
ATOM     14  C   UNL     1       6.059   5.365  18.556  0.00  0.00    +0.000 A 
ATOM     15  C   UNL     1       6.132   4.988  17.209  0.00  0.00    +0.000 A 
ATOM     16  C   UNL     1       4.966   4.764  16.470  0.00  0.00    +0.000 A 
ATOM     17  C   UNL     1       3.719   4.920  17.082  0.00  0.00    +0.000 A 
BRANCH  15  18
ATOM     18  N   UNL     1       7.444   4.837  16.574  0.00  0.00    +0.000 N 
ATOM     19  O   UNL     1       8.300   4.164  17.166  0.00  0.00    +0.000 OA
ATOM     20  O   UNL     1       7.618   5.386  15.475  0.00  0.00    +0.000 OA
ENDBRANCH  15  18
ENDBRANCH  11  12
BRANCH   1  21
ATOM     21  C   UNL     1       1.668   3.422  20.468  0.00  0.00    +0.000 C 
ATOM     22  O   UNL     1       1.664   2.659  21.422  0.00  0.00    +0.000 OA
BRANCH  21  23
ATOM     23  O   UNL     1       1.396   3.061  19.178  0.00  0.00    +0.000 OA
BRANCH  23  25
ATOM     24  C   UNL     1       3.226   1.704  18.472  0.00  0.00    +0.000 C 
ATOM     25  C   UNL     1       1.746   1.719  18.813  0.00  0.00    +0.000 C 
ENDBRANCH  23  25
ENDBRANCH  21  23
ENDBRANCH   1  21
BRANCH   7  26
ATOM     26  C   UNL     1       2.085  10.549  18.570  0.00  0.00    +0.000 C 
BRANCH  26  27
ATOM     27  C   UNL     1       1.144  11.731  18.708  0.00  0.00    +0.000 A 
ATOM     28  C   UNL     1       1.661  13.014  18.958  0.00  0.00    +0.000 A 
ATOM     29  C   UNL     1       0.849  14.149  18.866  0.00  0.00    +0.000 A 
ATOM     30  C   UNL     1      -0.495  14.021  18.527  0.00  0.00    +0.000 A 
ATOM     31  C   UNL     1      -1.035  12.756  18.315  0.00  0.00    +0.000 A 
ATOM     32  C   UNL     1      -0.224  11.620  18.409  0.00  0.00    +0.000 A 
ENDBRANCH  26  27
ENDBRANCH   7  26
TORSDOF 7
ENDMDL
