MODEL 1
REMARK VINA RESULT:      -7.2      0.000      0.000
REMARK  Name = 
REMARK  7 active torsions:
REMARK  status: ('A' for Active; 'I' for Inactive)
REMARK    1  A    between atoms: C_2  and  C_3
REMARK    2  A    between atoms: C_8  and  C_9
REMARK    3  A    between atoms: C_9  and  N_10
REMARK    4  A    between atoms: N_13  and  C_14
REMARK    5  A    between atoms: C_14  and  C_15
REMARK    6  A    between atoms: C_15  and  C_16
REMARK    7  A    between atoms: N_18  and  C_19
REMARK                            x       y       z     vdW  Elec       q    Type
REMARK                         _______ _______ _______ _____ _____    ______ ____
ROOT
ATOM      1  N   UNL     1       2.709   6.467  19.498  0.00  0.00    +0.000 N 
ATOM      2  C   UNL     1       2.277   5.249  19.030  0.00  0.00    +0.000 C 
ATOM      3  O   UNL     1       1.818   5.068  17.911  0.00  0.00    +0.000 OA
ATOM      4  N   UNL     1       2.413   4.263  19.968  0.00  0.00    +0.000 N 
ATOM      5  H   UNL     1       2.657   6.579  20.500  0.00  0.00    +0.000 HD
ATOM      6  H   UNL     1       3.089   4.412  20.709  0.00  0.00    +0.000 HD
ENDROOT
BRANCH   1   7
ATOM      7  C   UNL     1       2.464   7.639  18.687  0.00  0.00    +0.000 C 
BRANCH   7  13
ATOM      8  C   UNL     1       0.464   9.568  21.318  0.00  0.00    +0.000 A 
ATOM      9  C   UNL     1      -0.233  10.478  20.513  0.00  0.00    +0.000 A 
ATOM     10  C   UNL     1      -0.065  10.452  19.128  0.00  0.00    +0.000 A 
ATOM     11  C   UNL     1       0.799   9.523  18.553  0.00  0.00    +0.000 A 
ATOM     12  F   UNL     1       0.947   9.523  17.222  0.00  0.00    +0.000 F 
ATOM     13  C   UNL     1       1.516   8.611  19.335  0.00  0.00    +0.000 A 
ATOM     14  C   UNL     1       1.334   8.636  20.728  0.00  0.00    +0.000 A 
BRANCH   8  16
ATOM     15  N   UNL     1       0.163   9.628  23.895  0.00  0.00    +0.000 NA
ATOM     16  C   UNL     1       0.294   9.598  22.744  0.00  0.00    +0.000 C 
ENDBRANCH   8  16
ENDBRANCH   7  13
ENDBRANCH   1   7
BRANCH   4  17
ATOM     17  C   UNL     1       2.093   2.872  19.685  0.00  0.00    +0.000 C 
BRANCH  17  18
ATOM     18  C   UNL     1       3.296   2.051  19.210  0.00  0.00    +0.000 C 
BRANCH  18  19
ATOM     19  C   UNL     1       4.413   2.944  18.713  0.00  0.00    +0.000 C 
ATOM     20  O   UNL     1       5.247   3.445  19.469  0.00  0.00    +0.000 OA
ATOM     21  N   UNL     1       4.425   3.152  17.347  0.00  0.00    +0.000 N 
ATOM     22  H   UNL     1       3.607   2.899  16.805  0.00  0.00    +0.000 HD
BRANCH  21  23
ATOM     23  C   UNL     1       5.409   4.041  16.768  0.00  0.00    +0.000 C 
ATOM     24  C   UNL     1       5.919   3.628  15.392  0.00  0.00    +0.000 C 
ATOM     25  C   UNL     1       6.669   4.879  14.936  0.00  0.00    +0.000 C 
ATOM     26  C   UNL     1       5.925   6.059  15.570  0.00  0.00    +0.000 C 
ATOM     27  C   UNL     1       4.876   5.445  16.498  0.00  0.00    +0.000 C 
ENDBRANCH  21  23
ENDBRANCH  18  19
ENDBRANCH  17  18
ENDBRANCH   4  17
TORSDOF 7
ENDMDL
MODEL 2
REMARK VINA RESULT:      -7.1      1.567      2.117
REMARK  Name = 
REMARK  7 active torsions:
REMARK  status: ('A' for Active; 'I' for Inactive)
REMARK    1  A    between atoms: C_2  and  C_3
REMARK    2  A    between atoms: C_8  and  C_9
REMARK    3  A    between atoms: C_9  and  N_10
REMARK    4  A    between atoms: N_13  and  C_14
REMARK    5  A    between atoms: C_14  and  C_15
REMARK    6  A    between atoms: C_15  and  C_16
REMARK    7  A    between atoms: N_18  and  C_19
REMARK                            x       y       z     vdW  Elec       q    Type
REMARK                         _______ _______ _______ _____ _____    ______ ____
ROOT
ATOM      1  N   UNL     1       1.069   6.306  20.643  0.00  0.00    +0.000 N 
ATOM      2  C   UNL     1       1.662   5.067  20.609  0.00  0.00    +0.000 C 
ATOM      3  O   UNL     1       2.851   4.871  20.821  0.00  0.00    +0.000 OA
ATOM      4  N   UNL     1       0.768   4.079  20.301  0.00  0.00    +0.000 N 
ATOM      5  H   UNL     1       0.246   6.397  20.064  0.00  0.00    +0.000 HD
ATOM      6  H   UNL     1      -0.213   4.266  20.475  0.00  0.00    +0.000 HD
ENDROOT
BRANCH   1   7
ATOM      7  C   UNL     1       1.916   7.470  20.778  0.00  0.00    +0.000 C 
BRANCH   7  13
ATOM      8  C   UNL     1      -0.113  10.668  21.323  0.00  0.00    +0.000 A 
ATOM      9  C   UNL     1      -0.139  11.196  20.027  0.00  0.00    +0.000 A 
ATOM     10  C   UNL     1       0.485  10.509  18.984  0.00  0.00    +0.000 A 
ATOM     11  C   UNL     1       1.133   9.303  19.239  0.00  0.00    +0.000 A 
ATOM     12  F   UNL     1       1.728   8.667  18.222  0.00  0.00    +0.000 F 
ATOM     13  C   UNL     1       1.182   8.760  20.528  0.00  0.00    +0.000 A 
ATOM     14  C   UNL     1       0.544   9.452  21.571  0.00  0.00    +0.000 A 
BRANCH   8  16
ATOM     15  N   UNL     1      -1.259  11.950  23.267  0.00  0.00    +0.000 NA
ATOM     16  C   UNL     1      -0.751  11.378  22.397  0.00  0.00    +0.000 C 
ENDBRANCH   8  16
ENDBRANCH   7  13
ENDBRANCH   1   7
BRANCH   4  17
ATOM     17  C   UNL     1       1.142   2.673  20.279  0.00  0.00    +0.000 C 
BRANCH  17  18
ATOM     18  C   UNL     1       1.537   2.165  18.889  0.00  0.00    +0.000 C 
BRANCH  18  19
ATOM     19  C   UNL     1       1.923   3.307  17.973  0.00  0.00    +0.000 C 
ATOM     20  O   UNL     1       1.096   3.932  17.308  0.00  0.00    +0.000 OA
ATOM     21  N   UNL     1       3.275   3.593  17.942  0.00  0.00    +0.000 N 
ATOM     22  H   UNL     1       3.927   2.923  18.333  0.00  0.00    +0.000 HD
BRANCH  21  23
ATOM     23  C   UNL     1       3.769   4.621  17.052  0.00  0.00    +0.000 C 
ATOM     24  C   UNL     1       4.319   5.862  17.745  0.00  0.00    +0.000 C 
ATOM     25  C   UNL     1       5.020   6.588  16.598  0.00  0.00    +0.000 C 
ATOM     26  C   UNL     1       5.525   5.486  15.660  0.00  0.00    +0.000 C 
ATOM     27  C   UNL     1       4.960   4.176  16.209  0.00  0.00    +0.000 C 
ENDBRANCH  21  23
ENDBRANCH  18  19
ENDBRANCH  17  18
ENDBRANCH   4  17
TORSDOF 7
ENDMDL
MODEL 3
REMARK VINA RESULT:      -6.9      1.785      2.118
REMARK  Name = 
REMARK  7 active torsions:
REMARK  status: ('A' for Active; 'I' for Inactive)
REMARK    1  A    between atoms: C_2  and  C_3
REMARK    2  A    between atoms: C_8  and  C_9
REMARK    3  A    between atoms: C_9  and  N_10
REMARK    4  A    between atoms: N_13  and  C_14
REMARK    5  A    between atoms: C_14  and  C_15
REMARK    6  A    between atoms: C_15  and  C_16
REMARK    7  A    between atoms: N_18  and  C_19
REMARK                            x       y       z     vdW  Elec       q    Type
REMARK                         _______ _______ _______ _____ _____    ______ ____
ROOT
ATOM      1  N   UNL     1       1.088   6.202  20.879  0.00  0.00    +0.000 N 
ATOM      2  C   UNL     1       1.731   5.033  20.548  0.00  0.00    +0.000 C 
ATOM      3  O   UNL     1       2.945   4.926  20.443  0.00  0.00    +0.000 OA
ATOM      4  N   UNL     1       0.853   4.006  20.340  0.00  0.00    +0.000 N 
ATOM      5  H   UNL     1       0.143   6.279  20.530  0.00  0.00    +0.000 HD
ATOM      6  H   UNL     1      -0.064   4.083  20.765  0.00  0.00    +0.000 HD
ENDROOT
BRANCH   1   7
ATOM      7  C   UNL     1       1.868   7.417  20.954  0.00  0.00    +0.000 C 
BRANCH   7  13
ATOM      8  C   UNL     1      -0.094  10.498  19.811  0.00  0.00    +0.000 A 
ATOM      9  C   UNL     1       0.328  10.608  18.481  0.00  0.00    +0.000 A 
ATOM     10  C   UNL     1       1.229   9.680  17.958  0.00  0.00    +0.000 A 
ATOM     11  C   UNL     1       1.708   8.650  18.764  0.00  0.00    +0.000 A 
ATOM     12  F   UNL     1       2.575   7.775  18.239  0.00  0.00    +0.000 F 
ATOM     13  C   UNL     1       1.311   8.523  20.099  0.00  0.00    +0.000 A 
ATOM     14  C   UNL     1       0.395   9.456  20.616  0.00  0.00    +0.000 A 
BRANCH   8  16
ATOM     15  N   UNL     1      -1.768  12.224  20.786  0.00  0.00    +0.000 NA
ATOM     16  C   UNL     1      -1.018  11.457  20.350  0.00  0.00    +0.000 C 
ENDBRANCH   8  16
ENDBRANCH   7  13
ENDBRANCH   1   7
BRANCH   4  17
ATOM     17  C   UNL     1       1.297   2.651  20.051  0.00  0.00    +0.000 C 
BRANCH  17  18
ATOM     18  C   UNL     1       1.447   2.361  18.555  0.00  0.00    +0.000 C 
BRANCH  18  19
ATOM     19  C   UNL     1       2.904   2.315  18.145  0.00  0.00    +0.000 C 
ATOM     20  O   UNL     1       3.594   1.301  18.264  0.00  0.00    +0.000 OA
ATOM     21  N   UNL     1       3.398   3.496  17.625  0.00  0.00    +0.000 N 
ATOM     22  H   UNL     1       2.860   4.347  17.746  0.00  0.00    +0.000 HD
BRANCH  21  23
ATOM     23  C   UNL     1       4.795   3.589  17.260  0.00  0.00    +0.000 C 
ATOM     24  C   UNL     1       5.063   4.200  15.890  0.00  0.00    +0.000 C 
ATOM     25  C   UNL     1       6.571   4.440  15.932  0.00  0.00    +0.000 C 
ATOM     26  C   UNL     1       6.899   4.739  17.399  0.00  0.00    +0.000 C 
ATOM     27  C   UNL     1       5.603   4.502  18.176  0.00  0.00    +0.000 C 
ENDBRANCH  21  23
ENDBRANCH  18  19
ENDBRANCH  17  18
ENDBRANCH   4  17
TORSDOF 7
ENDMDL
MODEL 4
REMARK VINA RESULT:      -6.9      6.704      8.827
REMARK  Name = 
REMARK  7 active torsions:
REMARK  status: ('A' for Active; 'I' for Inactive)
REMARK    1  A    between atoms: C_2  and  C_3
REMARK    2  A    between atoms: C_8  and  C_9
REMARK    3  A    between atoms: C_9  and  N_10
REMARK    4  A    between atoms: N_13  and  C_14
REMARK    5  A    between atoms: C_14  and  C_15
REMARK    6  A    between atoms: C_15  and  C_16
REMARK    7  A    between atoms: N_18  and  C_19
REMARK                            x       y       z     vdW  Elec       q    Type
REMARK                         _______ _______ _______ _____ _____    ______ ____
ROOT
ATOM      1  N   UNL     1       7.762   6.222  18.707  0.00  0.00    +0.000 N 
ATOM      2  C   UNL     1       7.880   7.280  17.837  0.00  0.00    +0.000 C 
ATOM      3  O   UNL     1       7.644   7.211  16.639  0.00  0.00    +0.000 OA
ATOM      4  N   UNL     1       8.303   8.417  18.469  0.00  0.00    +0.000 N 
ATOM      5  H   UNL     1       8.359   6.273  19.520  0.00  0.00    +0.000 HD
ATOM      6  H   UNL     1       8.149   8.481  19.468  0.00  0.00    +0.000 HD
ENDROOT
BRANCH   1   7
ATOM      7  C   UNL     1       7.498   4.910  18.160  0.00  0.00    +0.000 C 
BRANCH   7  13
ATOM      8  C   UNL     1       3.782   4.522  18.986  0.00  0.00    +0.000 A 
ATOM      9  C   UNL     1       3.276   4.089  17.755  0.00  0.00    +0.000 A 
ATOM     10  C   UNL     1       4.138   3.909  16.673  0.00  0.00    +0.000 A 
ATOM     11  C   UNL     1       5.499   4.167  16.822  0.00  0.00    +0.000 A 
ATOM     12  F   UNL     1       6.304   3.991  15.766  0.00  0.00    +0.000 F 
ATOM     13  C   UNL     1       6.029   4.611  18.038  0.00  0.00    +0.000 A 
ATOM     14  C   UNL     1       5.156   4.780  19.126  0.00  0.00    +0.000 A 
BRANCH   8  16
ATOM     15  N   UNL     1       2.170   4.863  20.990  0.00  0.00    +0.000 NA
ATOM     16  C   UNL     1       2.893   4.711  20.099  0.00  0.00    +0.000 C 
ENDBRANCH   8  16
ENDBRANCH   7  13
ENDBRANCH   1   7
BRANCH   4  17
ATOM     17  C   UNL     1       8.432   9.689  17.774  0.00  0.00    +0.000 C 
BRANCH  17  18
ATOM     18  C   UNL     1       9.361  10.682  18.479  0.00  0.00    +0.000 C 
BRANCH  18  19
ATOM     19  C   UNL     1       9.196  12.081  17.926  0.00  0.00    +0.000 C 
ATOM     20  O   UNL     1       8.170  12.451  17.352  0.00  0.00    +0.000 OA
ATOM     21  N   UNL     1      10.283  12.912  18.118  0.00  0.00    +0.000 N 
ATOM     22  H   UNL     1      11.168  12.505  18.398  0.00  0.00    +0.000 HD
BRANCH  21  23
ATOM     23  C   UNL     1      10.264  14.253  17.574  0.00  0.00    +0.000 C 
ATOM     24  C   UNL     1       9.798  15.333  18.542  0.00  0.00    +0.000 C 
ATOM     25  C   UNL     1      10.177  16.616  17.803  0.00  0.00    +0.000 C 
ATOM     26  C   UNL     1      11.434  16.270  16.998  0.00  0.00    +0.000 C 
ATOM     27  C   UNL     1      11.643  14.765  17.170  0.00  0.00    +0.000 C 
ENDBRANCH  21  23
ENDBRANCH  18  19
ENDBRANCH  17  18
ENDBRANCH   4  17
TORSDOF 7
ENDMDL
MODEL 5
REMARK VINA RESULT:      -6.8      1.725      1.929
REMARK  Name = 
REMARK  7 active torsions:
REMARK  status: ('A' for Active; 'I' for Inactive)
REMARK    1  A    between atoms: C_2  and  C_3
REMARK    2  A    between atoms: C_8  and  C_9
REMARK    3  A    between atoms: C_9  and  N_10
REMARK    4  A    between atoms: N_13  and  C_14
REMARK    5  A    between atoms: C_14  and  C_15
REMARK    6  A    between atoms: C_15  and  C_16
REMARK    7  A    between atoms: N_18  and  C_19
REMARK                            x       y       z     vdW  Elec       q    Type
REMARK                         _______ _______ _______ _____ _____    ______ ____
ROOT
ATOM      1  N   UNL     1       2.150   6.821  17.931  0.00  0.00    +0.000 N 
ATOM      2  C   UNL     1       2.459   5.641  18.563  0.00  0.00    +0.000 C 
ATOM      3  O   UNL     1       2.978   5.571  19.669  0.00  0.00    +0.000 OA
ATOM      4  N   UNL     1       2.128   4.552  17.805  0.00  0.00    +0.000 N 
ATOM      5  H   UNL     1       2.136   6.771  16.923  0.00  0.00    +0.000 HD
ATOM      6  H   UNL     1       1.420   4.678  17.091  0.00  0.00    +0.000 HD
ENDROOT
BRANCH   1   7
ATOM      7  C   UNL     1       2.603   8.059  18.527  0.00  0.00    +0.000 C 
BRANCH   7  13
ATOM      8  C   UNL     1       0.385   9.554  21.263  0.00  0.00    +0.000 A 
ATOM      9  C   UNL     1      -0.545  10.267  20.497  0.00  0.00    +0.000 A 
ATOM     10  C   UNL     1      -0.459  10.248  19.104  0.00  0.00    +0.000 A 
ATOM     11  C   UNL     1       0.554   9.521  18.483  0.00  0.00    +0.000 A 
ATOM     12  F   UNL     1       0.617   9.523  17.146  0.00  0.00    +0.000 F 
ATOM     13  C   UNL     1       1.502   8.809  19.226  0.00  0.00    +0.000 A 
ATOM     14  C   UNL     1       1.403   8.825  20.628  0.00  0.00    +0.000 A 
BRANCH   8  16
ATOM     15  N   UNL     1       0.221   9.593  23.853  0.00  0.00    +0.000 NA
ATOM     16  C   UNL     1       0.298   9.578  22.697  0.00  0.00    +0.000 C 
ENDBRANCH   8  16
ENDBRANCH   7  13
ENDBRANCH   1   7
BRANCH   4  17
ATOM     17  C   UNL     1       2.290   3.189  18.290  0.00  0.00    +0.000 C 
BRANCH  17  18
ATOM     18  C   UNL     1       3.621   2.549  17.886  0.00  0.00    +0.000 C 
BRANCH  18  19
ATOM     19  C   UNL     1       4.602   3.586  17.380  0.00  0.00    +0.000 C 
ATOM     20  O   UNL     1       4.644   3.937  16.200  0.00  0.00    +0.000 OA
ATOM     21  N   UNL     1       5.443   4.107  18.344  0.00  0.00    +0.000 N 
ATOM     22  H   UNL     1       5.513   3.638  19.240  0.00  0.00    +0.000 HD
BRANCH  21  23
ATOM     23  C   UNL     1       6.466   5.057  17.963  0.00  0.00    +0.000 C 
ATOM     24  C   UNL     1       5.943   6.396  17.457  0.00  0.00    +0.000 C 
ATOM     25  C   UNL     1       7.209   7.252  17.440  0.00  0.00    +0.000 C 
ATOM     26  C   UNL     1       8.077   6.725  18.588  0.00  0.00    +0.000 C 
ATOM     27  C   UNL     1       7.360   5.485  19.122  0.00  0.00    +0.000 C 
ENDBRANCH  21  23
ENDBRANCH  18  19
ENDBRANCH  17  18
ENDBRANCH   4  17
TORSDOF 7
ENDMDL
MODEL 6
REMARK VINA RESULT:      -6.8      2.305      2.802
REMARK  Name = 
REMARK  7 active torsions:
REMARK  status: ('A' for Active; 'I' for Inactive)
REMARK    1  A    between atoms: C_2  and  C_3
REMARK    2  A    between atoms: C_8  and  C_9
REMARK    3  A    between atoms: C_9  and  N_10
REMARK    4  A    between atoms: N_13  and  C_14
REMARK    5  A    between atoms: C_14  and  C_15
REMARK    6  A    between atoms: C_15  and  C_16
REMARK    7  A    between atoms: N_18  and  C_19
REMARK                            x       y       z     vdW  Elec       q    Type
REMARK                         _______ _______ _______ _____ _____    ______ ____
ROOT
ATOM      1  N   UNL     1       1.169   6.756  20.731  0.00  0.00    +0.000 N 
ATOM      2  C   UNL     1       1.869   5.621  20.401  0.00  0.00    +0.000 C 
ATOM      3  O   UNL     1       3.048   5.613  20.076  0.00  0.00    +0.000 OA
ATOM      4  N   UNL     1       1.089   4.499  20.470  0.00  0.00    +0.000 N 
ATOM      5  H   UNL     1       0.174   6.704  20.564  0.00  0.00    +0.000 HD
ATOM      6  H   UNL     1       0.261   4.542  21.053  0.00  0.00    +0.000 HD
ENDROOT
BRANCH   1   7
ATOM      7  C   UNL     1       1.807   8.039  20.532  0.00  0.00    +0.000 C 
BRANCH   7  13
ATOM      8  C   UNL     1      -0.681  10.841  19.758  0.00  0.00    +0.000 A 
ATOM      9  C   UNL     1      -0.948  11.327  21.044  0.00  0.00    +0.000 A 
ATOM     10  C   UNL     1      -0.312  10.759  22.148  0.00  0.00    +0.000 A 
ATOM     11  C   UNL     1       0.582   9.707  21.966  0.00  0.00    +0.000 A 
ATOM     12  F   UNL     1       1.175   9.175  23.043  0.00  0.00    +0.000 F 
ATOM     13  C   UNL     1       0.859   9.195  20.694  0.00  0.00    +0.000 A 
ATOM     14  C   UNL     1       0.222   9.780  19.585  0.00  0.00    +0.000 A 
BRANCH   8  16
ATOM     15  N   UNL     1      -1.877  11.888  17.707  0.00  0.00    +0.000 NA
ATOM     16  C   UNL     1      -1.340  11.424  18.622  0.00  0.00    +0.000 C 
ENDBRANCH   8  16
ENDBRANCH   7  13
ENDBRANCH   1   7
BRANCH   4  17
ATOM     17  C   UNL     1       1.623   3.166  20.238  0.00  0.00    +0.000 C 
BRANCH  17  18
ATOM     18  C   UNL     1       1.578   2.733  18.770  0.00  0.00    +0.000 C 
BRANCH  18  19
ATOM     19  C   UNL     1       2.970   2.584  18.194  0.00  0.00    +0.000 C 
ATOM     20  O   UNL     1       3.537   1.494  18.106  0.00  0.00    +0.000 OA
ATOM     21  N   UNL     1       3.552   3.764  17.773  0.00  0.00    +0.000 N 
ATOM     22  H   UNL     1       3.140   4.644  18.059  0.00  0.00    +0.000 HD
BRANCH  21  23
ATOM     23  C   UNL     1       4.907   3.752  17.265  0.00  0.00    +0.000 C 
ATOM     24  C   UNL     1       5.100   4.456  15.928  0.00  0.00    +0.000 C 
ATOM     25  C   UNL     1       6.622   4.542  15.824  0.00  0.00    +0.000 C 
ATOM     26  C   UNL     1       7.127   4.671  17.266  0.00  0.00    +0.000 C 
ATOM     27  C   UNL     1       5.898   4.492  18.158  0.00  0.00    +0.000 C 
ENDBRANCH  21  23
ENDBRANCH  18  19
ENDBRANCH  17  18
ENDBRANCH   4  17
TORSDOF 7
ENDMDL
MODEL 7
REMARK VINA RESULT:      -6.8      5.736      8.059
REMARK  Name = 
REMARK  7 active torsions:
REMARK  status: ('A' for Active; 'I' for Inactive)
REMARK    1  A    between atoms: C_2  and  C_3
REMARK    2  A    between atoms: C_8  and  C_9
REMARK    3  A    between atoms: C_9  and  N_10
REMARK    4  A    between atoms: N_13  and  C_14
REMARK    5  A    between atoms: C_14  and  C_15
REMARK    6  A    between atoms: C_15  and  C_16
REMARK    7  A    between atoms: N_18  and  C_19
REMARK                            x       y       z     vdW  Elec       q    Type
REMARK                         _______ _______ _______ _____ _____    ______ ____
ROOT
ATOM      1  N   UNL     1       4.829   6.244  17.689  0.00  0.00    +0.000 N 
ATOM      2  C   UNL     1       5.938   6.771  17.073  0.00  0.00    +0.000 C 
ATOM      3  O   UNL     1       6.278   6.504  15.928  0.00  0.00    +0.000 OA
ATOM      4  N   UNL     1       6.624   7.623  17.894  0.00  0.00    +0.000 N 
ATOM      5  H   UNL     1       4.888   6.193  18.696  0.00  0.00    +0.000 HD
ATOM      6  H   UNL     1       6.114   8.041  18.664  0.00  0.00    +0.000 HD
ENDROOT
BRANCH   1   7
ATOM      7  C   UNL     1       4.103   5.191  17.013  0.00  0.00    +0.000 C 
BRANCH   7  13
ATOM      8  C   UNL     1       3.862   2.509  19.732  0.00  0.00    +0.000 A 
ATOM      9  C   UNL     1       2.483   2.268  19.751  0.00  0.00    +0.000 A 
ATOM     10  C   UNL     1       1.644   2.959  18.877  0.00  0.00    +0.000 A 
ATOM     11  C   UNL     1       2.182   3.890  17.992  0.00  0.00    +0.000 A 
ATOM     12  F   UNL     1       1.354   4.544  17.167  0.00  0.00    +0.000 F 
ATOM     13  C   UNL     1       3.555   4.158  17.960  0.00  0.00    +0.000 A 
ATOM     14  C   UNL     1       4.395   3.450  18.836  0.00  0.00    +0.000 A 
BRANCH   8  16
ATOM     15  N   UNL     1       5.427   1.227  21.358  0.00  0.00    +0.000 NA
ATOM     16  C   UNL     1       4.725   1.800  20.636  0.00  0.00    +0.000 C 
ENDBRANCH   8  16
ENDBRANCH   7  13
ENDBRANCH   1   7
BRANCH   4  17
ATOM     17  C   UNL     1       7.793   8.364  17.443  0.00  0.00    +0.000 C 
BRANCH  17  18
ATOM     18  C   UNL     1       8.657   8.901  18.587  0.00  0.00    +0.000 C 
BRANCH  18  19
ATOM     19  C   UNL     1       9.009  10.359  18.376  0.00  0.00    +0.000 C 
ATOM     20  O   UNL     1       8.361  11.096  17.633  0.00  0.00    +0.000 OA
ATOM     21  N   UNL     1      10.113  10.796  19.084  0.00  0.00    +0.000 N 
ATOM     22  H   UNL     1      10.729  10.110  19.505  0.00  0.00    +0.000 HD
BRANCH  21  23
ATOM     23  C   UNL     1      10.582  12.154  18.910  0.00  0.00    +0.000 C 
ATOM     24  C   UNL     1      11.280  12.754  20.124  0.00  0.00    +0.000 C 
ATOM     25  C   UNL     1      11.910  14.019  19.543  0.00  0.00    +0.000 C 
ATOM     26  C   UNL     1      12.243  13.681  18.086  0.00  0.00    +0.000 C 
ATOM     27  C   UNL     1      11.650  12.295  17.830  0.00  0.00    +0.000 C 
ENDBRANCH  21  23
ENDBRANCH  18  19
ENDBRANCH  17  18
ENDBRANCH   4  17
TORSDOF 7
ENDMDL
MODEL 8
REMARK VINA RESULT:      -6.7      6.055      8.076
REMARK  Name = 
REMARK  7 active torsions:
REMARK  status: ('A' for Active; 'I' for Inactive)
REMARK    1  A    between atoms: C_2  and  C_3
REMARK    2  A    between atoms: C_8  and  C_9
REMARK    3  A    between atoms: C_9  and  N_10
REMARK    4  A    between atoms: N_13  and  C_14
REMARK    5  A    between atoms: C_14  and  C_15
REMARK    6  A    between atoms: C_15  and  C_16
REMARK    7  A    between atoms: N_18  and  C_19
REMARK                            x       y       z     vdW  Elec       q    Type
REMARK                         _______ _______ _______ _____ _____    ______ ____
ROOT
ATOM      1  N   UNL     1       8.144   9.084  18.287  0.00  0.00    +0.000 N 
ATOM      2  C   UNL     1       7.848   7.771  18.011  0.00  0.00    +0.000 C 
ATOM      3  O   UNL     1       8.372   6.818  18.572  0.00  0.00    +0.000 OA
ATOM      4  N   UNL     1       6.905   7.654  17.027  0.00  0.00    +0.000 N 
ATOM      5  H   UNL     1       7.993   9.723  17.520  0.00  0.00    +0.000 HD
ATOM      6  H   UNL     1       6.298   8.450  16.867  0.00  0.00    +0.000 HD
ENDROOT
BRANCH   1   7
ATOM      7  C   UNL     1       9.250   9.366  19.176  0.00  0.00    +0.000 C 
BRANCH   7  13
ATOM      8  C   UNL     1      10.882  12.622  18.003  0.00  0.00    +0.000 A 
ATOM      9  C   UNL     1      10.475  13.506  19.010  0.00  0.00    +0.000 A 
ATOM     10  C   UNL     1       9.691  13.042  20.067  0.00  0.00    +0.000 A 
ATOM     11  C   UNL     1       9.314  11.702  20.113  0.00  0.00    +0.000 A 
ATOM     12  F   UNL     1       8.557  11.284  21.136  0.00  0.00    +0.000 F 
ATOM     13  C   UNL     1       9.698  10.801  19.114  0.00  0.00    +0.000 A 
ATOM     14  C   UNL     1      10.496  11.273  18.058  0.00  0.00    +0.000 A 
BRANCH   8  16
ATOM     15  N   UNL     1      12.333  13.496  16.037  0.00  0.00    +0.000 NA
ATOM     16  C   UNL     1      11.686  13.102  16.913  0.00  0.00    +0.000 C 
ENDBRANCH   8  16
ENDBRANCH   7  13
ENDBRANCH   1   7
BRANCH   4  17
ATOM     17  C   UNL     1       6.372   6.366  16.611  0.00  0.00    +0.000 C 
BRANCH  17  18
ATOM     18  C   UNL     1       4.852   6.254  16.759  0.00  0.00    +0.000 C 
BRANCH  18  19
ATOM     19  C   UNL     1       4.473   5.228  17.806  0.00  0.00    +0.000 C 
ATOM     20  O   UNL     1       5.311   4.629  18.481  0.00  0.00    +0.000 OA
ATOM     21  N   UNL     1       3.114   5.019  17.946  0.00  0.00    +0.000 N 
ATOM     22  H   UNL     1       2.487   5.371  17.231  0.00  0.00    +0.000 HD
BRANCH  21  23
ATOM     23  C   UNL     1       2.637   4.013  18.870  0.00  0.00    +0.000 C 
ATOM     24  C   UNL     1       1.935   4.558  20.108  0.00  0.00    +0.000 C 
ATOM     25  C   UNL     1       1.297   3.301  20.698  0.00  0.00    +0.000 C 
ATOM     26  C   UNL     1       0.966   2.405  19.499  0.00  0.00    +0.000 C 
ATOM     27  C   UNL     1       1.568   3.100  18.277  0.00  0.00    +0.000 C 
ENDBRANCH  21  23
ENDBRANCH  18  19
ENDBRANCH  17  18
ENDBRANCH   4  17
TORSDOF 7
ENDMDL
MODEL 9
REMARK VINA RESULT:      -6.7      2.205      3.844
REMARK  Name = 
REMARK  7 active torsions:
REMARK  status: ('A' for Active; 'I' for Inactive)
REMARK    1  A    between atoms: C_2  and  C_3
REMARK    2  A    between atoms: C_8  and  C_9
REMARK    3  A    between atoms: C_9  and  N_10
REMARK    4  A    between atoms: N_13  and  C_14
REMARK    5  A    between atoms: C_14  and  C_15
REMARK    6  A    between atoms: C_15  and  C_16
REMARK    7  A    between atoms: N_18  and  C_19
REMARK                            x       y       z     vdW  Elec       q    Type
REMARK                         _______ _______ _______ _____ _____    ______ ____
ROOT
ATOM      1  N   UNL     1       4.200   7.845  17.777  0.00  0.00    +0.000 N 
ATOM      2  C   UNL     1       4.965   6.969  17.045  0.00  0.00    +0.000 C 
ATOM      3  O   UNL     1       4.557   6.354  16.070  0.00  0.00    +0.000 OA
ATOM      4  N   UNL     1       6.234   6.859  17.542  0.00  0.00    +0.000 N 
ATOM      5  H   UNL     1       4.479   7.948  18.743  0.00  0.00    +0.000 HD
ATOM      6  H   UNL     1       6.581   7.624  18.110  0.00  0.00    +0.000 HD
ENDROOT
BRANCH   1   7
ATOM      7  C   UNL     1       2.786   7.932  17.485  0.00  0.00    +0.000 C 
BRANCH   7  13
ATOM      8  C   UNL     1       0.393   9.955  19.681  0.00  0.00    +0.000 A 
ATOM      9  C   UNL     1       0.428   9.217  20.870  0.00  0.00    +0.000 A 
ATOM     10  C   UNL     1       1.235   8.082  20.960  0.00  0.00    +0.000 A 
ATOM     11  C   UNL     1       1.999   7.687  19.864  0.00  0.00    +0.000 A 
ATOM     12  F   UNL     1       2.761   6.592  19.975  0.00  0.00    +0.000 F 
ATOM     13  C   UNL     1       1.973   8.401  18.661  0.00  0.00    +0.000 A 
ATOM     14  C   UNL     1       1.165   9.549  18.581  0.00  0.00    +0.000 A 
BRANCH   8  16
ATOM     15  N   UNL     1      -1.117  12.060  19.520  0.00  0.00    +0.000 NA
ATOM     16  C   UNL     1      -0.443  11.121  19.587  0.00  0.00    +0.000 C 
ENDBRANCH   8  16
ENDBRANCH   7  13
ENDBRANCH   1   7
BRANCH   4  17
ATOM     17  C   UNL     1       7.254   6.049  16.894  0.00  0.00    +0.000 C 
BRANCH  17  18
ATOM     18  C   UNL     1       7.286   4.598  17.382  0.00  0.00    +0.000 C 
BRANCH  18  19
ATOM     19  C   UNL     1       6.084   4.278  18.246  0.00  0.00    +0.000 C 
ATOM     20  O   UNL     1       6.054   4.520  19.454  0.00  0.00    +0.000 OA
ATOM     21  N   UNL     1       5.025   3.698  17.575  0.00  0.00    +0.000 N 
ATOM     22  H   UNL     1       5.178   3.329  16.643  0.00  0.00    +0.000 HD
BRANCH  21  23
ATOM     23  C   UNL     1       3.849   3.289  18.312  0.00  0.00    +0.000 C 
ATOM     24  C   UNL     1       2.572   4.040  17.953  0.00  0.00    +0.000 C 
ATOM     25  C   UNL     1       1.498   3.199  18.640  0.00  0.00    +0.000 C 
ATOM     26  C   UNL     1       2.022   1.759  18.612  0.00  0.00    +0.000 C 
ATOM     27  C   UNL     1       3.445   1.841  18.058  0.00  0.00    +0.000 C 
ENDBRANCH  21  23
ENDBRANCH  18  19
ENDBRANCH  17  18
ENDBRANCH   4  17
TORSDOF 7
ENDMDL
