MODEL 1
REMARK VINA RESULT:      -7.6      0.000      0.000
REMARK  Name = 
REMARK  8 active torsions:
REMARK  status: ('A' for Active; 'I' for Inactive)
REMARK    1  A    between atoms: C_1  and  O_2
REMARK    2  A    between atoms: O_2  and  C_3
REMARK    3  A    between atoms: C_9  and  O_10
REMARK    4  A    between atoms: C_11  and  C_12
REMARK    5  A    between atoms: N_14  and  C_15
REMARK    6  A    between atoms: C_15  and  C_16
REMARK    7  A    between atoms: N_20  and  C_21
REMARK    8  A    between atoms: C_21  and  C_22
REMARK                            x       y       z     vdW  Elec       q    Type
REMARK                         _______ _______ _______ _____ _____    ______ ____
ROOT
ATOM      1  C   UNL     1       2.399   7.162  19.096  0.00  0.00    +0.000 C 
ATOM      2  O   UNL     1       2.458   7.375  20.309  0.00  0.00    +0.000 OA
ATOM      3  N   UNL     1       2.088   8.158  18.192  0.00  0.00    +0.000 N 
ATOM      4  H   UNL     1       2.329   7.998  17.216  0.00  0.00    +0.000 HD
ENDROOT
BRANCH   1  12
ATOM      5  C   UNL     1       3.644   5.651  17.470  0.00  0.00    +0.000 A 
ATOM      6  C   UNL     1       3.891   4.356  16.959  0.00  0.00    +0.000 A 
ATOM      7 CL   UNL     1       5.087   3.968  15.768  0.00  0.00    +0.000 Cl
ATOM      8  C   UNL     1       3.204   3.246  17.461  0.00  0.00    +0.000 A 
ATOM      9  C   UNL     1       2.299   3.399  18.499  0.00  0.00    +0.000 A 
ATOM     10 CL   UNL     1       1.499   2.002  19.122  0.00  0.00    +0.000 Cl
ATOM     11  C   UNL     1       2.051   4.661  19.041  0.00  0.00    +0.000 A 
ATOM     12  C   UNL     1       2.706   5.799  18.535  0.00  0.00    +0.000 A 
BRANCH   5  14
ATOM     13  C   UNL     1       5.733   6.854  17.367  0.00  0.00    +0.000 C 
ATOM     14  O   UNL     1       4.337   6.782  17.112  0.00  0.00    +0.000 OA
ENDBRANCH   5  14
BRANCH  11  15
ATOM     15  O   UNL     1       1.158   4.770  20.083  0.00  0.00    +0.000 OA
ATOM     16  H   UNL     1       0.328   5.149  19.732  0.00  0.00    +0.000 HD
ENDBRANCH  11  15
ENDBRANCH   1  12
BRANCH   3  17
ATOM     17  C   UNL     1       1.898   9.545  18.580  0.00  0.00    +0.000 C 
BRANCH  17  18
ATOM     18  C   UNL     1       0.514   9.775  19.245  0.00  0.00    +0.000 C 
ATOM     19  C   UNL     1       0.642  10.044  20.741  0.00  0.00    +0.000 C 
ATOM     20  C   UNL     1       0.914  11.533  20.820  0.00  0.00    +0.000 C 
ATOM     21  C   UNL     1       0.372  12.108  19.514  0.00  0.00    +0.000 C 
ATOM     22  N   UNL     1      -0.183  10.986  18.722  0.00  0.00    +0.000 NA
BRANCH  22  23
ATOM     23  C   UNL     1      -1.651  10.940  18.904  0.00  0.00    +0.000 C 
BRANCH  23  24
ATOM     24  C   UNL     1      -2.428  10.704  17.624  0.00  0.00    +0.000 A 
ATOM     25  C   UNL     1      -1.934   9.824  16.646  0.00  0.00    +0.000 A 
ATOM     26  C   UNL     1      -2.597   9.665  15.431  0.00  0.00    +0.000 A 
ATOM     27  C   UNL     1      -3.780  10.356  15.205  0.00  0.00    +0.000 A 
ATOM     28  F   UNL     1      -4.414  10.213  14.035  0.00  0.00    +0.000 F 
ATOM     29  C   UNL     1      -4.314  11.196  16.177  0.00  0.00    +0.000 A 
ATOM     30  C   UNL     1      -3.635  11.379  17.383  0.00  0.00    +0.000 A 
ENDBRANCH  23  24
ENDBRANCH  22  23
ENDBRANCH  17  18
ENDBRANCH   3  17
TORSDOF 7
ENDMDL
MODEL 2
REMARK VINA RESULT:      -7.3      4.050      6.051
REMARK  Name = 
REMARK  8 active torsions:
REMARK  status: ('A' for Active; 'I' for Inactive)
REMARK    1  A    between atoms: C_1  and  O_2
REMARK    2  A    between atoms: O_2  and  C_3
REMARK    3  A    between atoms: C_9  and  O_10
REMARK    4  A    between atoms: C_11  and  C_12
REMARK    5  A    between atoms: N_14  and  C_15
REMARK    6  A    between atoms: C_15  and  C_16
REMARK    7  A    between atoms: N_20  and  C_21
REMARK    8  A    between atoms: C_21  and  C_22
REMARK                            x       y       z     vdW  Elec       q    Type
REMARK                         _______ _______ _______ _____ _____    ______ ____
ROOT
ATOM      1  C   UNL     1       4.228   3.506  17.019  0.00  0.00    +0.000 C 
ATOM      2  O   UNL     1       4.447   2.332  17.326  0.00  0.00    +0.000 OA
ATOM      3  N   UNL     1       2.987   4.088  17.189  0.00  0.00    +0.000 N 
ATOM      4  H   UNL     1       2.942   5.105  17.188  0.00  0.00    +0.000 HD
ENDROOT
BRANCH   1  12
ATOM      5  C   UNL     1       5.828   5.472  17.241  0.00  0.00    +0.000 A 
ATOM      6  C   UNL     1       6.846   6.281  16.686  0.00  0.00    +0.000 A 
ATOM      7 CL   UNL     1       7.668   7.559  17.518  0.00  0.00    +0.000 Cl
ATOM      8  C   UNL     1       7.328   6.038  15.396  0.00  0.00    +0.000 A 
ATOM      9  C   UNL     1       6.838   4.971  14.660  0.00  0.00    +0.000 A 
ATOM     10 CL   UNL     1       7.484   4.675  13.086  0.00  0.00    +0.000 Cl
ATOM     11  C   UNL     1       5.850   4.140  15.189  0.00  0.00    +0.000 A 
ATOM     12  C   UNL     1       5.326   4.380  16.473  0.00  0.00    +0.000 A 
BRANCH   5  14
ATOM     13  C   UNL     1       6.218   5.216  19.609  0.00  0.00    +0.000 C 
ATOM     14  O   UNL     1       5.363   5.570  18.530  0.00  0.00    +0.000 OA
ENDBRANCH   5  14
BRANCH  11  15
ATOM     15  O   UNL     1       5.401   3.081  14.434  0.00  0.00    +0.000 OA
ATOM     16  H   UNL     1       4.793   2.551  14.986  0.00  0.00    +0.000 HD
ENDBRANCH  11  15
ENDBRANCH   1  12
BRANCH   3  17
ATOM     17  C   UNL     1       1.875   3.404  17.825  0.00  0.00    +0.000 C 
BRANCH  17  18
ATOM     18  C   UNL     1       1.393   4.145  19.101  0.00  0.00    +0.000 C 
ATOM     19  C   UNL     1       0.682   3.204  20.068  0.00  0.00    +0.000 C 
ATOM     20  C   UNL     1       1.812   2.585  20.868  0.00  0.00    +0.000 C 
ATOM     21  C   UNL     1       2.973   3.569  20.746  0.00  0.00    +0.000 C 
ATOM     22  N   UNL     1       2.519   4.702  19.905  0.00  0.00    +0.000 NA
BRANCH  22  23
ATOM     23  C   UNL     1       2.115   5.826  20.778  0.00  0.00    +0.000 C 
BRANCH  23  24
ATOM     24  C   UNL     1       1.880   7.130  20.041  0.00  0.00    +0.000 A 
ATOM     25  C   UNL     1       2.403   7.320  18.750  0.00  0.00    +0.000 A 
ATOM     26  C   UNL     1       2.265   8.544  18.099  0.00  0.00    +0.000 A 
ATOM     27  C   UNL     1       1.569   9.571  18.721  0.00  0.00    +0.000 A 
ATOM     28  F   UNL     1       1.444  10.751  18.102  0.00  0.00    +0.000 F 
ATOM     29  C   UNL     1       1.002   9.392  19.979  0.00  0.00    +0.000 A 
ATOM     30  C   UNL     1       1.164   8.176  20.644  0.00  0.00    +0.000 A 
ENDBRANCH  23  24
ENDBRANCH  22  23
ENDBRANCH  17  18
ENDBRANCH   3  17
TORSDOF 7
ENDMDL
MODEL 3
REMARK VINA RESULT:      -7.2      4.998      8.812
REMARK  Name = 
REMARK  8 active torsions:
REMARK  status: ('A' for Active; 'I' for Inactive)
REMARK    1  A    between atoms: C_1  and  O_2
REMARK    2  A    between atoms: O_2  and  C_3
REMARK    3  A    between atoms: C_9  and  O_10
REMARK    4  A    between atoms: C_11  and  C_12
REMARK    5  A    between atoms: N_14  and  C_15
REMARK    6  A    between atoms: C_15  and  C_16
REMARK    7  A    between atoms: N_20  and  C_21
REMARK    8  A    between atoms: C_21  and  C_22
REMARK                            x       y       z     vdW  Elec       q    Type
REMARK                         _______ _______ _______ _____ _____    ______ ____
ROOT
ATOM      1  C   UNL     1       0.982   9.639  18.346  0.00  0.00    +0.000 C 
ATOM      2  O   UNL     1       0.042   9.395  17.587  0.00  0.00    +0.000 OA
ATOM      3  N   UNL     1       2.064   8.790  18.471  0.00  0.00    +0.000 N 
ATOM      4  H   UNL     1       2.914   9.170  18.880  0.00  0.00    +0.000 HD
ENDROOT
BRANCH   1  12
ATOM      5  C   UNL     1       0.205  11.045  20.320  0.00  0.00    +0.000 A 
ATOM      6  C   UNL     1       0.248  12.262  21.039  0.00  0.00    +0.000 A 
ATOM      7 CL   UNL     1      -0.553  12.557  22.546  0.00  0.00    +0.000 Cl
ATOM      8  C   UNL     1       1.039  13.326  20.596  0.00  0.00    +0.000 A 
ATOM      9  C   UNL     1       1.825  13.185  19.463  0.00  0.00    +0.000 A 
ATOM     10 CL   UNL     1       2.820  14.505  18.966  0.00  0.00    +0.000 Cl
ATOM     11  C   UNL     1       1.822  11.988  18.745  0.00  0.00    +0.000 A 
ATOM     12  C   UNL     1       1.013  10.911  19.153  0.00  0.00    +0.000 A 
BRANCH   5  14
ATOM     13  C   UNL     1       0.083   9.129  21.782  0.00  0.00    +0.000 C 
ATOM     14  O   UNL     1      -0.460   9.915  20.730  0.00  0.00    +0.000 OA
ENDBRANCH   5  14
BRANCH  11  15
ATOM     15  O   UNL     1       2.629  11.880  17.635  0.00  0.00    +0.000 OA
ATOM     16  H   UNL     1       3.247  12.638  17.635  0.00  0.00    +0.000 HD
ENDBRANCH  11  15
ENDBRANCH   1  12
BRANCH   3  17
ATOM     17  C   UNL     1       2.228   7.597  17.658  0.00  0.00    +0.000 C 
BRANCH  17  18
ATOM     18  C   UNL     1       3.169   6.563  18.332  0.00  0.00    +0.000 C 
ATOM     19  C   UNL     1       2.625   6.094  19.677  0.00  0.00    +0.000 C 
ATOM     20  C   UNL     1       1.673   4.971  19.312  0.00  0.00    +0.000 C 
ATOM     21  C   UNL     1       2.137   4.485  17.941  0.00  0.00    +0.000 C 
ATOM     22  N   UNL     1       3.305   5.305  17.542  0.00  0.00    +0.000 NA
BRANCH  22  23
ATOM     23  C   UNL     1       4.548   4.559  17.839  0.00  0.00    +0.000 C 
BRANCH  23  24
ATOM     24  C   UNL     1       5.769   5.437  18.026  0.00  0.00    +0.000 A 
ATOM     25  C   UNL     1       6.628   5.234  19.120  0.00  0.00    +0.000 A 
ATOM     26  C   UNL     1       7.705   6.089  19.349  0.00  0.00    +0.000 A 
ATOM     27  C   UNL     1       7.950   7.126  18.460  0.00  0.00    +0.000 A 
ATOM     28  F   UNL     1       8.978   7.955  18.681  0.00  0.00    +0.000 F 
ATOM     29  C   UNL     1       7.143   7.318  17.343  0.00  0.00    +0.000 A 
ATOM     30  C   UNL     1       6.046   6.481  17.130  0.00  0.00    +0.000 A 
ENDBRANCH  23  24
ENDBRANCH  22  23
ENDBRANCH  17  18
ENDBRANCH   3  17
TORSDOF 7
ENDMDL
MODEL 4
REMARK VINA RESULT:      -7.1      4.175      6.064
REMARK  Name = 
REMARK  8 active torsions:
REMARK  status: ('A' for Active; 'I' for Inactive)
REMARK    1  A    between atoms: C_1  and  O_2
REMARK    2  A    between atoms: O_2  and  C_3
REMARK    3  A    between atoms: C_9  and  O_10
REMARK    4  A    between atoms: C_11  and  C_12
REMARK    5  A    between atoms: N_14  and  C_15
REMARK    6  A    between atoms: C_15  and  C_16
REMARK    7  A    between atoms: N_20  and  C_21
REMARK    8  A    between atoms: C_21  and  C_22
REMARK                            x       y       z     vdW  Elec       q    Type
REMARK                         _______ _______ _______ _____ _____    ______ ____
ROOT
ATOM      1  C   UNL     1       4.765   3.622  18.304  0.00  0.00    +0.000 C 
ATOM      2  O   UNL     1       5.083   2.923  19.268  0.00  0.00    +0.000 OA
ATOM      3  N   UNL     1       3.474   3.655  17.816  0.00  0.00    +0.000 N 
ATOM      4  H   UNL     1       3.216   4.441  17.223  0.00  0.00    +0.000 HD
ENDROOT
BRANCH   1  12
ATOM      5  C   UNL     1       6.077   4.348  16.247  0.00  0.00    +0.000 A 
ATOM      6  C   UNL     1       7.044   5.194  15.657  0.00  0.00    +0.000 A 
ATOM      7 CL   UNL     1       7.440   5.230  13.971  0.00  0.00    +0.000 Cl
ATOM      8  C   UNL     1       7.719   6.150  16.421  0.00  0.00    +0.000 A 
ATOM      9  C   UNL     1       7.415   6.308  17.764  0.00  0.00    +0.000 A 
ATOM     10 CL   UNL     1       8.238   7.526  18.669  0.00  0.00    +0.000 Cl
ATOM     11  C   UNL     1       6.448   5.505  18.370  0.00  0.00    +0.000 A 
ATOM     12  C   UNL     1       5.775   4.515  17.631  0.00  0.00    +0.000 A 
BRANCH   5  14
ATOM     13  C   UNL     1       4.848   3.776  14.250  0.00  0.00    +0.000 C 
ATOM     14  O   UNL     1       5.295   3.452  15.560  0.00  0.00    +0.000 OA
ENDBRANCH   5  14
BRANCH  11  15
ATOM     15  O   UNL     1       6.162   5.704  19.702  0.00  0.00    +0.000 OA
ATOM     16  H   UNL     1       5.548   4.999  19.988  0.00  0.00    +0.000 HD
ENDBRANCH  11  15
ENDBRANCH   1  12
BRANCH   3  17
ATOM     17  C   UNL     1       2.374   2.948  18.448  0.00  0.00    +0.000 C 
BRANCH  17  18
ATOM     18  C   UNL     1       1.527   3.885  19.351  0.00  0.00    +0.000 C 
ATOM     19  C   UNL     1       0.526   3.104  20.196  0.00  0.00    +0.000 C 
ATOM     20  C   UNL     1       1.329   2.679  21.410  0.00  0.00    +0.000 C 
ATOM     21  C   UNL     1       2.489   3.668  21.487  0.00  0.00    +0.000 C 
ATOM     22  N   UNL     1       2.351   4.616  20.357  0.00  0.00    +0.000 NA
BRANCH  22  23
ATOM     23  C   UNL     1       1.715   5.862  20.840  0.00  0.00    +0.000 C 
BRANCH  23  24
ATOM     24  C   UNL     1       1.900   7.051  19.918  0.00  0.00    +0.000 A 
ATOM     25  C   UNL     1       1.252   8.268  20.191  0.00  0.00    +0.000 A 
ATOM     26  C   UNL     1       1.347   9.340  19.306  0.00  0.00    +0.000 A 
ATOM     27  C   UNL     1       2.124   9.212  18.163  0.00  0.00    +0.000 A 
ATOM     28  F   UNL     1       2.210  10.236  17.306  0.00  0.00    +0.000 F 
ATOM     29  C   UNL     1       2.814   8.033  17.895  0.00  0.00    +0.000 A 
ATOM     30  C   UNL     1       2.695   6.949  18.766  0.00  0.00    +0.000 A 
ENDBRANCH  23  24
ENDBRANCH  22  23
ENDBRANCH  17  18
ENDBRANCH   3  17
TORSDOF 7
ENDMDL
MODEL 5
REMARK VINA RESULT:      -7.1      4.961      8.743
REMARK  Name = 
REMARK  8 active torsions:
REMARK  status: ('A' for Active; 'I' for Inactive)
REMARK    1  A    between atoms: C_1  and  O_2
REMARK    2  A    between atoms: O_2  and  C_3
REMARK    3  A    between atoms: C_9  and  O_10
REMARK    4  A    between atoms: C_11  and  C_12
REMARK    5  A    between atoms: N_14  and  C_15
REMARK    6  A    between atoms: C_15  and  C_16
REMARK    7  A    between atoms: N_20  and  C_21
REMARK    8  A    between atoms: C_21  and  C_22
REMARK                            x       y       z     vdW  Elec       q    Type
REMARK                         _______ _______ _______ _____ _____    ______ ____
ROOT
ATOM      1  C   UNL     1       0.854   9.806  18.502  0.00  0.00    +0.000 C 
ATOM      2  O   UNL     1      -0.100   9.568  17.758  0.00  0.00    +0.000 OA
ATOM      3  N   UNL     1       1.835   8.867  18.758  0.00  0.00    +0.000 N 
ATOM      4  H   UNL     1       2.719   9.203  19.135  0.00  0.00    +0.000 HD
ENDROOT
BRANCH   1  12
ATOM      5  C   UNL     1       0.251  11.513  20.290  0.00  0.00    +0.000 A 
ATOM      6  C   UNL     1       0.420  12.800  20.849  0.00  0.00    +0.000 A 
ATOM      7 CL   UNL     1      -0.318  13.354  22.315  0.00  0.00    +0.000 Cl
ATOM      8  C   UNL     1       1.294  13.723  20.267  0.00  0.00    +0.000 A 
ATOM      9  C   UNL     1       2.038  13.370  19.153  0.00  0.00    +0.000 A 
ATOM     10 CL   UNL     1       3.138  14.519  18.483  0.00  0.00    +0.000 Cl
ATOM     11  C   UNL     1       1.912  12.098  18.592  0.00  0.00    +0.000 A 
ATOM     12  C   UNL     1       1.018  11.160  19.141  0.00  0.00    +0.000 A 
BRANCH   5  14
ATOM     13  C   UNL     1      -0.025   9.832  22.000  0.00  0.00    +0.000 C 
ATOM     14  O   UNL     1      -0.505  10.509  20.846  0.00  0.00    +0.000 OA
ENDBRANCH   5  14
BRANCH  11  15
ATOM     15  O   UNL     1       2.681  11.778  17.496  0.00  0.00    +0.000 OA
ATOM     16  H   UNL     1       3.205  10.982  17.715  0.00  0.00    +0.000 HD
ENDBRANCH  11  15
ENDBRANCH   1  12
BRANCH   3  17
ATOM     17  C   UNL     1       1.874   7.569  18.107  0.00  0.00    +0.000 C 
BRANCH  17  18
ATOM     18  C   UNL     1       2.882   6.609  18.793  0.00  0.00    +0.000 C 
ATOM     19  C   UNL     1       2.512   6.343  20.248  0.00  0.00    +0.000 C 
ATOM     20  C   UNL     1       1.507   5.211  20.166  0.00  0.00    +0.000 C 
ATOM     21  C   UNL     1       1.782   4.529  18.827  0.00  0.00    +0.000 C 
ATOM     22  N   UNL     1       2.899   5.251  18.174  0.00  0.00    +0.000 NA
BRANCH  22  23
ATOM     23  C   UNL     1       4.160   4.515  18.411  0.00  0.00    +0.000 C 
BRANCH  23  24
ATOM     24  C   UNL     1       5.130   4.554  17.247  0.00  0.00    +0.000 A 
ATOM     25  C   UNL     1       6.506   4.727  17.474  0.00  0.00    +0.000 A 
ATOM     26  C   UNL     1       7.395   4.849  16.408  0.00  0.00    +0.000 A 
ATOM     27  C   UNL     1       6.915   4.758  15.109  0.00  0.00    +0.000 A 
ATOM     28  F   UNL     1       7.764   4.884  14.082  0.00  0.00    +0.000 F 
ATOM     29  C   UNL     1       5.564   4.540  14.858  0.00  0.00    +0.000 A 
ATOM     30  C   UNL     1       4.669   4.447  15.925  0.00  0.00    +0.000 A 
ENDBRANCH  23  24
ENDBRANCH  22  23
ENDBRANCH  17  18
ENDBRANCH   3  17
TORSDOF 7
ENDMDL
MODEL 6
REMARK VINA RESULT:      -7.0      4.205      6.179
REMARK  Name = 
REMARK  8 active torsions:
REMARK  status: ('A' for Active; 'I' for Inactive)
REMARK    1  A    between atoms: C_1  and  O_2
REMARK    2  A    between atoms: O_2  and  C_3
REMARK    3  A    between atoms: C_9  and  O_10
REMARK    4  A    between atoms: C_11  and  C_12
REMARK    5  A    between atoms: N_14  and  C_15
REMARK    6  A    between atoms: C_15  and  C_16
REMARK    7  A    between atoms: N_20  and  C_21
REMARK    8  A    between atoms: C_21  and  C_22
REMARK                            x       y       z     vdW  Elec       q    Type
REMARK                         _______ _______ _______ _____ _____    ______ ____
ROOT
ATOM      1  C   UNL     1       4.691   3.479  17.956  0.00  0.00    +0.000 C 
ATOM      2  O   UNL     1       5.137   2.796  18.880  0.00  0.00    +0.000 OA
ATOM      3  N   UNL     1       3.347   3.499  17.642  0.00  0.00    +0.000 N 
ATOM      4  H   UNL     1       3.008   4.274  17.076  0.00  0.00    +0.000 HD
ENDROOT
BRANCH   1  12
ATOM      5  C   UNL     1       6.170   5.537  17.718  0.00  0.00    +0.000 A 
ATOM      6  C   UNL     1       7.000   6.352  16.915  0.00  0.00    +0.000 A 
ATOM      7 CL   UNL     1       7.885   7.731  17.476  0.00  0.00    +0.000 Cl
ATOM      8  C   UNL     1       7.229   6.035  15.572  0.00  0.00    +0.000 A 
ATOM      9  C   UNL     1       6.674   4.891  15.022  0.00  0.00    +0.000 A 
ATOM     10 CL   UNL     1       7.010   4.507  13.373  0.00  0.00    +0.000 Cl
ATOM     11  C   UNL     1       5.869   4.053  15.796  0.00  0.00    +0.000 A 
ATOM     12  C   UNL     1       5.598   4.364  17.142  0.00  0.00    +0.000 A 
BRANCH   5  14
ATOM     13  C   UNL     1       7.053   5.526  19.964  0.00  0.00    +0.000 C 
ATOM     14  O   UNL     1       5.967   5.710  19.065  0.00  0.00    +0.000 OA
ENDBRANCH   5  14
BRANCH  11  15
ATOM     15  O   UNL     1       5.349   2.917  15.219  0.00  0.00    +0.000 OA
ATOM     16  H   UNL     1       4.770   2.481  15.876  0.00  0.00    +0.000 HD
ENDBRANCH  11  15
ENDBRANCH   1  12
BRANCH   3  17
ATOM     17  C   UNL     1       2.343   2.798  18.425  0.00  0.00    +0.000 C 
BRANCH  17  18
ATOM     18  C   UNL     1       1.579   3.757  19.377  0.00  0.00    +0.000 C 
ATOM     19  C   UNL     1       0.618   3.002  20.288  0.00  0.00    +0.000 C 
ATOM     20  C   UNL     1       1.488   2.562  21.449  0.00  0.00    +0.000 C 
ATOM     21  C   UNL     1       2.673   3.525  21.447  0.00  0.00    +0.000 C 
ATOM     22  N   UNL     1       2.483   4.472  20.323  0.00  0.00    +0.000 NA
BRANCH  22  23
ATOM     23  C   UNL     1       1.909   5.734  20.841  0.00  0.00    +0.000 C 
BRANCH  23  24
ATOM     24  C   UNL     1       2.046   6.911  19.897  0.00  0.00    +0.000 A 
ATOM     25  C   UNL     1       1.417   8.134  20.191  0.00  0.00    +0.000 A 
ATOM     26  C   UNL     1       1.466   9.195  19.290  0.00  0.00    +0.000 A 
ATOM     27  C   UNL     1       2.179   9.051  18.107  0.00  0.00    +0.000 A 
ATOM     28  F   UNL     1       2.220  10.065  17.234  0.00  0.00    +0.000 F 
ATOM     29  C   UNL     1       2.849   7.867  17.815  0.00  0.00    +0.000 A 
ATOM     30  C   UNL     1       2.775   6.793  18.704  0.00  0.00    +0.000 A 
ENDBRANCH  23  24
ENDBRANCH  22  23
ENDBRANCH  17  18
ENDBRANCH   3  17
TORSDOF 7
ENDMDL
MODEL 7
REMARK VINA RESULT:      -7.0      1.006      2.563
REMARK  Name = 
REMARK  8 active torsions:
REMARK  status: ('A' for Active; 'I' for Inactive)
REMARK    1  A    between atoms: C_1  and  O_2
REMARK    2  A    between atoms: O_2  and  C_3
REMARK    3  A    between atoms: C_9  and  O_10
REMARK    4  A    between atoms: C_11  and  C_12
REMARK    5  A    between atoms: N_14  and  C_15
REMARK    6  A    between atoms: C_15  and  C_16
REMARK    7  A    between atoms: N_20  and  C_21
REMARK    8  A    between atoms: C_21  and  C_22
REMARK                            x       y       z     vdW  Elec       q    Type
REMARK                         _______ _______ _______ _____ _____    ______ ____
ROOT
ATOM      1  C   UNL     1       3.559   7.443  17.775  0.00  0.00    +0.000 C 
ATOM      2  O   UNL     1       4.514   8.220  17.826  0.00  0.00    +0.000 OA
ATOM      3  N   UNL     1       2.256   7.872  17.936  0.00  0.00    +0.000 N 
ATOM      4  H   UNL     1       1.515   7.256  17.608  0.00  0.00    +0.000 HD
ENDROOT
BRANCH   1  12
ATOM      5  C   UNL     1       3.046   4.991  18.225  0.00  0.00    +0.000 A 
ATOM      6  C   UNL     1       3.285   3.627  17.941  0.00  0.00    +0.000 A 
ATOM      7 CL   UNL     1       2.410   2.299  18.629  0.00  0.00    +0.000 Cl
ATOM      8  C   UNL     1       4.235   3.250  16.987  0.00  0.00    +0.000 A 
ATOM      9  C   UNL     1       4.927   4.217  16.275  0.00  0.00    +0.000 A 
ATOM     10 CL   UNL     1       6.064   3.719  15.075  0.00  0.00    +0.000 Cl
ATOM     11  C   UNL     1       4.697   5.573  16.515  0.00  0.00    +0.000 A 
ATOM     12  C   UNL     1       3.768   5.979  17.491  0.00  0.00    +0.000 A 
BRANCH   5  14
ATOM     13  C   UNL     1       2.198   5.251  20.469  0.00  0.00    +0.000 C 
ATOM     14  O   UNL     1       2.068   5.458  19.069  0.00  0.00    +0.000 OA
ENDBRANCH   5  14
BRANCH  11  15
ATOM     15  O   UNL     1       5.392   6.503  15.776  0.00  0.00    +0.000 OA
ATOM     16  H   UNL     1       5.154   7.392  16.107  0.00  0.00    +0.000 HD
ENDBRANCH  11  15
ENDBRANCH   1  12
BRANCH   3  17
ATOM     17  C   UNL     1       1.899   9.273  18.084  0.00  0.00    +0.000 C 
BRANCH  17  18
ATOM     18  C   UNL     1       0.565   9.451  18.858  0.00  0.00    +0.000 C 
ATOM     19  C   UNL     1       0.756   9.294  20.362  0.00  0.00    +0.000 C 
ATOM     20  C   UNL     1       1.191  10.673  20.818  0.00  0.00    +0.000 C 
ATOM     21  C   UNL     1       0.683  11.628  19.741  0.00  0.00    +0.000 C 
ATOM     22  N   UNL     1      -0.010  10.820  18.710  0.00  0.00    +0.000 NA
BRANCH  22  23
ATOM     23  C   UNL     1      -1.469  10.871  18.950  0.00  0.00    +0.000 C 
BRANCH  23  24
ATOM     24  C   UNL     1      -2.310  10.676  17.704  0.00  0.00    +0.000 A 
ATOM     25  C   UNL     1      -1.908   9.764  16.713  0.00  0.00    +0.000 A 
ATOM     26  C   UNL     1      -2.629   9.639  15.526  0.00  0.00    +0.000 A 
ATOM     27  C   UNL     1      -3.776  10.398  15.344  0.00  0.00    +0.000 A 
ATOM     28  F   UNL     1      -4.465  10.287  14.201  0.00  0.00    +0.000 F 
ATOM     29  C   UNL     1      -4.220  11.273  16.330  0.00  0.00    +0.000 A 
ATOM     30  C   UNL     1      -3.483  11.420  17.507  0.00  0.00    +0.000 A 
ENDBRANCH  23  24
ENDBRANCH  22  23
ENDBRANCH  17  18
ENDBRANCH   3  17
TORSDOF 7
ENDMDL
MODEL 8
REMARK VINA RESULT:      -6.9      1.044      1.515
REMARK  Name = 
REMARK  8 active torsions:
REMARK  status: ('A' for Active; 'I' for Inactive)
REMARK    1  A    between atoms: C_1  and  O_2
REMARK    2  A    between atoms: O_2  and  C_3
REMARK    3  A    between atoms: C_9  and  O_10
REMARK    4  A    between atoms: C_11  and  C_12
REMARK    5  A    between atoms: N_14  and  C_15
REMARK    6  A    between atoms: C_15  and  C_16
REMARK    7  A    between atoms: N_20  and  C_21
REMARK    8  A    between atoms: C_21  and  C_22
REMARK                            x       y       z     vdW  Elec       q    Type
REMARK                         _______ _______ _______ _____ _____    ______ ____
ROOT
ATOM      1  C   UNL     1       2.524   7.162  18.755  0.00  0.00    +0.000 C 
ATOM      2  O   UNL     1       2.516   7.451  19.954  0.00  0.00    +0.000 OA
ATOM      3  N   UNL     1       2.197   8.081  17.778  0.00  0.00    +0.000 N 
ATOM      4  H   UNL     1       2.490   7.877  16.825  0.00  0.00    +0.000 HD
ENDROOT
BRANCH   1  12
ATOM      5  C   UNL     1       3.933   5.630  17.291  0.00  0.00    +0.000 A 
ATOM      6  C   UNL     1       4.275   4.324  16.872  0.00  0.00    +0.000 A 
ATOM      7 CL   UNL     1       5.554   3.934  15.771  0.00  0.00    +0.000 Cl
ATOM      8  C   UNL     1       3.620   3.209  17.404  0.00  0.00    +0.000 A 
ATOM      9  C   UNL     1       2.652   3.371  18.382  0.00  0.00    +0.000 A 
ATOM     10 CL   UNL     1       1.893   1.971  19.047  0.00  0.00    +0.000 Cl
ATOM     11  C   UNL     1       2.310   4.647  18.834  0.00  0.00    +0.000 A 
ATOM     12  C   UNL     1       2.932   5.788  18.295  0.00  0.00    +0.000 A 
BRANCH   5  14
ATOM     13  C   UNL     1       5.948   6.958  17.262  0.00  0.00    +0.000 C 
ATOM     14  O   UNL     1       4.585   6.775  16.901  0.00  0.00    +0.000 OA
ENDBRANCH   5  14
BRANCH  11  15
ATOM     15  O   UNL     1       1.356   4.766  19.819  0.00  0.00    +0.000 OA
ATOM     16  H   UNL     1       1.685   4.307  20.617  0.00  0.00    +0.000 HD
ENDBRANCH  11  15
ENDBRANCH   1  12
BRANCH   3  17
ATOM     17  C   UNL     1       1.912   9.476  18.069  0.00  0.00    +0.000 C 
BRANCH  17  18
ATOM     18  C   UNL     1       0.669   9.633  18.985  0.00  0.00    +0.000 C 
ATOM     19  C   UNL     1       0.976  10.476  20.218  0.00  0.00    +0.000 C 
ATOM     20  C   UNL     1       0.788  11.902  19.738  0.00  0.00    +0.000 C 
ATOM     21  C   UNL     1      -0.132  11.796  18.523  0.00  0.00    +0.000 C 
ATOM     22  N   UNL     1      -0.449  10.363  18.321  0.00  0.00    +0.000 NA
BRANCH  22  23
ATOM     23  C   UNL     1      -1.773  10.069  18.911  0.00  0.00    +0.000 C 
BRANCH  23  24
ATOM     24  C   UNL     1      -2.926  10.788  18.240  0.00  0.00    +0.000 A 
ATOM     25  C   UNL     1      -3.742  11.664  18.976  0.00  0.00    +0.000 A 
ATOM     26  C   UNL     1      -4.854  12.264  18.390  0.00  0.00    +0.000 A 
ATOM     27  C   UNL     1      -5.133  12.021  17.052  0.00  0.00    +0.000 A 
ATOM     28  F   UNL     1      -6.206  12.588  16.488  0.00  0.00    +0.000 F 
ATOM     29  C   UNL     1      -4.313  11.194  16.289  0.00  0.00    +0.000 A 
ATOM     30  C   UNL     1      -3.216  10.569  16.884  0.00  0.00    +0.000 A 
ENDBRANCH  23  24
ENDBRANCH  22  23
ENDBRANCH  17  18
ENDBRANCH   3  17
TORSDOF 7
ENDMDL
MODEL 9
REMARK VINA RESULT:      -6.9      4.521      8.018
REMARK  Name = 
REMARK  8 active torsions:
REMARK  status: ('A' for Active; 'I' for Inactive)
REMARK    1  A    between atoms: C_1  and  O_2
REMARK    2  A    between atoms: O_2  and  C_3
REMARK    3  A    between atoms: C_9  and  O_10
REMARK    4  A    between atoms: C_11  and  C_12
REMARK    5  A    between atoms: N_14  and  C_15
REMARK    6  A    between atoms: C_15  and  C_16
REMARK    7  A    between atoms: N_20  and  C_21
REMARK    8  A    between atoms: C_21  and  C_22
REMARK                            x       y       z     vdW  Elec       q    Type
REMARK                         _______ _______ _______ _____ _____    ______ ____
ROOT
ATOM      1  C   UNL     1       0.216   8.513  21.299  0.00  0.00    +0.000 C 
ATOM      2  O   UNL     1      -0.838   8.062  21.753  0.00  0.00    +0.000 OA
ATOM      3  N   UNL     1       1.278   7.697  20.964  0.00  0.00    +0.000 N 
ATOM      4  H   UNL     1       1.989   8.081  20.345  0.00  0.00    +0.000 HD
ENDROOT
BRANCH   1  12
ATOM      5  C   UNL     1       1.131  10.451  19.926  0.00  0.00    +0.000 A 
ATOM      6  C   UNL     1       1.278  11.844  19.735  0.00  0.00    +0.000 A 
ATOM      7 CL   UNL     1       2.035  12.588  18.366  0.00  0.00    +0.000 Cl
ATOM      8  C   UNL     1       0.728  12.752  20.645  0.00  0.00    +0.000 A 
ATOM      9  C   UNL     1      -0.005  12.294  21.728  0.00  0.00    +0.000 A 
ATOM     10 CL   UNL     1      -0.705  13.443  22.810  0.00  0.00    +0.000 Cl
ATOM     11  C   UNL     1      -0.188  10.925  21.931  0.00  0.00    +0.000 A 
ATOM     12  C   UNL     1       0.380   9.989  21.047  0.00  0.00    +0.000 A 
BRANCH   5  14
ATOM     13  C   UNL     1       0.904   9.380  17.775  0.00  0.00    +0.000 C 
ATOM     14  O   UNL     1       1.548   9.489  19.038  0.00  0.00    +0.000 OA
ENDBRANCH   5  14
BRANCH  11  15
ATOM     15  O   UNL     1      -0.936  10.509  23.009  0.00  0.00    +0.000 OA
ATOM     16  H   UNL     1      -1.452  11.275  23.333  0.00  0.00    +0.000 HD
ENDBRANCH  11  15
ENDBRANCH   1  12
BRANCH   3  17
ATOM     17  C   UNL     1       1.211   6.247  21.031  0.00  0.00    +0.000 C 
BRANCH  17  18
ATOM     18  C   UNL     1       2.562   5.587  20.642  0.00  0.00    +0.000 C 
ATOM     19  C   UNL     1       2.472   4.065  20.653  0.00  0.00    +0.000 C 
ATOM     20  C   UNL     1       1.924   3.724  19.281  0.00  0.00    +0.000 C 
ATOM     21  C   UNL     1       2.269   4.925  18.404  0.00  0.00    +0.000 C 
ATOM     22  N   UNL     1       2.983   5.912  19.248  0.00  0.00    +0.000 NA
BRANCH  22  23
ATOM     23  C   UNL     1       4.440   5.777  19.031  0.00  0.00    +0.000 C 
BRANCH  23  24
ATOM     24  C   UNL     1       4.827   5.451  17.602  0.00  0.00    +0.000 A 
ATOM     25  C   UNL     1       5.160   4.135  17.239  0.00  0.00    +0.000 A 
ATOM     26  C   UNL     1       5.598   3.840  15.949  0.00  0.00    +0.000 A 
ATOM     27  C   UNL     1       5.666   4.856  15.006  0.00  0.00    +0.000 A 
ATOM     28  F   UNL     1       6.096   4.579  13.769  0.00  0.00    +0.000 F 
ATOM     29  C   UNL     1       5.297   6.158  15.327  0.00  0.00    +0.000 A 
ATOM     30  C   UNL     1       4.886   6.459  16.627  0.00  0.00    +0.000 A 
ENDBRANCH  23  24
ENDBRANCH  22  23
ENDBRANCH  17  18
ENDBRANCH   3  17
TORSDOF 7
ENDMDL
