MODEL 1
REMARK VINA RESULT:      -7.7      0.000      0.000
REMARK  Name = 
REMARK  11 active torsions:
REMARK  status: ('A' for Active; 'I' for Inactive)
REMARK    1  A    between atoms: C_1  and  C_2
REMARK    2  A    between atoms: C_2  and  C_3
REMARK    3  A    between atoms: C_2  and  N_11
REMARK    4  A    between atoms: C_3  and  C_4
REMARK    5  A    between atoms: C_4  and  C_5
REMARK    6  A    between atoms: N_11  and  C_12
REMARK    7  A    between atoms: C_12  and  C_13
REMARK    8  A    between atoms: C_13  and  O_14
REMARK    9  A    between atoms: C_13  and  C_15
REMARK   10  A    between atoms: C_18  and  O_19
REMARK   11  A    between atoms: C_20  and  C_21
REMARK                            x       y       z     vdW  Elec       q    Type
REMARK                         _______ _______ _______ _____ _____    ______ ____
ROOT
ATOM      1  C   UNL     1       3.825   2.496  19.086  0.00  0.00    +0.000 C 
ENDROOT
BRANCH   1   2
ATOM      2  C   UNL     1       4.536   3.605  18.318  0.00  0.00    +0.000 A 
ATOM      3  C   UNL     1       4.139   3.960  17.026  0.00  0.00    +0.000 A 
ATOM      4  C   UNL     1       4.822   4.964  16.319  0.00  0.00    +0.000 A 
ATOM      5  C   UNL     1       5.907   5.624  16.904  0.00  0.00    +0.000 A 
ATOM      6  C   UNL     1       6.325   5.290  18.198  0.00  0.00    +0.000 A 
ATOM      7  C   UNL     1       5.626   4.288  18.892  0.00  0.00    +0.000 A 
BRANCH   6   8
ATOM      8  C   UNL     1       7.471   5.933  18.915  0.00  0.00    +0.000 C 
ATOM      9  N   UNL     1       7.895   5.363  20.065  0.00  0.00    +0.000 N 
ATOM     10  O   UNL     1       8.003   6.948  18.465  0.00  0.00    +0.000 OA
ATOM     11  H   UNL     1       7.444   4.520  20.422  0.00  0.00    +0.000 HD
ATOM     12  H   UNL     1       8.655   5.782  20.572  0.00  0.00    +0.000 HD
ENDBRANCH   6   8
BRANCH   5  13
ATOM     13  O   UNL     1       6.551   6.593  16.181  0.00  0.00    +0.000 OA
ATOM     14  H   UNL     1       5.891   7.099  15.675  0.00  0.00    +0.000 HD
ENDBRANCH   5  13
ENDBRANCH   1   2
BRANCH   1  15
ATOM     15  O   UNL     1       4.429   1.234  18.773  0.00  0.00    +0.000 OA
ATOM     16  H   UNL     1       4.120   0.965  17.891  0.00  0.00    +0.000 HD
ENDBRANCH   1  15
BRANCH   1  17
ATOM     17  C   UNL     1       2.317   2.437  18.730  0.00  0.00    +0.000 C 
BRANCH  17  18
ATOM     18  N   UNL     1       1.433   2.088  19.861  0.00  0.00    +0.000 NA
ATOM     19  H   UNL     1       0.555   1.723  19.482  0.00  0.00    +0.000 HD
BRANCH  18  21
ATOM     20  C   UNL     1       2.135   3.287  21.912  0.00  0.00    +0.000 C 
ATOM     21  C   UNL     1       1.157   3.252  20.722  0.00  0.00    +0.000 C 
BRANCH  21  22
ATOM     22  C   UNL     1       1.278   4.564  19.910  0.00  0.00    +0.000 C 
BRANCH  22  23
ATOM     23  C   UNL     1       2.210   5.624  20.521  0.00  0.00    +0.000 C 
BRANCH  23  24
ATOM     24  C   UNL     1       2.123   6.936  19.766  0.00  0.00    +0.000 A 
ATOM     25  C   UNL     1       1.475   8.044  20.332  0.00  0.00    +0.000 A 
ATOM     26  C   UNL     1       1.360   9.240  19.619  0.00  0.00    +0.000 A 
ATOM     27  C   UNL     1       1.881   9.340  18.330  0.00  0.00    +0.000 A 
ATOM     28  C   UNL     1       2.530   8.248  17.758  0.00  0.00    +0.000 A 
ATOM     29  C   UNL     1       2.654   7.053  18.473  0.00  0.00    +0.000 A 
ENDBRANCH  23  24
ENDBRANCH  22  23
ENDBRANCH  21  22
ENDBRANCH  18  21
ENDBRANCH  17  18
ENDBRANCH   1  17
TORSDOF 10
ENDMDL
MODEL 2
REMARK VINA RESULT:      -7.6      1.197      1.314
REMARK  Name = 
REMARK  11 active torsions:
REMARK  status: ('A' for Active; 'I' for Inactive)
REMARK    1  A    between atoms: C_1  and  C_2
REMARK    2  A    between atoms: C_2  and  C_3
REMARK    3  A    between atoms: C_2  and  N_11
REMARK    4  A    between atoms: C_3  and  C_4
REMARK    5  A    between atoms: C_4  and  C_5
REMARK    6  A    between atoms: N_11  and  C_12
REMARK    7  A    between atoms: C_12  and  C_13
REMARK    8  A    between atoms: C_13  and  O_14
REMARK    9  A    between atoms: C_13  and  C_15
REMARK   10  A    between atoms: C_18  and  O_19
REMARK   11  A    between atoms: C_20  and  C_21
REMARK                            x       y       z     vdW  Elec       q    Type
REMARK                         _______ _______ _______ _____ _____    ______ ____
ROOT
ATOM      1  C   UNL     1       4.315   3.102  19.526  0.00  0.00    +0.000 C 
ENDROOT
BRANCH   1   2
ATOM      2  C   UNL     1       4.933   3.857  18.355  0.00  0.00    +0.000 A 
ATOM      3  C   UNL     1       4.618   3.529  17.034  0.00  0.00    +0.000 A 
ATOM      4  C   UNL     1       5.216   4.215  15.964  0.00  0.00    +0.000 A 
ATOM      5  C   UNL     1       6.135   5.240  16.210  0.00  0.00    +0.000 A 
ATOM      6  C   UNL     1       6.468   5.592  17.524  0.00  0.00    +0.000 A 
ATOM      7  C   UNL     1       5.854   4.899  18.581  0.00  0.00    +0.000 A 
BRANCH   6   8
ATOM      8  C   UNL     1       7.436   6.671  17.897  0.00  0.00    +0.000 C 
ATOM      9  N   UNL     1       7.491   7.769  17.110  0.00  0.00    +0.000 N 
ATOM     10  O   UNL     1       8.156   6.554  18.889  0.00  0.00    +0.000 OA
ATOM     11  H   UNL     1       6.886   7.851  16.292  0.00  0.00    +0.000 HD
ATOM     12  H   UNL     1       8.142   8.502  17.331  0.00  0.00    +0.000 HD
ENDBRANCH   6   8
BRANCH   5  13
ATOM     13  O   UNL     1       6.702   5.881  15.141  0.00  0.00    +0.000 OA
ATOM     14  H   UNL     1       7.131   6.696  15.455  0.00  0.00    +0.000 HD
ENDBRANCH   5  13
ENDBRANCH   1   2
BRANCH   1  15
ATOM     15  O   UNL     1       5.118   1.953  19.832  0.00  0.00    +0.000 OA
ATOM     16  H   UNL     1       5.139   1.385  19.043  0.00  0.00    +0.000 HD
ENDBRANCH   1  15
BRANCH   1  17
ATOM     17  C   UNL     1       2.872   2.637  19.203  0.00  0.00    +0.000 C 
BRANCH  17  18
ATOM     18  N   UNL     1       1.922   3.734  18.926  0.00  0.00    +0.000 NA
ATOM     19  H   UNL     1       2.450   4.531  18.559  0.00  0.00    +0.000 HD
BRANCH  18  21
ATOM     20  C   UNL     1       1.280   3.050  21.218  0.00  0.00    +0.000 C 
ATOM     21  C   UNL     1       1.183   4.140  20.134  0.00  0.00    +0.000 C 
BRANCH  21  22
ATOM     22  C   UNL     1       1.744   5.474  20.686  0.00  0.00    +0.000 C 
BRANCH  22  23
ATOM     23  C   UNL     1       2.635   6.258  19.708  0.00  0.00    +0.000 C 
BRANCH  23  24
ATOM     24  C   UNL     1       2.077   7.642  19.442  0.00  0.00    +0.000 A 
ATOM     25  C   UNL     1       1.381   8.336  20.443  0.00  0.00    +0.000 A 
ATOM     26  C   UNL     1       0.831   9.594  20.185  0.00  0.00    +0.000 A 
ATOM     27  C   UNL     1       0.963  10.170  18.922  0.00  0.00    +0.000 A 
ATOM     28  C   UNL     1       1.655   9.493  17.920  0.00  0.00    +0.000 A 
ATOM     29  C   UNL     1       2.212   8.237  18.180  0.00  0.00    +0.000 A 
ENDBRANCH  23  24
ENDBRANCH  22  23
ENDBRANCH  21  22
ENDBRANCH  18  21
ENDBRANCH  17  18
ENDBRANCH   1  17
TORSDOF 10
ENDMDL
MODEL 3
REMARK VINA RESULT:      -7.5      1.901      2.565
REMARK  Name = 
REMARK  11 active torsions:
REMARK  status: ('A' for Active; 'I' for Inactive)
REMARK    1  A    between atoms: C_1  and  C_2
REMARK    2  A    between atoms: C_2  and  C_3
REMARK    3  A    between atoms: C_2  and  N_11
REMARK    4  A    between atoms: C_3  and  C_4
REMARK    5  A    between atoms: C_4  and  C_5
REMARK    6  A    between atoms: N_11  and  C_12
REMARK    7  A    between atoms: C_12  and  C_13
REMARK    8  A    between atoms: C_13  and  O_14
REMARK    9  A    between atoms: C_13  and  C_15
REMARK   10  A    between atoms: C_18  and  O_19
REMARK   11  A    between atoms: C_20  and  C_21
REMARK                            x       y       z     vdW  Elec       q    Type
REMARK                         _______ _______ _______ _____ _____    ______ ____
ROOT
ATOM      1  C   UNL     1       3.521   2.668  17.623  0.00  0.00    +0.000 C 
ENDROOT
BRANCH   1   2
ATOM      2  C   UNL     1       4.603   3.699  17.320  0.00  0.00    +0.000 A 
ATOM      3  C   UNL     1       4.980   4.654  18.267  0.00  0.00    +0.000 A 
ATOM      4  C   UNL     1       5.958   5.616  17.963  0.00  0.00    +0.000 A 
ATOM      5  C   UNL     1       6.569   5.626  16.706  0.00  0.00    +0.000 A 
ATOM      6  C   UNL     1       6.213   4.679  15.738  0.00  0.00    +0.000 A 
ATOM      7  C   UNL     1       5.238   3.721  16.062  0.00  0.00    +0.000 A 
BRANCH   6   8
ATOM      8  C   UNL     1       6.804   4.602  14.365  0.00  0.00    +0.000 C 
ATOM      9  N   UNL     1       6.436   3.567  13.577  0.00  0.00    +0.000 N 
ATOM     10  O   UNL     1       7.601   5.456  13.974  0.00  0.00    +0.000 OA
ATOM     11  H   UNL     1       5.772   2.869  13.915  0.00  0.00    +0.000 HD
ATOM     12  H   UNL     1       6.828   3.485  12.655  0.00  0.00    +0.000 HD
ENDBRANCH   6   8
BRANCH   5  13
ATOM     13  O   UNL     1       7.513   6.583  16.445  0.00  0.00    +0.000 OA
ATOM     14  H   UNL     1       7.979   6.800  17.271  0.00  0.00    +0.000 HD
ENDBRANCH   5  13
ENDBRANCH   1   2
BRANCH   1  15
ATOM     15  O   UNL     1       2.353   2.955  16.843  0.00  0.00    +0.000 OA
ATOM     16  H   UNL     1       2.200   3.914  16.876  0.00  0.00    +0.000 HD
ENDBRANCH   1  15
BRANCH   1  17
ATOM     17  C   UNL     1       3.139   2.674  19.125  0.00  0.00    +0.000 C 
BRANCH  17  18
ATOM     18  N   UNL     1       1.729   2.325  19.401  0.00  0.00    +0.000 NA
ATOM     19  H   UNL     1       1.158   2.656  18.619  0.00  0.00    +0.000 HD
BRANCH  18  21
ATOM     20  C   UNL     1       2.311   2.786  21.764  0.00  0.00    +0.000 C 
ATOM     21  C   UNL     1       1.249   2.927  20.657  0.00  0.00    +0.000 C 
BRANCH  21  22
ATOM     22  C   UNL     1       0.915   4.424  20.444  0.00  0.00    +0.000 C 
BRANCH  22  23
ATOM     23  C   UNL     1       2.068   5.396  20.742  0.00  0.00    +0.000 C 
BRANCH  23  24
ATOM     24  C   UNL     1       1.851   6.734  20.062  0.00  0.00    +0.000 A 
ATOM     25  C   UNL     1       2.215   6.922  18.721  0.00  0.00    +0.000 A 
ATOM     26  C   UNL     1       2.052   8.167  18.108  0.00  0.00    +0.000 A 
ATOM     27  C   UNL     1       1.532   9.240  18.830  0.00  0.00    +0.000 A 
ATOM     28  C   UNL     1       1.162   9.065  20.162  0.00  0.00    +0.000 A 
ATOM     29  C   UNL     1       1.318   7.818  20.774  0.00  0.00    +0.000 A 
ENDBRANCH  23  24
ENDBRANCH  22  23
ENDBRANCH  21  22
ENDBRANCH  18  21
ENDBRANCH  17  18
ENDBRANCH   1  17
TORSDOF 10
ENDMDL
MODEL 4
REMARK VINA RESULT:      -7.5      1.559      2.082
REMARK  Name = 
REMARK  11 active torsions:
REMARK  status: ('A' for Active; 'I' for Inactive)
REMARK    1  A    between atoms: C_1  and  C_2
REMARK    2  A    between atoms: C_2  and  C_3
REMARK    3  A    between atoms: C_2  and  N_11
REMARK    4  A    between atoms: C_3  and  C_4
REMARK    5  A    between atoms: C_4  and  C_5
REMARK    6  A    between atoms: N_11  and  C_12
REMARK    7  A    between atoms: C_12  and  C_13
REMARK    8  A    between atoms: C_13  and  O_14
REMARK    9  A    between atoms: C_13  and  C_15
REMARK   10  A    between atoms: C_18  and  O_19
REMARK   11  A    between atoms: C_20  and  C_21
REMARK                            x       y       z     vdW  Elec       q    Type
REMARK                         _______ _______ _______ _____ _____    ______ ____
ROOT
ATOM      1  C   UNL     1       3.070   2.493  17.746  0.00  0.00    +0.000 C 
ENDROOT
BRANCH   1   2
ATOM      2  C   UNL     1       4.184   3.520  17.920  0.00  0.00    +0.000 A 
ATOM      3  C   UNL     1       4.686   3.836  19.186  0.00  0.00    +0.000 A 
ATOM      4  C   UNL     1       5.692   4.805  19.333  0.00  0.00    +0.000 A 
ATOM      5  C   UNL     1       6.206   5.464  18.213  0.00  0.00    +0.000 A 
ATOM      6  C   UNL     1       5.724   5.166  16.933  0.00  0.00    +0.000 A 
ATOM      7  C   UNL     1       4.722   4.189  16.803  0.00  0.00    +0.000 A 
BRANCH   6   8
ATOM      8  C   UNL     1       6.204   5.811  15.670  0.00  0.00    +0.000 C 
ATOM      9  N   UNL     1       5.280   6.363  14.853  0.00  0.00    +0.000 N 
ATOM     10  O   UNL     1       7.404   5.833  15.393  0.00  0.00    +0.000 OA
ATOM     11  H   UNL     1       4.290   6.339  15.099  0.00  0.00    +0.000 HD
ATOM     12  H   UNL     1       5.575   6.791  13.992  0.00  0.00    +0.000 HD
ENDBRANCH   6   8
BRANCH   5  13
ATOM     13  O   UNL     1       7.182   6.407  18.399  0.00  0.00    +0.000 OA
ATOM     14  H   UNL     1       6.774   7.218  18.747  0.00  0.00    +0.000 HD
ENDBRANCH   5  13
ENDBRANCH   1   2
BRANCH   1  15
ATOM     15  O   UNL     1       1.918   3.129  17.177  0.00  0.00    +0.000 OA
ATOM     16  H   UNL     1       1.785   3.974  17.638  0.00  0.00    +0.000 HD
ENDBRANCH   1  15
BRANCH   1  17
ATOM     17  C   UNL     1       2.676   1.849  19.099  0.00  0.00    +0.000 C 
BRANCH  17  18
ATOM     18  N   UNL     1       1.261   2.041  19.481  0.00  0.00    +0.000 NA
ATOM     19  H   UNL     1       0.748   2.365  18.657  0.00  0.00    +0.000 HD
BRANCH  18  21
ATOM     20  C   UNL     1       2.299   2.916  21.552  0.00  0.00    +0.000 C 
ATOM     21  C   UNL     1       1.114   3.018  20.574  0.00  0.00    +0.000 C 
BRANCH  21  22
ATOM     22  C   UNL     1       1.032   4.455  20.005  0.00  0.00    +0.000 C 
BRANCH  22  23
ATOM     23  C   UNL     1       2.014   5.460  20.631  0.00  0.00    +0.000 C 
BRANCH  23  24
ATOM     24  C   UNL     1       1.998   6.782  19.889  0.00  0.00    +0.000 A 
ATOM     25  C   UNL     1       1.360   7.903  20.441  0.00  0.00    +0.000 A 
ATOM     26  C   UNL     1       1.310   9.110  19.738  0.00  0.00    +0.000 A 
ATOM     27  C   UNL     1       1.889   9.207  18.473  0.00  0.00    +0.000 A 
ATOM     28  C   UNL     1       2.529   8.102  17.916  0.00  0.00    +0.000 A 
ATOM     29  C   UNL     1       2.586   6.897  18.621  0.00  0.00    +0.000 A 
ENDBRANCH  23  24
ENDBRANCH  22  23
ENDBRANCH  21  22
ENDBRANCH  18  21
ENDBRANCH  17  18
ENDBRANCH   1  17
TORSDOF 10
ENDMDL
MODEL 5
REMARK VINA RESULT:      -7.4      0.826      1.300
REMARK  Name = 
REMARK  11 active torsions:
REMARK  status: ('A' for Active; 'I' for Inactive)
REMARK    1  A    between atoms: C_1  and  C_2
REMARK    2  A    between atoms: C_2  and  C_3
REMARK    3  A    between atoms: C_2  and  N_11
REMARK    4  A    between atoms: C_3  and  C_4
REMARK    5  A    between atoms: C_4  and  C_5
REMARK    6  A    between atoms: N_11  and  C_12
REMARK    7  A    between atoms: C_12  and  C_13
REMARK    8  A    between atoms: C_13  and  O_14
REMARK    9  A    between atoms: C_13  and  C_15
REMARK   10  A    between atoms: C_18  and  O_19
REMARK   11  A    between atoms: C_20  and  C_21
REMARK                            x       y       z     vdW  Elec       q    Type
REMARK                         _______ _______ _______ _____ _____    ______ ____
ROOT
ATOM      1  C   UNL     1       3.558   3.147  18.477  0.00  0.00    +0.000 C 
ENDROOT
BRANCH   1   2
ATOM      2  C   UNL     1       4.635   3.973  17.783  0.00  0.00    +0.000 A 
ATOM      3  C   UNL     1       4.687   4.071  16.389  0.00  0.00    +0.000 A 
ATOM      4  C   UNL     1       5.702   4.813  15.763  0.00  0.00    +0.000 A 
ATOM      5  C   UNL     1       6.673   5.466  16.527  0.00  0.00    +0.000 A 
ATOM      6  C   UNL     1       6.644   5.387  17.925  0.00  0.00    +0.000 A 
ATOM      7  C   UNL     1       5.617   4.646  18.535  0.00  0.00    +0.000 A 
BRANCH   6   8
ATOM      8  C   UNL     1       7.633   6.046  18.835  0.00  0.00    +0.000 C 
ATOM      9  N   UNL     1       8.002   5.382  19.953  0.00  0.00    +0.000 N 
ATOM     10  O   UNL     1       8.088   7.159  18.568  0.00  0.00    +0.000 OA
ATOM     11  H   UNL     1       7.617   4.459  20.158  0.00  0.00    +0.000 HD
ATOM     12  H   UNL     1       8.655   5.808  20.587  0.00  0.00    +0.000 HD
ENDBRANCH   6   8
BRANCH   5  13
ATOM     13  O   UNL     1       7.650   6.174  15.879  0.00  0.00    +0.000 OA
ATOM     14  H   UNL     1       7.826   6.993  16.374  0.00  0.00    +0.000 HD
ENDBRANCH   5  13
ENDBRANCH   1   2
BRANCH   1  15
ATOM     15  O   UNL     1       3.505   1.840  17.891  0.00  0.00    +0.000 OA
ATOM     16  H   UNL     1       2.584   1.531  17.930  0.00  0.00    +0.000 HD
ENDBRANCH   1  15
BRANCH   1  17
ATOM     17  C   UNL     1       2.164   3.814  18.352  0.00  0.00    +0.000 C 
BRANCH  17  18
ATOM     18  N   UNL     1       1.165   3.335  19.330  0.00  0.00    +0.000 NA
ATOM     19  H   UNL     1       0.232   3.507  18.946  0.00  0.00    +0.000 HD
BRANCH  18  21
ATOM     20  C   UNL     1       1.834   3.037  21.696  0.00  0.00    +0.000 C 
ATOM     21  C   UNL     1       1.300   4.014  20.631  0.00  0.00    +0.000 C 
BRANCH  21  22
ATOM     22  C   UNL     1       2.256   5.225  20.510  0.00  0.00    +0.000 C 
BRANCH  22  23
ATOM     23  C   UNL     1       1.658   6.571  20.952  0.00  0.00    +0.000 C 
BRANCH  23  24
ATOM     24  C   UNL     1       1.756   7.607  19.849  0.00  0.00    +0.000 A 
ATOM     25  C   UNL     1       2.535   7.364  18.708  0.00  0.00    +0.000 A 
ATOM     26  C   UNL     1       2.658   8.335  17.711  0.00  0.00    +0.000 A 
ATOM     27  C   UNL     1       2.011   9.562  17.846  0.00  0.00    +0.000 A 
ATOM     28  C   UNL     1       1.230   9.815  18.972  0.00  0.00    +0.000 A 
ATOM     29  C   UNL     1       1.100   8.841  19.967  0.00  0.00    +0.000 A 
ENDBRANCH  23  24
ENDBRANCH  22  23
ENDBRANCH  21  22
ENDBRANCH  18  21
ENDBRANCH  17  18
ENDBRANCH   1  17
TORSDOF 10
ENDMDL
MODEL 6
REMARK VINA RESULT:      -7.3      1.645      2.429
REMARK  Name = 
REMARK  11 active torsions:
REMARK  status: ('A' for Active; 'I' for Inactive)
REMARK    1  A    between atoms: C_1  and  C_2
REMARK    2  A    between atoms: C_2  and  C_3
REMARK    3  A    between atoms: C_2  and  N_11
REMARK    4  A    between atoms: C_3  and  C_4
REMARK    5  A    between atoms: C_4  and  C_5
REMARK    6  A    between atoms: N_11  and  C_12
REMARK    7  A    between atoms: C_12  and  C_13
REMARK    8  A    between atoms: C_13  and  O_14
REMARK    9  A    between atoms: C_13  and  C_15
REMARK   10  A    between atoms: C_18  and  O_19
REMARK   11  A    between atoms: C_20  and  C_21
REMARK                            x       y       z     vdW  Elec       q    Type
REMARK                         _______ _______ _______ _____ _____    ______ ____
ROOT
ATOM      1  C   UNL     1       4.461   3.141  19.348  0.00  0.00    +0.000 C 
ENDROOT
BRANCH   1   2
ATOM      2  C   UNL     1       5.346   4.131  18.599  0.00  0.00    +0.000 A 
ATOM      3  C   UNL     1       5.905   5.237  19.246  0.00  0.00    +0.000 A 
ATOM      4  C   UNL     1       6.695   6.156  18.536  0.00  0.00    +0.000 A 
ATOM      5  C   UNL     1       6.934   5.974  17.172  0.00  0.00    +0.000 A 
ATOM      6  C   UNL     1       6.389   4.874  16.498  0.00  0.00    +0.000 A 
ATOM      7  C   UNL     1       5.607   3.961  17.225  0.00  0.00    +0.000 A 
BRANCH   6   8
ATOM      8  C   UNL     1       6.583   4.585  15.042  0.00  0.00    +0.000 C 
ATOM      9  N   UNL     1       7.505   5.312  14.372  0.00  0.00    +0.000 N 
ATOM     10  O   UNL     1       5.918   3.714  14.480  0.00  0.00    +0.000 OA
ATOM     11  H   UNL     1       8.049   6.029  14.853  0.00  0.00    +0.000 HD
ATOM     12  H   UNL     1       7.645   5.146  13.390  0.00  0.00    +0.000 HD
ENDBRANCH   6   8
BRANCH   5  13
ATOM     13  O   UNL     1       7.705   6.895  16.513  0.00  0.00    +0.000 OA
ATOM     14  H   UNL     1       8.501   6.452  16.172  0.00  0.00    +0.000 HD
ENDBRANCH   5  13
ENDBRANCH   1   2
BRANCH   1  15
ATOM     15  O   UNL     1       5.234   1.989  19.713  0.00  0.00    +0.000 OA
ATOM     16  H   UNL     1       5.036   1.283  19.075  0.00  0.00    +0.000 HD
ENDBRANCH   1  15
BRANCH   1  17
ATOM     17  C   UNL     1       3.258   2.688  18.482  0.00  0.00    +0.000 C 
BRANCH  17  18
ATOM     18  N   UNL     1       2.262   1.864  19.199  0.00  0.00    +0.000 NA
ATOM     19  H   UNL     1       1.692   1.374  18.504  0.00  0.00    +0.000 HD
BRANCH  18  21
ATOM     20  C   UNL     1       1.952   2.719  21.502  0.00  0.00    +0.000 C 
ATOM     21  C   UNL     1       1.395   2.680  20.067  0.00  0.00    +0.000 C 
BRANCH  21  22
ATOM     22  C   UNL     1       1.281   4.121  19.514  0.00  0.00    +0.000 C 
BRANCH  22  23
ATOM     23  C   UNL     1       1.836   5.218  20.438  0.00  0.00    +0.000 C 
BRANCH  23  24
ATOM     24  C   UNL     1       1.935   6.548  19.717  0.00  0.00    +0.000 A 
ATOM     25  C   UNL     1       2.531   6.631  18.450  0.00  0.00    +0.000 A 
ATOM     26  C   UNL     1       2.659   7.864  17.804  0.00  0.00    +0.000 A 
ATOM     27  C   UNL     1       2.202   9.027  18.421  0.00  0.00    +0.000 A 
ATOM     28  C   UNL     1       1.605   8.958  19.677  0.00  0.00    +0.000 A 
ATOM     29  C   UNL     1       1.469   7.725  20.321  0.00  0.00    +0.000 A 
ENDBRANCH  23  24
ENDBRANCH  22  23
ENDBRANCH  21  22
ENDBRANCH  18  21
ENDBRANCH  17  18
ENDBRANCH   1  17
TORSDOF 10
ENDMDL
MODEL 7
REMARK VINA RESULT:      -7.1      1.723      2.591
REMARK  Name = 
REMARK  11 active torsions:
REMARK  status: ('A' for Active; 'I' for Inactive)
REMARK    1  A    between atoms: C_1  and  C_2
REMARK    2  A    between atoms: C_2  and  C_3
REMARK    3  A    between atoms: C_2  and  N_11
REMARK    4  A    between atoms: C_3  and  C_4
REMARK    5  A    between atoms: C_4  and  C_5
REMARK    6  A    between atoms: N_11  and  C_12
REMARK    7  A    between atoms: C_12  and  C_13
REMARK    8  A    between atoms: C_13  and  O_14
REMARK    9  A    between atoms: C_13  and  C_15
REMARK   10  A    between atoms: C_18  and  O_19
REMARK   11  A    between atoms: C_20  and  C_21
REMARK                            x       y       z     vdW  Elec       q    Type
REMARK                         _______ _______ _______ _____ _____    ______ ____
ROOT
ATOM      1  C   UNL     1       3.776   2.705  18.464  0.00  0.00    +0.000 C 
ENDROOT
BRANCH   1   2
ATOM      2  C   UNL     1       4.799   3.721  17.970  0.00  0.00    +0.000 A 
ATOM      3  C   UNL     1       5.426   4.606  18.852  0.00  0.00    +0.000 A 
ATOM      4  C   UNL     1       6.346   5.556  18.379  0.00  0.00    +0.000 A 
ATOM      5  C   UNL     1       6.647   5.627  17.016  0.00  0.00    +0.000 A 
ATOM      6  C   UNL     1       6.035   4.752  16.109  0.00  0.00    +0.000 A 
ATOM      7  C   UNL     1       5.123   3.803  16.601  0.00  0.00    +0.000 A 
BRANCH   6   8
ATOM      8  C   UNL     1       6.287   4.743  14.633  0.00  0.00    +0.000 C 
ATOM      9  N   UNL     1       7.465   5.235  14.191  0.00  0.00    +0.000 N 
ATOM     10  O   UNL     1       5.441   4.301  13.855  0.00  0.00    +0.000 OA
ATOM     11  H   UNL     1       8.156   5.596  14.850  0.00  0.00    +0.000 HD
ATOM     12  H   UNL     1       7.653   5.252  13.203  0.00  0.00    +0.000 HD
ENDBRANCH   6   8
BRANCH   5  13
ATOM     13  O   UNL     1       7.544   6.571  16.591  0.00  0.00    +0.000 OA
ATOM     14  H   UNL     1       8.309   6.570  17.192  0.00  0.00    +0.000 HD
ENDBRANCH   5  13
ENDBRANCH   1   2
BRANCH   1  15
ATOM     15  O   UNL     1       4.199   1.384  18.099  0.00  0.00    +0.000 OA
ATOM     16  H   UNL     1       4.890   1.468  17.421  0.00  0.00    +0.000 HD
ENDBRANCH   1  15
BRANCH   1  17
ATOM     17  C   UNL     1       2.374   2.971  17.858  0.00  0.00    +0.000 C 
BRANCH  17  18
ATOM     18  N   UNL     1       1.791   4.281  18.213  0.00  0.00    +0.000 NA
ATOM     19  H   UNL     1       2.548   4.968  18.258  0.00  0.00    +0.000 HD
BRANCH  18  21
ATOM     20  C   UNL     1       1.117   2.812  20.089  0.00  0.00    +0.000 C 
ATOM     21  C   UNL     1       1.083   4.236  19.505  0.00  0.00    +0.000 C 
BRANCH  21  22
ATOM     22  C   UNL     1       1.727   5.225  20.507  0.00  0.00    +0.000 C 
BRANCH  22  23
ATOM     23  C   UNL     1       2.759   6.189  19.897  0.00  0.00    +0.000 C 
BRANCH  23  24
ATOM     24  C   UNL     1       2.122   7.513  19.522  0.00  0.00    +0.000 A 
ATOM     25  C   UNL     1       2.253   8.026  18.223  0.00  0.00    +0.000 A 
ATOM     26  C   UNL     1       1.701   9.266  17.890  0.00  0.00    +0.000 A 
ATOM     27  C   UNL     1       1.021  10.011  18.853  0.00  0.00    +0.000 A 
ATOM     28  C   UNL     1       0.881   9.510  20.145  0.00  0.00    +0.000 A 
ATOM     29  C   UNL     1       1.425   8.267  20.478  0.00  0.00    +0.000 A 
ENDBRANCH  23  24
ENDBRANCH  22  23
ENDBRANCH  21  22
ENDBRANCH  18  21
ENDBRANCH  17  18
ENDBRANCH   1  17
TORSDOF 10
ENDMDL
MODEL 8
REMARK VINA RESULT:      -7.1      1.643      2.471
REMARK  Name = 
REMARK  11 active torsions:
REMARK  status: ('A' for Active; 'I' for Inactive)
REMARK    1  A    between atoms: C_1  and  C_2
REMARK    2  A    between atoms: C_2  and  C_3
REMARK    3  A    between atoms: C_2  and  N_11
REMARK    4  A    between atoms: C_3  and  C_4
REMARK    5  A    between atoms: C_4  and  C_5
REMARK    6  A    between atoms: N_11  and  C_12
REMARK    7  A    between atoms: C_12  and  C_13
REMARK    8  A    between atoms: C_13  and  O_14
REMARK    9  A    between atoms: C_13  and  C_15
REMARK   10  A    between atoms: C_18  and  O_19
REMARK   11  A    between atoms: C_20  and  C_21
REMARK                            x       y       z     vdW  Elec       q    Type
REMARK                         _______ _______ _______ _____ _____    ______ ____
ROOT
ATOM      1  C   UNL     1       2.980   2.231  18.095  0.00  0.00    +0.000 C 
ENDROOT
BRANCH   1   2
ATOM      2  C   UNL     1       4.077   3.288  18.048  0.00  0.00    +0.000 A 
ATOM      3  C   UNL     1       4.818   3.614  19.188  0.00  0.00    +0.000 A 
ATOM      4  C   UNL     1       5.807   4.610  19.137  0.00  0.00    +0.000 A 
ATOM      5  C   UNL     1       6.064   5.288  17.942  0.00  0.00    +0.000 A 
ATOM      6  C   UNL     1       5.338   4.981  16.784  0.00  0.00    +0.000 A 
ATOM      7  C   UNL     1       4.358   3.977  16.852  0.00  0.00    +0.000 A 
BRANCH   6   8
ATOM      8  C   UNL     1       5.533   5.644  15.456  0.00  0.00    +0.000 C 
ATOM      9  N   UNL     1       6.097   4.919  14.465  0.00  0.00    +0.000 N 
ATOM     10  O   UNL     1       5.189   6.814  15.281  0.00  0.00    +0.000 OA
ATOM     11  H   UNL     1       6.374   3.950  14.626  0.00  0.00    +0.000 HD
ATOM     12  H   UNL     1       6.251   5.345  13.568  0.00  0.00    +0.000 HD
ENDBRANCH   6   8
BRANCH   5  13
ATOM     13  O   UNL     1       7.031   6.257  17.933  0.00  0.00    +0.000 OA
ATOM     14  H   UNL     1       7.685   6.043  17.246  0.00  0.00    +0.000 HD
ENDBRANCH   5  13
ENDBRANCH   1   2
BRANCH   1  15
ATOM     15  O   UNL     1       2.205   2.292  16.890  0.00  0.00    +0.000 OA
ATOM     16  H   UNL     1       1.518   1.606  16.941  0.00  0.00    +0.000 HD
ENDBRANCH   1  15
BRANCH   1  17
ATOM     17  C   UNL     1       2.041   2.441  19.310  0.00  0.00    +0.000 C 
BRANCH  17  18
ATOM     18  N   UNL     1       1.349   3.747  19.331  0.00  0.00    +0.000 NA
ATOM     19  H   UNL     1       1.839   4.381  18.694  0.00  0.00    +0.000 HD
BRANCH  18  21
ATOM     20  C   UNL     1       1.943   3.361  21.704  0.00  0.00    +0.000 C 
ATOM     21  C   UNL     1       1.316   4.330  20.684  0.00  0.00    +0.000 C 
BRANCH  21  22
ATOM     22  C   UNL     1       2.076   5.677  20.710  0.00  0.00    +0.000 C 
BRANCH  22  23
ATOM     23  C   UNL     1       2.437   6.246  19.327  0.00  0.00    +0.000 C 
BRANCH  23  24
ATOM     24  C   UNL     1       1.966   7.679  19.180  0.00  0.00    +0.000 A 
ATOM     25  C   UNL     1       2.175   8.381  17.984  0.00  0.00    +0.000 A 
ATOM     26  C   UNL     1       1.777   9.715  17.864  0.00  0.00    +0.000 A 
ATOM     27  C   UNL     1       1.174  10.365  18.940  0.00  0.00    +0.000 A 
ATOM     28  C   UNL     1       0.956   9.678  20.132  0.00  0.00    +0.000 A 
ATOM     29  C   UNL     1       1.347   8.341  20.251  0.00  0.00    +0.000 A 
ENDBRANCH  23  24
ENDBRANCH  22  23
ENDBRANCH  21  22
ENDBRANCH  18  21
ENDBRANCH  17  18
ENDBRANCH   1  17
TORSDOF 10
ENDMDL
MODEL 9
REMARK VINA RESULT:      -7.1      1.646      2.363
REMARK  Name = 
REMARK  11 active torsions:
REMARK  status: ('A' for Active; 'I' for Inactive)
REMARK    1  A    between atoms: C_1  and  C_2
REMARK    2  A    between atoms: C_2  and  C_3
REMARK    3  A    between atoms: C_2  and  N_11
REMARK    4  A    between atoms: C_3  and  C_4
REMARK    5  A    between atoms: C_4  and  C_5
REMARK    6  A    between atoms: N_11  and  C_12
REMARK    7  A    between atoms: C_12  and  C_13
REMARK    8  A    between atoms: C_13  and  O_14
REMARK    9  A    between atoms: C_13  and  C_15
REMARK   10  A    between atoms: C_18  and  O_19
REMARK   11  A    between atoms: C_20  and  C_21
REMARK                            x       y       z     vdW  Elec       q    Type
REMARK                         _______ _______ _______ _____ _____    ______ ____
ROOT
ATOM      1  C   UNL     1       3.174   2.014  18.406  0.00  0.00    +0.000 C 
ENDROOT
BRANCH   1   2
ATOM      2  C   UNL     1       4.197   3.129  18.220  0.00  0.00    +0.000 A 
ATOM      3  C   UNL     1       4.976   3.583  19.288  0.00  0.00    +0.000 A 
ATOM      4  C   UNL     1       5.895   4.630  19.108  0.00  0.00    +0.000 A 
ATOM      5  C   UNL     1       6.043   5.230  17.855  0.00  0.00    +0.000 A 
ATOM      6  C   UNL     1       5.278   4.795  16.766  0.00  0.00    +0.000 A 
ATOM      7  C   UNL     1       4.369   3.741  16.963  0.00  0.00    +0.000 A 
BRANCH   6   8
ATOM      8  C   UNL     1       5.359   5.367  15.385  0.00  0.00    +0.000 C 
ATOM      9  N   UNL     1       5.275   6.709  15.252  0.00  0.00    +0.000 N 
ATOM     10  O   UNL     1       5.496   4.631  14.407  0.00  0.00    +0.000 OA
ATOM     11  H   UNL     1       5.164   7.305  16.073  0.00  0.00    +0.000 HD
ATOM     12  H   UNL     1       5.314   7.117  14.335  0.00  0.00    +0.000 HD
ENDBRANCH   6   8
BRANCH   5  13
ATOM     13  O   UNL     1       6.945   6.252  17.721  0.00  0.00    +0.000 OA
ATOM     14  H   UNL     1       6.501   7.011  17.305  0.00  0.00    +0.000 HD
ENDBRANCH   5  13
ENDBRANCH   1   2
BRANCH   1  15
ATOM     15  O   UNL     1       2.300   1.973  17.270  0.00  0.00    +0.000 OA
ATOM     16  H   UNL     1       2.763   2.384  16.521  0.00  0.00    +0.000 HD
ENDBRANCH   1  15
BRANCH   1  17
ATOM     17  C   UNL     1       2.328   2.229  19.686  0.00  0.00    +0.000 C 
BRANCH  17  18
ATOM     18  N   UNL     1       1.075   2.983  19.474  0.00  0.00    +0.000 NA
ATOM     19  H   UNL     1       0.887   3.016  18.468  0.00  0.00    +0.000 HD
BRANCH  18  21
ATOM     20  C   UNL     1       2.068   4.392  21.253  0.00  0.00    +0.000 C 
ATOM     21  C   UNL     1       1.160   4.354  20.009  0.00  0.00    +0.000 C 
BRANCH  21  22
ATOM     22  C   UNL     1       1.712   5.319  18.932  0.00  0.00    +0.000 C 
BRANCH  22  23
ATOM     23  C   UNL     1       2.658   6.410  19.461  0.00  0.00    +0.000 C 
BRANCH  23  24
ATOM     24  C   UNL     1       2.020   7.783  19.374  0.00  0.00    +0.000 A 
ATOM     25  C   UNL     1       1.361   8.336  20.482  0.00  0.00    +0.000 A 
ATOM     26  C   UNL     1       0.737   9.583  20.389  0.00  0.00    +0.000 A 
ATOM     27  C   UNL     1       0.757  10.287  19.186  0.00  0.00    +0.000 A 
ATOM     28  C   UNL     1       1.412   9.751  18.079  0.00  0.00    +0.000 A 
ATOM     29  C   UNL     1       2.042   8.507  18.173  0.00  0.00    +0.000 A 
ENDBRANCH  23  24
ENDBRANCH  22  23
ENDBRANCH  21  22
ENDBRANCH  18  21
ENDBRANCH  17  18
ENDBRANCH   1  17
TORSDOF 10
ENDMDL
