MODEL 1
REMARK VINA RESULT:      -4.7      0.000      0.000
REMARK  Name = 
REMARK  3 active torsions:
REMARK  status: ('A' for Active; 'I' for Inactive)
REMARK    1  A    between atoms: C_1  and  C_2
REMARK    2  A    between atoms: C_2  and  C_3
REMARK    3  A    between atoms: C_2  and  C_4
REMARK                            x       y       z     vdW  Elec       q    Type
REMARK                         _______ _______ _______ _____ _____    ______ ____
ROOT
ATOM      1  C   UNL     1       3.069   3.261  19.120  0.00  0.00    +0.000 C 
ATOM      2  C   UNL     1       4.456   2.840  19.669  0.00  0.00    +0.000 C 
ATOM      3  N   UNL     1       5.565   3.604  19.060  0.00  0.00    +0.000 NA
ATOM      4  C   UNL     1       5.292   5.041  19.248  0.00  0.00    +0.000 C 
ATOM      5  C   UNL     1       3.925   5.434  18.671  0.00  0.00    +0.000 C 
ATOM      6  O   UNL     1       2.869   4.680  19.274  0.00  0.00    +0.000 OA
ATOM      7  H   UNL     1       5.579   3.408  18.058  0.00  0.00    +0.000 HD
ENDROOT
BRANCH   1   9
ATOM      8  C   UNL     1       1.459   3.203  21.113  0.00  0.00    +0.000 C 
ATOM      9  C   UNL     1       1.873   2.546  19.797  0.00  0.00    +0.000 C 
ATOM     10  C   UNL     1       0.658   2.399  18.874  0.00  0.00    +0.000 C 
ENDBRANCH   1   9
TORSDOF 1
ENDMDL
MODEL 2
REMARK VINA RESULT:      -4.7      0.531      1.290
REMARK  Name = 
REMARK  3 active torsions:
REMARK  status: ('A' for Active; 'I' for Inactive)
REMARK    1  A    between atoms: C_1  and  C_2
REMARK    2  A    between atoms: C_2  and  C_3
REMARK    3  A    between atoms: C_2  and  C_4
REMARK                            x       y       z     vdW  Elec       q    Type
REMARK                         _______ _______ _______ _____ _____    ______ ____
ROOT
ATOM      1  C   UNL     1       2.901   3.842  19.160  0.00  0.00    +0.000 C 
ATOM      2  C   UNL     1       4.117   3.037  19.685  0.00  0.00    +0.000 C 
ATOM      3  N   UNL     1       5.387   3.445  19.048  0.00  0.00    +0.000 NA
ATOM      4  C   UNL     1       5.547   4.900  19.231  0.00  0.00    +0.000 C 
ATOM      5  C   UNL     1       4.341   5.672  18.678  0.00  0.00    +0.000 C 
ATOM      6  O   UNL     1       3.125   5.259  19.307  0.00  0.00    +0.000 OA
ATOM      7  H   UNL     1       5.323   3.251  18.049  0.00  0.00    +0.000 HD
ENDROOT
BRANCH   1   9
ATOM      8  C   UNL     1       0.704   2.526  19.070  0.00  0.00    +0.000 C 
ATOM      9  C   UNL     1       1.563   3.507  19.866  0.00  0.00    +0.000 C 
ATOM     10  C   UNL     1       1.749   3.002  21.302  0.00  0.00    +0.000 C 
ENDBRANCH   1   9
TORSDOF 1
ENDMDL
MODEL 3
REMARK VINA RESULT:      -4.7      1.993      2.236
REMARK  Name = 
REMARK  3 active torsions:
REMARK  status: ('A' for Active; 'I' for Inactive)
REMARK    1  A    between atoms: C_1  and  C_2
REMARK    2  A    between atoms: C_2  and  C_3
REMARK    3  A    between atoms: C_2  and  C_4
REMARK                            x       y       z     vdW  Elec       q    Type
REMARK                         _______ _______ _______ _____ _____    ______ ____
ROOT
ATOM      1  C   UNL     1       3.886   3.129  17.648  0.00  0.00    +0.000 C 
ATOM      2  C   UNL     1       4.523   3.666  18.956  0.00  0.00    +0.000 C 
ATOM      3  N   UNL     1       5.987   3.840  18.847  0.00  0.00    +0.000 NA
ATOM      4  C   UNL     1       6.263   4.703  17.684  0.00  0.00    +0.000 C 
ATOM      5  C   UNL     1       5.644   4.133  16.400  0.00  0.00    +0.000 C 
ATOM      6  O   UNL     1       4.229   3.973  16.530  0.00  0.00    +0.000 OA
ATOM      7  H   UNL     1       6.407   2.925  18.676  0.00  0.00    +0.000 HD
ENDROOT
BRANCH   1   9
ATOM      8  C   UNL     1       1.843   2.151  18.847  0.00  0.00    +0.000 C 
ATOM      9  C   UNL     1       2.341   3.017  17.691  0.00  0.00    +0.000 C 
ATOM     10  C   UNL     1       1.639   4.380  17.710  0.00  0.00    +0.000 C 
ENDBRANCH   1   9
TORSDOF 1
ENDMDL
MODEL 4
REMARK VINA RESULT:      -4.6      1.182      1.182
REMARK  Name = 
REMARK  3 active torsions:
REMARK  status: ('A' for Active; 'I' for Inactive)
REMARK    1  A    between atoms: C_1  and  C_2
REMARK    2  A    between atoms: C_2  and  C_3
REMARK    3  A    between atoms: C_2  and  C_4
REMARK                            x       y       z     vdW  Elec       q    Type
REMARK                         _______ _______ _______ _____ _____    ______ ____
ROOT
ATOM      1  C   UNL     1       3.185   2.473  18.833  0.00  0.00    +0.000 C 
ATOM      2  C   UNL     1       4.314   3.005  19.752  0.00  0.00    +0.000 C 
ATOM      3  N   UNL     1       5.524   3.397  18.998  0.00  0.00    +0.000 NA
ATOM      4  C   UNL     1       5.127   4.370  17.964  0.00  0.00    +0.000 C 
ATOM      5  C   UNL     1       4.028   3.806  17.053  0.00  0.00    +0.000 C 
ATOM      6  O   UNL     1       2.869   3.432  17.804  0.00  0.00    +0.000 OA
ATOM      7  H   UNL     1       5.896   2.567  18.535  0.00  0.00    +0.000 HD
ENDROOT
BRANCH   1   9
ATOM      8  C   UNL     1       1.813   2.722  20.983  0.00  0.00    +0.000 C 
ATOM      9  C   UNL     1       1.866   2.135  19.574  0.00  0.00    +0.000 C 
ATOM     10  C   UNL     1       0.613   2.535  18.787  0.00  0.00    +0.000 C 
ENDBRANCH   1   9
TORSDOF 1
ENDMDL
MODEL 5
REMARK VINA RESULT:      -4.6      1.173      1.362
REMARK  Name = 
REMARK  3 active torsions:
REMARK  status: ('A' for Active; 'I' for Inactive)
REMARK    1  A    between atoms: C_1  and  C_2
REMARK    2  A    between atoms: C_2  and  C_3
REMARK    3  A    between atoms: C_2  and  C_4
REMARK                            x       y       z     vdW  Elec       q    Type
REMARK                         _______ _______ _______ _____ _____    ______ ____
ROOT
ATOM      1  C   UNL     1       2.650   3.035  19.313  0.00  0.00    +0.000 C 
ATOM      2  C   UNL     1       4.021   2.952  20.031  0.00  0.00    +0.000 C 
ATOM      3  N   UNL     1       5.157   2.907  19.086  0.00  0.00    +0.000 NA
ATOM      4  C   UNL     1       5.055   4.072  18.187  0.00  0.00    +0.000 C 
ATOM      5  C   UNL     1       3.699   4.112  17.470  0.00  0.00    +0.000 C 
ATOM      6  O   UNL     1       2.616   4.154  18.404  0.00  0.00    +0.000 OA
ATOM      7  H   UNL     1       5.074   2.059  18.524  0.00  0.00    +0.000 HD
ENDROOT
BRANCH   1   9
ATOM      8  C   UNL     1       1.694   2.557  21.642  0.00  0.00    +0.000 C 
ATOM      9  C   UNL     1       1.438   3.174  20.268  0.00  0.00    +0.000 C 
ATOM     10  C   UNL     1       0.954   4.621  20.420  0.00  0.00    +0.000 C 
ENDBRANCH   1   9
TORSDOF 1
ENDMDL
MODEL 6
REMARK VINA RESULT:      -4.5      4.563      5.967
REMARK  Name = 
REMARK  3 active torsions:
REMARK  status: ('A' for Active; 'I' for Inactive)
REMARK    1  A    between atoms: C_1  and  C_2
REMARK    2  A    between atoms: C_2  and  C_3
REMARK    3  A    between atoms: C_2  and  C_4
REMARK                            x       y       z     vdW  Elec       q    Type
REMARK                         _______ _______ _______ _____ _____    ______ ____
ROOT
ATOM      1  C   UNL     1       6.789   5.900  16.693  0.00  0.00    +0.000 C 
ATOM      2  C   UNL     1       6.090   4.635  17.252  0.00  0.00    +0.000 C 
ATOM      3  N   UNL     1       5.223   3.975  16.253  0.00  0.00    +0.000 NA
ATOM      4  C   UNL     1       6.034   3.693  15.054  0.00  0.00    +0.000 C 
ATOM      5  C   UNL     1       6.692   4.967  14.507  0.00  0.00    +0.000 C 
ATOM      6  O   UNL     1       7.523   5.588  15.492  0.00  0.00    +0.000 OA
ATOM      7  H   UNL     1       4.479   4.625  15.994  0.00  0.00    +0.000 HD
ENDROOT
BRANCH   1   9
ATOM      8  C   UNL     1       7.661   8.095  17.689  0.00  0.00    +0.000 C 
ATOM      9  C   UNL     1       7.777   6.571  17.681  0.00  0.00    +0.000 C 
ATOM     10  C   UNL     1       7.666   6.025  19.108  0.00  0.00    +0.000 C 
ENDBRANCH   1   9
TORSDOF 1
ENDMDL
MODEL 7
REMARK VINA RESULT:      -4.5      1.817      2.098
REMARK  Name = 
REMARK  3 active torsions:
REMARK  status: ('A' for Active; 'I' for Inactive)
REMARK    1  A    between atoms: C_1  and  C_2
REMARK    2  A    between atoms: C_2  and  C_3
REMARK    3  A    between atoms: C_2  and  C_4
REMARK                            x       y       z     vdW  Elec       q    Type
REMARK                         _______ _______ _______ _____ _____    ______ ____
ROOT
ATOM      1  C   UNL     1       1.930   2.935  19.200  0.00  0.00    +0.000 C 
ATOM      2  C   UNL     1       3.316   2.315  19.510  0.00  0.00    +0.000 C 
ATOM      3  N   UNL     1       4.039   1.898  18.290  0.00  0.00    +0.000 NA
ATOM      4  C   UNL     1       4.126   3.060  17.386  0.00  0.00    +0.000 C 
ATOM      5  C   UNL     1       2.737   3.635  17.075  0.00  0.00    +0.000 C 
ATOM      6  O   UNL     1       2.057   4.030  18.269  0.00  0.00    +0.000 OA
ATOM      7  H   UNL     1       3.495   1.169  17.828  0.00  0.00    +0.000 HD
ENDROOT
BRANCH   1   9
ATOM      8  C   UNL     1       1.519   2.694  21.717  0.00  0.00    +0.000 C 
ATOM      9  C   UNL     1       1.177   3.467  20.445  0.00  0.00    +0.000 C 
ATOM     10  C   UNL     1       1.373   4.971  20.670  0.00  0.00    +0.000 C 
ENDBRANCH   1   9
TORSDOF 1
ENDMDL
MODEL 8
REMARK VINA RESULT:      -4.5      2.308      2.940
REMARK  Name = 
REMARK  3 active torsions:
REMARK  status: ('A' for Active; 'I' for Inactive)
REMARK    1  A    between atoms: C_1  and  C_2
REMARK    2  A    between atoms: C_2  and  C_3
REMARK    3  A    between atoms: C_2  and  C_4
REMARK                            x       y       z     vdW  Elec       q    Type
REMARK                         _______ _______ _______ _____ _____    ______ ____
ROOT
ATOM      1  C   UNL     1       4.317   4.274  17.968  0.00  0.00    +0.000 C 
ATOM      2  C   UNL     1       5.516   4.788  18.805  0.00  0.00    +0.000 C 
ATOM      3  N   UNL     1       6.812   4.260  18.327  0.00  0.00    +0.000 NA
ATOM      4  C   UNL     1       6.939   4.583  16.894  0.00  0.00    +0.000 C 
ATOM      5  C   UNL     1       5.753   4.039  16.086  0.00  0.00    +0.000 C 
ATOM      6  O   UNL     1       4.511   4.562  16.568  0.00  0.00    +0.000 OA
ATOM      7  H   UNL     1       6.802   3.244  18.429  0.00  0.00    +0.000 HD
ENDROOT
BRANCH   1   9
ATOM      8  C   UNL     1       2.887   6.389  18.191  0.00  0.00    +0.000 C 
ATOM      9  C   UNL     1       2.949   4.874  18.381  0.00  0.00    +0.000 C 
ATOM     10  C   UNL     1       1.761   4.204  17.681  0.00  0.00    +0.000 C 
ENDBRANCH   1   9
TORSDOF 1
ENDMDL
MODEL 9
REMARK VINA RESULT:      -4.5      2.102      2.425
REMARK  Name = 
REMARK  3 active torsions:
REMARK  status: ('A' for Active; 'I' for Inactive)
REMARK    1  A    between atoms: C_1  and  C_2
REMARK    2  A    between atoms: C_2  and  C_3
REMARK    3  A    between atoms: C_2  and  C_4
REMARK                            x       y       z     vdW  Elec       q    Type
REMARK                         _______ _______ _______ _____ _____    ______ ____
ROOT
ATOM      1  C   UNL     1       4.138   3.462  17.989  0.00  0.00    +0.000 C 
ATOM      2  C   UNL     1       5.167   4.182  18.898  0.00  0.00    +0.000 C 
ATOM      3  N   UNL     1       6.541   4.133  18.353  0.00  0.00    +0.000 NA
ATOM      4  C   UNL     1       6.512   4.679  16.984  0.00  0.00    +0.000 C 
ATOM      5  C   UNL     1       5.505   3.930  16.100  0.00  0.00    +0.000 C 
ATOM      6  O   UNL     1       4.185   3.989  16.648  0.00  0.00    +0.000 OA
ATOM      7  H   UNL     1       6.832   3.156  18.305  0.00  0.00    +0.000 HD
ENDROOT
BRANCH   1   9
ATOM      8  C   UNL     1       1.908   4.712  17.817  0.00  0.00    +0.000 C 
ATOM      9  C   UNL     1       2.672   3.567  18.480  0.00  0.00    +0.000 C 
ATOM     10  C   UNL     1       1.892   2.256  18.333  0.00  0.00    +0.000 C 
ENDBRANCH   1   9
TORSDOF 1
ENDMDL
