MODEL 1
REMARK VINA RESULT:      -8.7      0.000      0.000
REMARK  Name = 
REMARK  10 active torsions:
REMARK  status: ('A' for Active; 'I' for Inactive)
REMARK    1  A    between atoms: C_1  and  O_2
REMARK    2  A    between atoms: O_2  and  C_3
REMARK    3  A    between atoms: C_3  and  C_5
REMARK    4  A    between atoms: C_6  and  C_7
REMARK    5  A    between atoms: C_7  and  C_8
REMARK    6  A    between atoms: C_8  and  C_9
REMARK    7  A    between atoms: C_11  and  O_12
REMARK    8  A    between atoms: C_17  and  C_18
REMARK    9  A    between atoms: C_17  and  C_19
REMARK   10  A    between atoms: C_23  and  C_24
REMARK                            x       y       z     vdW  Elec       q    Type
REMARK                         _______ _______ _______ _____ _____    ______ ____
ROOT
ATOM      1  C   UNL     1       6.348   4.582  15.237  0.00  0.00    +0.000 A 
ATOM      2  C   UNL     1       7.139   4.667  16.396  0.00  0.00    +0.000 A 
ATOM      3  C   UNL     1       6.597   4.438  17.698  0.00  0.00    +0.000 A 
ATOM      4  C   UNL     1       5.246   4.101  17.906  0.00  0.00    +0.000 A 
ATOM      5  C   UNL     1       4.476   4.071  16.693  0.00  0.00    +0.000 A 
ATOM      6  C   UNL     1       5.003   4.283  15.412  0.00  0.00    +0.000 A 
ATOM      7  O   UNL     1       3.083   4.029  16.652  0.00  0.00    +0.000 OA
ATOM      8  C   UNL     1       2.549   3.759  17.962  0.00  0.00    +0.000 C 
ATOM      9  C   UNL     1       2.847   2.209  18.072  0.00  0.00    +0.000 C 
ATOM     10  C   UNL     1       1.029   3.848  17.907  0.00  0.00    +0.000 C 
ATOM     11  C   UNL     1       3.259   4.909  18.845  0.00  0.00    +0.000 C 
ATOM     12  C   UNL     1       2.660   5.656  20.033  0.00  0.00    +0.000 C 
ATOM     13  C   UNL     1       1.961   4.693  20.878  0.00  0.00    +0.000 C 
ATOM     14  C   UNL     1       2.516   3.480  21.044  0.00  0.00    +0.000 C 
ATOM     15  C   UNL     1       1.581   2.453  21.633  0.00  0.00    +0.000 C 
ATOM     16  C   UNL     1       3.985   3.188  20.484  0.00  0.00    +0.000 C 
ATOM     17  C   UNL     1       4.538   4.241  19.320  0.00  0.00    +0.000 C 
ENDROOT
BRANCH   3  18
ATOM     18  O   UNL     1       7.395   4.670  18.786  0.00  0.00    +0.000 OA
ATOM     19  H   UNL     1       8.097   5.291  18.522  0.00  0.00    +0.000 HD
ENDBRANCH   3  18
BRANCH   1  20
ATOM     20  C   UNL     1       6.877   4.831  13.832  0.00  0.00    +0.000 C 
BRANCH  20  21
ATOM     21  C   UNL     1       6.809   3.610  12.912  0.00  0.00    +0.000 C 
BRANCH  21  23
ATOM     22  C   UNL     1       4.527   3.411  11.480  0.00  0.00    +0.000 C 
ATOM     23  C   UNL     1       5.514   3.489  12.170  0.00  0.00    +0.000 C 
BRANCH  22  24
ATOM     24  C   UNL     1       3.408   3.325  10.559  0.00  0.00    +0.000 C 
ATOM     25  O   UNL     1       2.517   2.517  10.723  0.00  0.00    +0.000 OA
BRANCH  24  27
ATOM     26  C   UNL     1       2.258   4.847   9.217  0.00  0.00    +0.000 C 
ATOM     27  O   UNL     1       3.503   4.252   9.569  0.00  0.00    +0.000 OA
ENDBRANCH  24  27
ENDBRANCH  22  24
ENDBRANCH  21  23
ENDBRANCH  20  21
ENDBRANCH   1  20
TORSDOF 6
ENDMDL
MODEL 2
REMARK VINA RESULT:      -8.6      1.222      1.868
REMARK  Name = 
REMARK  10 active torsions:
REMARK  status: ('A' for Active; 'I' for Inactive)
REMARK    1  A    between atoms: C_1  and  O_2
REMARK    2  A    between atoms: O_2  and  C_3
REMARK    3  A    between atoms: C_3  and  C_5
REMARK    4  A    between atoms: C_6  and  C_7
REMARK    5  A    between atoms: C_7  and  C_8
REMARK    6  A    between atoms: C_8  and  C_9
REMARK    7  A    between atoms: C_11  and  O_12
REMARK    8  A    between atoms: C_17  and  C_18
REMARK    9  A    between atoms: C_17  and  C_19
REMARK   10  A    between atoms: C_23  and  C_24
REMARK                            x       y       z     vdW  Elec       q    Type
REMARK                         _______ _______ _______ _____ _____    ______ ____
ROOT
ATOM      1  C   UNL     1       5.849   5.016  15.116  0.00  0.00    +0.000 A 
ATOM      2  C   UNL     1       5.318   6.210  15.633  0.00  0.00    +0.000 A 
ATOM      3  C   UNL     1       4.493   6.228  16.800  0.00  0.00    +0.000 A 
ATOM      4  C   UNL     1       4.170   5.057  17.514  0.00  0.00    +0.000 A 
ATOM      5  C   UNL     1       4.703   3.864  16.917  0.00  0.00    +0.000 A 
ATOM      6  C   UNL     1       5.521   3.842  15.779  0.00  0.00    +0.000 A 
ATOM      7  O   UNL     1       4.312   2.573  17.268  0.00  0.00    +0.000 OA
ATOM      8  C   UNL     1       3.515   2.597  18.467  0.00  0.00    +0.000 C 
ATOM      9  C   UNL     1       4.645   2.824  19.551  0.00  0.00    +0.000 C 
ATOM     10  C   UNL     1       2.999   1.191  18.749  0.00  0.00    +0.000 C 
ATOM     11  C   UNL     1       2.372   3.667  18.075  0.00  0.00    +0.000 C 
ATOM     12  C   UNL     1       0.906   3.642  18.497  0.00  0.00    +0.000 C 
ATOM     13  C   UNL     1       0.839   3.288  19.911  0.00  0.00    +0.000 C 
ATOM     14  C   UNL     1       1.777   3.792  20.732  0.00  0.00    +0.000 C 
ATOM     15  C   UNL     1       1.841   3.116  22.079  0.00  0.00    +0.000 C 
ATOM     16  C   UNL     1       2.806   4.891  20.193  0.00  0.00    +0.000 C 
ATOM     17  C   UNL     1       2.960   4.989  18.539  0.00  0.00    +0.000 C 
ENDROOT
BRANCH   3  18
ATOM     18  O   UNL     1       3.905   7.408  17.166  0.00  0.00    +0.000 OA
ATOM     19  H   UNL     1       3.121   7.203  17.705  0.00  0.00    +0.000 HD
ENDBRANCH   3  18
BRANCH   1  20
ATOM     20  C   UNL     1       6.719   4.948  13.869  0.00  0.00    +0.000 C 
BRANCH  20  21
ATOM     21  C   UNL     1       6.684   3.595  13.155  0.00  0.00    +0.000 C 
BRANCH  21  23
ATOM     22  C   UNL     1       4.646   3.437  11.390  0.00  0.00    +0.000 C 
ATOM     23  C   UNL     1       5.592   3.481  12.137  0.00  0.00    +0.000 C 
BRANCH  22  24
ATOM     24  C   UNL     1       3.448   3.444  10.568  0.00  0.00    +0.000 C 
ATOM     25  O   UNL     1       2.564   2.630  10.736  0.00  0.00    +0.000 OA
BRANCH  24  27
ATOM     26  C   UNL     1       2.184   4.803   9.156  0.00  0.00    +0.000 C 
ATOM     27  O   UNL     1       3.469   4.459   9.663  0.00  0.00    +0.000 OA
ENDBRANCH  24  27
ENDBRANCH  22  24
ENDBRANCH  21  23
ENDBRANCH  20  21
ENDBRANCH   1  20
TORSDOF 6
ENDMDL
MODEL 3
REMARK VINA RESULT:      -8.2      4.281      7.059
REMARK  Name = 
REMARK  10 active torsions:
REMARK  status: ('A' for Active; 'I' for Inactive)
REMARK    1  A    between atoms: C_1  and  O_2
REMARK    2  A    between atoms: O_2  and  C_3
REMARK    3  A    between atoms: C_3  and  C_5
REMARK    4  A    between atoms: C_6  and  C_7
REMARK    5  A    between atoms: C_7  and  C_8
REMARK    6  A    between atoms: C_8  and  C_9
REMARK    7  A    between atoms: C_11  and  O_12
REMARK    8  A    between atoms: C_17  and  C_18
REMARK    9  A    between atoms: C_17  and  C_19
REMARK   10  A    between atoms: C_23  and  C_24
REMARK                            x       y       z     vdW  Elec       q    Type
REMARK                         _______ _______ _______ _____ _____    ______ ____
ROOT
ATOM      1  C   UNL     1       6.859   6.822  17.137  0.00  0.00    +0.000 A 
ATOM      2  C   UNL     1       6.998   5.627  16.410  0.00  0.00    +0.000 A 
ATOM      3  C   UNL     1       6.063   4.553  16.534  0.00  0.00    +0.000 A 
ATOM      4  C   UNL     1       4.937   4.626  17.378  0.00  0.00    +0.000 A 
ATOM      5  C   UNL     1       4.870   5.850  18.128  0.00  0.00    +0.000 A 
ATOM      6  C   UNL     1       5.777   6.910  18.003  0.00  0.00    +0.000 A 
ATOM      7  O   UNL     1       4.018   6.055  19.213  0.00  0.00    +0.000 OA
ATOM      8  C   UNL     1       3.055   4.989  19.305  0.00  0.00    +0.000 C 
ATOM      9  C   UNL     1       2.074   5.395  18.132  0.00  0.00    +0.000 C 
ATOM     10  C   UNL     1       2.227   5.176  20.570  0.00  0.00    +0.000 C 
ATOM     11  C   UNL     1       4.010   3.688  19.312  0.00  0.00    +0.000 C 
ATOM     12  C   UNL     1       3.786   2.388  20.078  0.00  0.00    +0.000 C 
ATOM     13  C   UNL     1       2.381   2.013  19.949  0.00  0.00    +0.000 C 
ATOM     14  C   UNL     1       1.779   2.221  18.765  0.00  0.00    +0.000 C 
ATOM     15  C   UNL     1       0.274   2.135  18.819  0.00  0.00    +0.000 C 
ATOM     16  C   UNL     1       2.639   2.684  17.500  0.00  0.00    +0.000 C 
ATOM     17  C   UNL     1       4.132   3.339  17.839  0.00  0.00    +0.000 C 
ENDROOT
BRANCH   3  18
ATOM     18  O   UNL     1       6.336   3.373  15.898  0.00  0.00    +0.000 OA
ATOM     19  H   UNL     1       5.926   2.651  16.406  0.00  0.00    +0.000 HD
ENDBRANCH   3  18
BRANCH   1  20
ATOM     20  C   UNL     1       7.838   7.984  17.048  0.00  0.00    +0.000 C 
BRANCH  20  21
ATOM     21  C   UNL     1       8.374   8.455  18.401  0.00  0.00    +0.000 C 
BRANCH  21  23
ATOM     22  C   UNL     1       9.318  10.986  18.398  0.00  0.00    +0.000 C 
ATOM     23  C   UNL     1       8.840   9.878  18.400  0.00  0.00    +0.000 C 
BRANCH  22  24
ATOM     24  C   UNL     1       9.995  12.270  18.380  0.00  0.00    +0.000 C 
ATOM     25  O   UNL     1      10.478  12.714  17.358  0.00  0.00    +0.000 OA
BRANCH  24  27
ATOM     26  C   UNL     1      10.692  12.143  20.602  0.00  0.00    +0.000 C 
ATOM     27  O   UNL     1       9.977  12.863  19.604  0.00  0.00    +0.000 OA
ENDBRANCH  24  27
ENDBRANCH  22  24
ENDBRANCH  21  23
ENDBRANCH  20  21
ENDBRANCH   1  20
TORSDOF 6
ENDMDL
MODEL 4
REMARK VINA RESULT:      -8.2      1.657      2.626
REMARK  Name = 
REMARK  10 active torsions:
REMARK  status: ('A' for Active; 'I' for Inactive)
REMARK    1  A    between atoms: C_1  and  O_2
REMARK    2  A    between atoms: O_2  and  C_3
REMARK    3  A    between atoms: C_3  and  C_5
REMARK    4  A    between atoms: C_6  and  C_7
REMARK    5  A    between atoms: C_7  and  C_8
REMARK    6  A    between atoms: C_8  and  C_9
REMARK    7  A    between atoms: C_11  and  O_12
REMARK    8  A    between atoms: C_17  and  C_18
REMARK    9  A    between atoms: C_17  and  C_19
REMARK   10  A    between atoms: C_23  and  C_24
REMARK                            x       y       z     vdW  Elec       q    Type
REMARK                         _______ _______ _______ _____ _____    ______ ____
ROOT
ATOM      1  C   UNL     1       5.653   5.831  15.713  0.00  0.00    +0.000 A 
ATOM      2  C   UNL     1       4.922   6.874  16.308  0.00  0.00    +0.000 A 
ATOM      3  C   UNL     1       4.027   6.643  17.398  0.00  0.00    +0.000 A 
ATOM      4  C   UNL     1       3.828   5.365  17.955  0.00  0.00    +0.000 A 
ATOM      5  C   UNL     1       4.566   4.333  17.281  0.00  0.00    +0.000 A 
ATOM      6  C   UNL     1       5.453   4.553  16.219  0.00  0.00    +0.000 A 
ATOM      7  O   UNL     1       4.342   2.968  17.461  0.00  0.00    +0.000 OA
ATOM      8  C   UNL     1       3.470   2.745  18.585  0.00  0.00    +0.000 C 
ATOM      9  C   UNL     1       4.481   2.995  19.776  0.00  0.00    +0.000 C 
ATOM     10  C   UNL     1       3.144   1.259  18.673  0.00  0.00    +0.000 C 
ATOM     11  C   UNL     1       2.215   3.689  18.215  0.00  0.00    +0.000 C 
ATOM     12  C   UNL     1       0.743   3.417  18.509  0.00  0.00    +0.000 C 
ATOM     13  C   UNL     1       0.632   2.896  19.867  0.00  0.00    +0.000 C 
ATOM     14  C   UNL     1       1.431   3.422  20.812  0.00  0.00    +0.000 C 
ATOM     15  C   UNL     1       1.500   2.609  22.080  0.00  0.00    +0.000 C 
ATOM     16  C   UNL     1       2.325   4.706  20.479  0.00  0.00    +0.000 C 
ATOM     17  C   UNL     1       2.575   5.015  18.863  0.00  0.00    +0.000 C 
ENDROOT
BRANCH   3  18
ATOM     18  O   UNL     1       3.252   7.683  17.836  0.00  0.00    +0.000 OA
ATOM     19  H   UNL     1       3.142   7.595  18.800  0.00  0.00    +0.000 HD
ENDBRANCH   3  18
BRANCH   1  20
ATOM     20  C   UNL     1       6.606   6.026  14.542  0.00  0.00    +0.000 C 
BRANCH  20  21
ATOM     21  C   UNL     1       7.352   4.757  14.125  0.00  0.00    +0.000 C 
BRANCH  21  23
ATOM     22  C   UNL     1       5.935   3.305  12.341  0.00  0.00    +0.000 C 
ATOM     23  C   UNL     1       6.618   3.938  13.108  0.00  0.00    +0.000 C 
BRANCH  22  24
ATOM     24  C   UNL     1       5.021   2.588  11.469  0.00  0.00    +0.000 C 
ATOM     25  O   UNL     1       3.978   3.089  11.102  0.00  0.00    +0.000 OA
BRANCH  24  27
ATOM     26  C   UNL     1       6.922   1.325  10.989  0.00  0.00    +0.000 C 
ATOM     27  O   UNL     1       5.506   1.363  11.135  0.00  0.00    +0.000 OA
ENDBRANCH  24  27
ENDBRANCH  22  24
ENDBRANCH  21  23
ENDBRANCH  20  21
ENDBRANCH   1  20
TORSDOF 6
ENDMDL
MODEL 5
REMARK VINA RESULT:      -8.1      1.610      2.402
REMARK  Name = 
REMARK  10 active torsions:
REMARK  status: ('A' for Active; 'I' for Inactive)
REMARK    1  A    between atoms: C_1  and  O_2
REMARK    2  A    between atoms: O_2  and  C_3
REMARK    3  A    between atoms: C_3  and  C_5
REMARK    4  A    between atoms: C_6  and  C_7
REMARK    5  A    between atoms: C_7  and  C_8
REMARK    6  A    between atoms: C_8  and  C_9
REMARK    7  A    between atoms: C_11  and  O_12
REMARK    8  A    between atoms: C_17  and  C_18
REMARK    9  A    between atoms: C_17  and  C_19
REMARK   10  A    between atoms: C_23  and  C_24
REMARK                            x       y       z     vdW  Elec       q    Type
REMARK                         _______ _______ _______ _____ _____    ______ ____
ROOT
ATOM      1  C   UNL     1       5.594   5.819  15.653  0.00  0.00    +0.000 A 
ATOM      2  C   UNL     1       4.883   6.865  16.267  0.00  0.00    +0.000 A 
ATOM      3  C   UNL     1       4.011   6.638  17.376  0.00  0.00    +0.000 A 
ATOM      4  C   UNL     1       3.817   5.360  17.935  0.00  0.00    +0.000 A 
ATOM      5  C   UNL     1       4.533   4.324  17.242  0.00  0.00    +0.000 A 
ATOM      6  C   UNL     1       5.397   4.542  16.161  0.00  0.00    +0.000 A 
ATOM      7  O   UNL     1       4.304   2.961  17.424  0.00  0.00    +0.000 OA
ATOM      8  C   UNL     1       3.457   2.741  18.567  0.00  0.00    +0.000 C 
ATOM      9  C   UNL     1       4.495   2.982  19.736  0.00  0.00    +0.000 C 
ATOM     10  C   UNL     1       3.123   1.257  18.660  0.00  0.00    +0.000 C 
ATOM     11  C   UNL     1       2.199   3.694  18.227  0.00  0.00    +0.000 C 
ATOM     12  C   UNL     1       0.732   3.430  18.554  0.00  0.00    +0.000 C 
ATOM     13  C   UNL     1       0.649   2.907  19.914  0.00  0.00    +0.000 C 
ATOM     14  C   UNL     1       1.472   3.426  20.841  0.00  0.00    +0.000 C 
ATOM     15  C   UNL     1       1.565   2.610  22.106  0.00  0.00    +0.000 C 
ATOM     16  C   UNL     1       2.366   4.705  20.491  0.00  0.00    +0.000 C 
ATOM     17  C   UNL     1       2.582   5.016  18.870  0.00  0.00    +0.000 C 
ENDROOT
BRANCH   3  18
ATOM     18  O   UNL     1       3.253   7.682  17.834  0.00  0.00    +0.000 OA
ATOM     19  H   UNL     1       2.322   7.398  17.846  0.00  0.00    +0.000 HD
ENDBRANCH   3  18
BRANCH   1  20
ATOM     20  C   UNL     1       6.521   6.011  14.462  0.00  0.00    +0.000 C 
BRANCH  20  21
ATOM     21  C   UNL     1       7.285   4.750  14.054  0.00  0.00    +0.000 C 
BRANCH  21  23
ATOM     22  C   UNL     1       6.016   3.176  12.262  0.00  0.00    +0.000 C 
ATOM     23  C   UNL     1       6.577   3.926  13.024  0.00  0.00    +0.000 C 
BRANCH  22  24
ATOM     24  C   UNL     1       5.345   2.195  11.428  0.00  0.00    +0.000 C 
ATOM     25  O   UNL     1       5.919   1.197  11.044  0.00  0.00    +0.000 OA
BRANCH  24  27
ATOM     26  C   UNL     1       3.897   3.853  10.657  0.00  0.00    +0.000 C 
ATOM     27  O   UNL     1       4.052   2.542  11.189  0.00  0.00    +0.000 OA
ENDBRANCH  24  27
ENDBRANCH  22  24
ENDBRANCH  21  23
ENDBRANCH  20  21
ENDBRANCH   1  20
TORSDOF 6
ENDMDL
MODEL 6
REMARK VINA RESULT:      -8.0      5.048      7.288
REMARK  Name = 
REMARK  10 active torsions:
REMARK  status: ('A' for Active; 'I' for Inactive)
REMARK    1  A    between atoms: C_1  and  O_2
REMARK    2  A    between atoms: O_2  and  C_3
REMARK    3  A    between atoms: C_3  and  C_5
REMARK    4  A    between atoms: C_6  and  C_7
REMARK    5  A    between atoms: C_7  and  C_8
REMARK    6  A    between atoms: C_8  and  C_9
REMARK    7  A    between atoms: C_11  and  O_12
REMARK    8  A    between atoms: C_17  and  C_18
REMARK    9  A    between atoms: C_17  and  C_19
REMARK   10  A    between atoms: C_23  and  C_24
REMARK                            x       y       z     vdW  Elec       q    Type
REMARK                         _______ _______ _______ _____ _____    ______ ____
ROOT
ATOM      1  C   UNL     1       7.620   7.730  17.924  0.00  0.00    +0.000 A 
ATOM      2  C   UNL     1       8.115   6.870  18.919  0.00  0.00    +0.000 A 
ATOM      3  C   UNL     1       7.359   5.757  19.400  0.00  0.00    +0.000 A 
ATOM      4  C   UNL     1       6.081   5.439  18.901  0.00  0.00    +0.000 A 
ATOM      5  C   UNL     1       5.608   6.375  17.919  0.00  0.00    +0.000 A 
ATOM      6  C   UNL     1       6.348   7.463  17.436  0.00  0.00    +0.000 A 
ATOM      7  O   UNL     1       4.288   6.440  17.474  0.00  0.00    +0.000 OA
ATOM      8  C   UNL     1       3.546   5.294  17.930  0.00  0.00    +0.000 C 
ATOM      9  C   UNL     1       4.095   4.191  16.937  0.00  0.00    +0.000 C 
ATOM     10  C   UNL     1       2.083   5.460  17.538  0.00  0.00    +0.000 C 
ATOM     11  C   UNL     1       3.825   5.338  19.519  0.00  0.00    +0.000 C 
ATOM     12  C   UNL     1       2.858   4.947  20.633  0.00  0.00    +0.000 C 
ATOM     13  C   UNL     1       2.186   3.712  20.247  0.00  0.00    +0.000 C 
ATOM     14  C   UNL     1       2.906   2.773  19.609  0.00  0.00    +0.000 C 
ATOM     15  C   UNL     1       2.074   1.701  18.951  0.00  0.00    +0.000 C 
ATOM     16  C   UNL     1       4.489   2.945  19.459  0.00  0.00    +0.000 C 
ATOM     17  C   UNL     1       5.074   4.488  19.676  0.00  0.00    +0.000 C 
ENDROOT
BRANCH   3  18
ATOM     18  O   UNL     1       7.849   5.045  20.462  0.00  0.00    +0.000 OA
ATOM     19  H   UNL     1       8.094   5.675  21.163  0.00  0.00    +0.000 HD
ENDBRANCH   3  18
BRANCH   1  20
ATOM     20  C   UNL     1       8.382   8.936  17.392  0.00  0.00    +0.000 C 
BRANCH  20  21
ATOM     21  C   UNL     1       8.858   9.903  18.478  0.00  0.00    +0.000 C 
BRANCH  21  23
ATOM     22  C   UNL     1      10.327  12.002  17.622  0.00  0.00    +0.000 C 
ATOM     23  C   UNL     1       9.682  11.037  17.952  0.00  0.00    +0.000 C 
BRANCH  22  24
ATOM     24  C   UNL     1      11.089  13.204  17.333  0.00  0.00    +0.000 C 
ATOM     25  O   UNL     1      12.081  13.168  16.634  0.00  0.00    +0.000 OA
BRANCH  24  27
ATOM     26  C   UNL     1      10.919  15.530  17.304  0.00  0.00    +0.000 C 
ATOM     27  O   UNL     1      10.532  14.301  17.910  0.00  0.00    +0.000 OA
ENDBRANCH  24  27
ENDBRANCH  22  24
ENDBRANCH  21  23
ENDBRANCH  20  21
ENDBRANCH   1  20
TORSDOF 6
ENDMDL
MODEL 7
REMARK VINA RESULT:      -7.9      4.592      7.503
REMARK  Name = 
REMARK  10 active torsions:
REMARK  status: ('A' for Active; 'I' for Inactive)
REMARK    1  A    between atoms: C_1  and  O_2
REMARK    2  A    between atoms: O_2  and  C_3
REMARK    3  A    between atoms: C_3  and  C_5
REMARK    4  A    between atoms: C_6  and  C_7
REMARK    5  A    between atoms: C_7  and  C_8
REMARK    6  A    between atoms: C_8  and  C_9
REMARK    7  A    between atoms: C_11  and  O_12
REMARK    8  A    between atoms: C_17  and  C_18
REMARK    9  A    between atoms: C_17  and  C_19
REMARK   10  A    between atoms: C_23  and  C_24
REMARK                            x       y       z     vdW  Elec       q    Type
REMARK                         _______ _______ _______ _____ _____    ______ ____
ROOT
ATOM      1  C   UNL     1       7.553   7.477  17.840  0.00  0.00    +0.000 A 
ATOM      2  C   UNL     1       8.015   6.664  18.889  0.00  0.00    +0.000 A 
ATOM      3  C   UNL     1       7.224   5.601  19.426  0.00  0.00    +0.000 A 
ATOM      4  C   UNL     1       5.942   5.290  18.933  0.00  0.00    +0.000 A 
ATOM      5  C   UNL     1       5.504   6.180  17.892  0.00  0.00    +0.000 A 
ATOM      6  C   UNL     1       6.279   7.216  17.355  0.00  0.00    +0.000 A 
ATOM      7  O   UNL     1       4.191   6.255  17.430  0.00  0.00    +0.000 OA
ATOM      8  C   UNL     1       3.413   5.159  17.944  0.00  0.00    +0.000 C 
ATOM      9  C   UNL     1       3.939   3.985  17.023  0.00  0.00    +0.000 C 
ATOM     10  C   UNL     1       1.959   5.342  17.526  0.00  0.00    +0.000 C 
ATOM     11  C   UNL     1       3.678   5.288  19.531  0.00  0.00    +0.000 C 
ATOM     12  C   UNL     1       2.691   4.990  20.655  0.00  0.00    +0.000 C 
ATOM     13  C   UNL     1       1.987   3.752  20.334  0.00  0.00    +0.000 C 
ATOM     14  C   UNL     1       2.687   2.759  19.759  0.00  0.00    +0.000 C 
ATOM     15  C   UNL     1       1.831   1.674  19.156  0.00  0.00    +0.000 C 
ATOM     16  C   UNL     1       4.275   2.878  19.617  0.00  0.00    +0.000 C 
ATOM     17  C   UNL     1       4.901   4.414  19.750  0.00  0.00    +0.000 C 
ENDROOT
BRANCH   3  18
ATOM     18  O   UNL     1       7.684   4.940  20.532  0.00  0.00    +0.000 OA
ATOM     19  H   UNL     1       8.294   5.531  21.008  0.00  0.00    +0.000 HD
ENDBRANCH   3  18
BRANCH   1  20
ATOM     20  C   UNL     1       8.354   8.628  17.247  0.00  0.00    +0.000 C 
BRANCH  20  21
ATOM     21  C   UNL     1       8.063   9.987  17.888  0.00  0.00    +0.000 C 
BRANCH  21  23
ATOM     22  C   UNL     1      10.020  10.997  19.453  0.00  0.00    +0.000 C 
ATOM     23  C   UNL     1       9.181  10.497  18.745  0.00  0.00    +0.000 C 
BRANCH  22  24
ATOM     24  C   UNL     1      10.954  11.683  20.328  0.00  0.00    +0.000 C 
ATOM     25  O   UNL     1      12.150  11.646  20.126  0.00  0.00    +0.000 OA
BRANCH  24  27
ATOM     26  C   UNL     1      10.207  13.750  21.107  0.00  0.00    +0.000 C 
ATOM     27  O   UNL     1      10.311  12.347  21.325  0.00  0.00    +0.000 OA
ENDBRANCH  24  27
ENDBRANCH  22  24
ENDBRANCH  21  23
ENDBRANCH  20  21
ENDBRANCH   1  20
TORSDOF 6
ENDMDL
MODEL 8
REMARK VINA RESULT:      -7.8      4.475      7.733
REMARK  Name = 
REMARK  10 active torsions:
REMARK  status: ('A' for Active; 'I' for Inactive)
REMARK    1  A    between atoms: C_1  and  O_2
REMARK    2  A    between atoms: O_2  and  C_3
REMARK    3  A    between atoms: C_3  and  C_5
REMARK    4  A    between atoms: C_6  and  C_7
REMARK    5  A    between atoms: C_7  and  C_8
REMARK    6  A    between atoms: C_8  and  C_9
REMARK    7  A    between atoms: C_11  and  O_12
REMARK    8  A    between atoms: C_17  and  C_18
REMARK    9  A    between atoms: C_17  and  C_19
REMARK   10  A    between atoms: C_23  and  C_24
REMARK                            x       y       z     vdW  Elec       q    Type
REMARK                         _______ _______ _______ _____ _____    ______ ____
ROOT
ATOM      1  C   UNL     1       7.233   7.064  18.190  0.00  0.00    +0.000 A 
ATOM      2  C   UNL     1       6.401   7.327  17.088  0.00  0.00    +0.000 A 
ATOM      3  C   UNL     1       5.173   6.625  16.883  0.00  0.00    +0.000 A 
ATOM      4  C   UNL     1       4.710   5.637  17.775  0.00  0.00    +0.000 A 
ATOM      5  C   UNL     1       5.620   5.380  18.857  0.00  0.00    +0.000 A 
ATOM      6  C   UNL     1       6.819   6.072  19.069  0.00  0.00    +0.000 A 
ATOM      7  O   UNL     1       5.526   4.281  19.711  0.00  0.00    +0.000 OA
ATOM      8  C   UNL     1       4.270   3.604  19.525  0.00  0.00    +0.000 C 
ATOM      9  C   UNL     1       3.301   4.599  20.284  0.00  0.00    +0.000 C 
ATOM     10  C   UNL     1       4.255   2.341  20.376  0.00  0.00    +0.000 C 
ATOM     11  C   UNL     1       4.274   3.342  17.932  0.00  0.00    +0.000 C 
ATOM     12  C   UNL     1       3.702   2.133  17.198  0.00  0.00    +0.000 C 
ATOM     13  C   UNL     1       2.407   1.808  17.786  0.00  0.00    +0.000 C 
ATOM     14  C   UNL     1       1.607   2.824  18.153  0.00  0.00    +0.000 C 
ATOM     15  C   UNL     1       0.465   2.414  19.049  0.00  0.00    +0.000 C 
ATOM     16  C   UNL     1       1.999   4.328  17.774  0.00  0.00    +0.000 C 
ATOM     17  C   UNL     1       3.594   4.582  17.375  0.00  0.00    +0.000 C 
ENDROOT
BRANCH   3  18
ATOM     18  O   UNL     1       4.485   6.840  15.720  0.00  0.00    +0.000 OA
ATOM     19  H   UNL     1       5.121   6.832  14.984  0.00  0.00    +0.000 HD
ENDBRANCH   3  18
BRANCH   1  20
ATOM     20  C   UNL     1       8.555   7.775  18.440  0.00  0.00    +0.000 C 
BRANCH  20  21
ATOM     21  C   UNL     1       8.534   9.268  18.107  0.00  0.00    +0.000 C 
BRANCH  21  23
ATOM     22  C   UNL     1       9.789  10.878  19.877  0.00  0.00    +0.000 C 
ATOM     23  C   UNL     1       9.217  10.121  19.132  0.00  0.00    +0.000 C 
BRANCH  22  24
ATOM     24  C   UNL     1      10.487  11.862  20.686  0.00  0.00    +0.000 C 
ATOM     25  O   UNL     1       9.943  12.405  21.625  0.00  0.00    +0.000 OA
BRANCH  24  27
ATOM     26  C   UNL     1      11.869  12.538  18.933  0.00  0.00    +0.000 C 
ATOM     27  O   UNL     1      11.767  12.040  20.263  0.00  0.00    +0.000 OA
ENDBRANCH  24  27
ENDBRANCH  22  24
ENDBRANCH  21  23
ENDBRANCH  20  21
ENDBRANCH   1  20
TORSDOF 6
ENDMDL
MODEL 9
REMARK VINA RESULT:      -7.8      5.784      9.729
REMARK  Name = 
REMARK  10 active torsions:
REMARK  status: ('A' for Active; 'I' for Inactive)
REMARK    1  A    between atoms: C_1  and  O_2
REMARK    2  A    between atoms: O_2  and  C_3
REMARK    3  A    between atoms: C_3  and  C_5
REMARK    4  A    between atoms: C_6  and  C_7
REMARK    5  A    between atoms: C_7  and  C_8
REMARK    6  A    between atoms: C_8  and  C_9
REMARK    7  A    between atoms: C_11  and  O_12
REMARK    8  A    between atoms: C_17  and  C_18
REMARK    9  A    between atoms: C_17  and  C_19
REMARK   10  A    between atoms: C_23  and  C_24
REMARK                            x       y       z     vdW  Elec       q    Type
REMARK                         _______ _______ _______ _____ _____    ______ ____
ROOT
ATOM      1  C   UNL     1       1.040   9.390  20.448  0.00  0.00    +0.000 A 
ATOM      2  C   UNL     1       1.511   9.503  19.129  0.00  0.00    +0.000 A 
ATOM      3  C   UNL     1       2.037   8.382  18.416  0.00  0.00    +0.000 A 
ATOM      4  C   UNL     1       2.105   7.092  18.979  0.00  0.00    +0.000 A 
ATOM      5  C   UNL     1       1.652   7.045  20.342  0.00  0.00    +0.000 A 
ATOM      6  C   UNL     1       1.126   8.138  21.042  0.00  0.00    +0.000 A 
ATOM      7  O   UNL     1       1.864   5.966  21.198  0.00  0.00    +0.000 OA
ATOM      8  C   UNL     1       2.356   4.830  20.465  0.00  0.00    +0.000 C 
ATOM      9  C   UNL     1       1.020   4.344  19.771  0.00  0.00    +0.000 C 
ATOM     10  C   UNL     1       2.698   3.715  21.445  0.00  0.00    +0.000 C 
ATOM     11  C   UNL     1       3.627   5.464  19.697  0.00  0.00    +0.000 C 
ATOM     12  C   UNL     1       4.947   4.770  19.377  0.00  0.00    +0.000 C 
ATOM     13  C   UNL     1       4.655   3.423  18.896  0.00  0.00    +0.000 C 
ATOM     14  C   UNL     1       3.585   3.256  18.100  0.00  0.00    +0.000 C 
ATOM     15  C   UNL     1       3.162   1.817  17.935  0.00  0.00    +0.000 C 
ATOM     16  C   UNL     1       2.786   4.529  17.554  0.00  0.00    +0.000 C 
ATOM     17  C   UNL     1       3.033   5.949  18.386  0.00  0.00    +0.000 C 
ENDROOT
BRANCH   3  18
ATOM     18  O   UNL     1       2.598   8.595  17.186  0.00  0.00    +0.000 OA
ATOM     19  H   UNL     1       2.005   8.221  16.511  0.00  0.00    +0.000 HD
ENDBRANCH   3  18
BRANCH   1  20
ATOM     20  C   UNL     1       0.486  10.559  21.251  0.00  0.00    +0.000 C 
BRANCH  20  21
ATOM     21  C   UNL     1      -0.314  10.144  22.487  0.00  0.00    +0.000 C 
BRANCH  21  23
ATOM     22  C   UNL     1      -2.279  11.850  23.212  0.00  0.00    +0.000 C 
ATOM     23  C   UNL     1      -1.364  11.135  22.883  0.00  0.00    +0.000 C 
BRANCH  22  24
ATOM     24  C   UNL     1      -3.441  12.615  23.629  0.00  0.00    +0.000 C 
ATOM     25  O   UNL     1      -3.364  13.450  24.507  0.00  0.00    +0.000 OA
BRANCH  24  27
ATOM     26  C   UNL     1      -4.528  12.784  21.573  0.00  0.00    +0.000 C 
ATOM     27  O   UNL     1      -4.544  12.284  22.906  0.00  0.00    +0.000 OA
ENDBRANCH  24  27
ENDBRANCH  22  24
ENDBRANCH  21  23
ENDBRANCH  20  21
ENDBRANCH   1  20
TORSDOF 6
ENDMDL
