MODEL 1
REMARK VINA RESULT:      -8.3      0.000      0.000
REMARK  Name = 
REMARK  13 active torsions:
REMARK  status: ('A' for Active; 'I' for Inactive)
REMARK    1  A    between atoms: C_1  and  C_2
REMARK    2  A    between atoms: C_2  and  C_3
REMARK    3  A    between atoms: C_3  and  C_4
REMARK    4  A    between atoms: C_4  and  N_5
REMARK    5  A    between atoms: C_6  and  C_8
REMARK    6  A    between atoms: C_11  and  C_12
REMARK    7  A    between atoms: C_12  and  S_13
REMARK    8  A    between atoms: S_13  and  C_16
REMARK    9  A    between atoms: C_22  and  C_23
REMARK   10  A    between atoms: N_25  and  C_26
REMARK   11  A    between atoms: C_26  and  C_27
REMARK   12  A    between atoms: C_27  and  C_28
REMARK   13  A    between atoms: C_28  and  C_29
REMARK                            x       y       z     vdW  Elec       q    Type
REMARK                         _______ _______ _______ _____ _____    ______ ____
ROOT
ATOM      1  C   UNL     1       5.645   4.598  16.253  0.00  0.00    +0.000 A 
ATOM      2  O   UNL     1       4.403   4.053  16.148  0.00  0.00    +0.000 OA
ATOM      3  N   UNL     1       3.773   4.060  17.365  0.00  0.00    +0.000 NA
ATOM      4  C   UNL     1       4.647   4.574  18.239  0.00  0.00    +0.000 A 
ATOM      5  C   UNL     1       5.850   4.996  17.567  0.00  0.00    +0.000 A 
ENDROOT
BRANCH   1   7
ATOM      6  N   UNL     1       5.937   3.947  13.980  0.00  0.00    +0.000 N 
ATOM      7  C   UNL     1       6.444   4.658  15.047  0.00  0.00    +0.000 C 
ATOM      8  O   UNL     1       7.515   5.254  14.969  0.00  0.00    +0.000 OA
ATOM      9  H   UNL     1       5.119   3.370  14.138  0.00  0.00    +0.000 HD
BRANCH   6  10
ATOM     10  C   UNL     1       6.677   3.779  12.748  0.00  0.00    +0.000 C 
BRANCH  10  11
ATOM     11  C   UNL     1       5.936   2.858  11.784  0.00  0.00    +0.000 C 
BRANCH  11  13
ATOM     12  C   UNL     1       6.165   0.440  11.118  0.00  0.00    +0.000 C 
ATOM     13  C   UNL     1       6.866   1.784  11.225  0.00  0.00    +0.000 C 
ENDBRANCH  11  13
ENDBRANCH  10  11
ENDBRANCH   6  10
ENDBRANCH   1   7
BRANCH   5  14
ATOM     14  C   UNL     1       6.981   5.698  18.146  0.00  0.00    +0.000 C 
ATOM     15  O   UNL     1       7.702   5.128  18.965  0.00  0.00    +0.000 OA
ATOM     16  N   UNL     1       7.205   6.997  17.754  0.00  0.00    +0.000 N 
ATOM     17  H   UNL     1       6.563   7.459  17.112  0.00  0.00    +0.000 HD
BRANCH  16  18
ATOM     18  C   UNL     1       8.309   7.787  18.251  0.00  0.00    +0.000 C 
BRANCH  18  19
ATOM     19  C   UNL     1       8.124   9.273  17.957  0.00  0.00    +0.000 C 
BRANCH  19  20
ATOM     20  C   UNL     1       9.056  10.153  18.790  0.00  0.00    +0.000 C 
ATOM     21  C   UNL     1       9.272  11.501  18.122  0.00  0.00    +0.000 C 
ENDBRANCH  19  20
ENDBRANCH  18  19
ENDBRANCH  16  18
ENDBRANCH   5  14
BRANCH   4  22
ATOM     22  C   UNL     1       4.264   4.607  19.692  0.00  0.00    +0.000 C 
BRANCH  22  23
ATOM     23  S   UNL     1       2.513   4.963  19.862  0.00  0.00    +0.000 S 
ATOM     24  O   UNL     1       1.790   4.258  18.820  0.00  0.00    +0.000 OA
ATOM     25  O   UNL     1       2.138   4.765  21.251  0.00  0.00    +0.000 OA
BRANCH  23  26
ATOM     26  C   UNL     1       2.272   6.711  19.528  0.00  0.00    +0.000 A 
ATOM     27  C   UNL     1       2.483   7.200  18.229  0.00  0.00    +0.000 A 
ATOM     28  C   UNL     1       2.095   8.505  17.895  0.00  0.00    +0.000 A 
ATOM     29  C   UNL     1       1.500   9.319  18.858  0.00  0.00    +0.000 A 
ATOM     30  C   UNL     1       1.293   8.835  20.151  0.00  0.00    +0.000 A 
ATOM     31  C   UNL     1       1.676   7.530  20.491  0.00  0.00    +0.000 A 
ENDBRANCH  23  26
ENDBRANCH  22  23
ENDBRANCH   4  22
TORSDOF 11
ENDMDL
MODEL 2
REMARK VINA RESULT:      -8.2      1.543      5.936
REMARK  Name = 
REMARK  13 active torsions:
REMARK  status: ('A' for Active; 'I' for Inactive)
REMARK    1  A    between atoms: C_1  and  C_2
REMARK    2  A    between atoms: C_2  and  C_3
REMARK    3  A    between atoms: C_3  and  C_4
REMARK    4  A    between atoms: C_4  and  N_5
REMARK    5  A    between atoms: C_6  and  C_8
REMARK    6  A    between atoms: C_11  and  C_12
REMARK    7  A    between atoms: C_12  and  S_13
REMARK    8  A    between atoms: S_13  and  C_16
REMARK    9  A    between atoms: C_22  and  C_23
REMARK   10  A    between atoms: N_25  and  C_26
REMARK   11  A    between atoms: C_26  and  C_27
REMARK   12  A    between atoms: C_27  and  C_28
REMARK   13  A    between atoms: C_28  and  C_29
REMARK                            x       y       z     vdW  Elec       q    Type
REMARK                         _______ _______ _______ _____ _____    ______ ____
ROOT
ATOM      1  C   UNL     1       6.367   5.499  18.008  0.00  0.00    +0.000 A 
ATOM      2  O   UNL     1       6.272   5.544  19.365  0.00  0.00    +0.000 OA
ATOM      3  N   UNL     1       5.482   4.522  19.823  0.00  0.00    +0.000 NA
ATOM      4  C   UNL     1       5.050   3.864  18.740  0.00  0.00    +0.000 A 
ATOM      5  C   UNL     1       5.638   4.413  17.544  0.00  0.00    +0.000 A 
ENDROOT
BRANCH   1   7
ATOM      6  N   UNL     1       7.473   7.603  18.167  0.00  0.00    +0.000 N 
ATOM      7  C   UNL     1       7.166   6.522  17.369  0.00  0.00    +0.000 C 
ATOM      8  O   UNL     1       7.522   6.473  16.193  0.00  0.00    +0.000 OA
ATOM      9  H   UNL     1       7.047   7.651  19.086  0.00  0.00    +0.000 HD
BRANCH   6  10
ATOM     10  C   UNL     1       8.138   8.778  17.647  0.00  0.00    +0.000 C 
BRANCH  10  11
ATOM     11  C   UNL     1       8.824   9.558  18.764  0.00  0.00    +0.000 C 
BRANCH  11  13
ATOM     12  C   UNL     1      10.374  11.474  19.288  0.00  0.00    +0.000 C 
ATOM     13  C   UNL     1       9.556  10.779  18.212  0.00  0.00    +0.000 C 
ENDBRANCH  11  13
ENDBRANCH  10  11
ENDBRANCH   6  10
ENDBRANCH   1   7
BRANCH   5  14
ATOM     14  C   UNL     1       5.508   3.909  16.188  0.00  0.00    +0.000 C 
ATOM     15  O   UNL     1       5.603   2.701  15.972  0.00  0.00    +0.000 OA
ATOM     16  N   UNL     1       5.285   4.817  15.180  0.00  0.00    +0.000 N 
ATOM     17  H   UNL     1       5.261   5.815  15.381  0.00  0.00    +0.000 HD
BRANCH  16  18
ATOM     18  C   UNL     1       5.124   4.429  13.796  0.00  0.00    +0.000 C 
BRANCH  18  19
ATOM     19  C   UNL     1       6.419   3.879  13.204  0.00  0.00    +0.000 C 
BRANCH  19  20
ATOM     20  C   UNL     1       6.169   2.952  12.014  0.00  0.00    +0.000 C 
ATOM     21  C   UNL     1       4.753   3.113  11.487  0.00  0.00    +0.000 C 
ENDBRANCH  19  20
ENDBRANCH  18  19
ENDBRANCH  16  18
ENDBRANCH   5  14
BRANCH   4  22
ATOM     22  C   UNL     1       4.067   2.744  18.933  0.00  0.00    +0.000 C 
BRANCH  22  23
ATOM     23  S   UNL     1       2.442   3.241  18.356  0.00  0.00    +0.000 S 
ATOM     24  O   UNL     1       2.451   3.268  16.904  0.00  0.00    +0.000 OA
ATOM     25  O   UNL     1       1.445   2.444  19.049  0.00  0.00    +0.000 OA
BRANCH  23  26
ATOM     26  C   UNL     1       2.169   4.938  18.876  0.00  0.00    +0.000 A 
ATOM     27  C   UNL     1       1.881   5.209  20.223  0.00  0.00    +0.000 A 
ATOM     28  C   UNL     1       1.879   6.530  20.692  0.00  0.00    +0.000 A 
ATOM     29  C   UNL     1       2.163   7.577  19.816  0.00  0.00    +0.000 A 
ATOM     30  C   UNL     1       2.446   7.309  18.476  0.00  0.00    +0.000 A 
ATOM     31  C   UNL     1       2.453   5.990  18.000  0.00  0.00    +0.000 A 
ENDBRANCH  23  26
ENDBRANCH  22  23
ENDBRANCH   4  22
TORSDOF 11
ENDMDL
MODEL 3
REMARK VINA RESULT:      -8.1      1.442      5.836
REMARK  Name = 
REMARK  13 active torsions:
REMARK  status: ('A' for Active; 'I' for Inactive)
REMARK    1  A    between atoms: C_1  and  C_2
REMARK    2  A    between atoms: C_2  and  C_3
REMARK    3  A    between atoms: C_3  and  C_4
REMARK    4  A    between atoms: C_4  and  N_5
REMARK    5  A    between atoms: C_6  and  C_8
REMARK    6  A    between atoms: C_11  and  C_12
REMARK    7  A    between atoms: C_12  and  S_13
REMARK    8  A    between atoms: S_13  and  C_16
REMARK    9  A    between atoms: C_22  and  C_23
REMARK   10  A    between atoms: N_25  and  C_26
REMARK   11  A    between atoms: C_26  and  C_27
REMARK   12  A    between atoms: C_27  and  C_28
REMARK   13  A    between atoms: C_28  and  C_29
REMARK                            x       y       z     vdW  Elec       q    Type
REMARK                         _______ _______ _______ _____ _____    ______ ____
ROOT
ATOM      1  C   UNL     1       6.488   5.471  18.407  0.00  0.00    +0.000 A 
ATOM      2  O   UNL     1       6.144   4.899  19.593  0.00  0.00    +0.000 OA
ATOM      3  N   UNL     1       5.173   3.952  19.404  0.00  0.00    +0.000 NA
ATOM      4  C   UNL     1       4.882   3.965  18.097  0.00  0.00    +0.000 A 
ATOM      5  C   UNL     1       5.742   4.883  17.394  0.00  0.00    +0.000 A 
ENDROOT
BRANCH   1   7
ATOM      6  N   UNL     1       7.320   7.527  17.536  0.00  0.00    +0.000 N 
ATOM      7  C   UNL     1       7.503   6.502  18.441  0.00  0.00    +0.000 C 
ATOM      8  O   UNL     1       8.483   6.468  19.180  0.00  0.00    +0.000 OA
ATOM      9  H   UNL     1       6.567   7.439  16.864  0.00  0.00    +0.000 HD
BRANCH   6  10
ATOM     10  C   UNL     1       8.313   8.560  17.336  0.00  0.00    +0.000 C 
BRANCH  10  11
ATOM     11  C   UNL     1       8.103   9.718  18.306  0.00  0.00    +0.000 C 
BRANCH  11  13
ATOM     12  C   UNL     1       9.403  10.930  20.091  0.00  0.00    +0.000 C 
ATOM     13  C   UNL     1       9.432  10.371  18.678  0.00  0.00    +0.000 C 
ENDBRANCH  11  13
ENDBRANCH  10  11
ENDBRANCH   6  10
ENDBRANCH   1   7
BRANCH   5  14
ATOM     14  C   UNL     1       5.814   5.100  15.960  0.00  0.00    +0.000 C 
ATOM     15  O   UNL     1       5.461   6.180  15.486  0.00  0.00    +0.000 OA
ATOM     16  N   UNL     1       6.277   4.072  15.174  0.00  0.00    +0.000 N 
ATOM     17  H   UNL     1       6.515   3.172  15.588  0.00  0.00    +0.000 HD
BRANCH  16  18
ATOM     18  C   UNL     1       6.407   4.180  13.738  0.00  0.00    +0.000 C 
BRANCH  18  19
ATOM     19  C   UNL     1       5.154   3.694  13.015  0.00  0.00    +0.000 C 
BRANCH  19  20
ATOM     20  C   UNL     1       5.477   2.741  11.863  0.00  0.00    +0.000 C 
ATOM     21  C   UNL     1       6.966   2.738  11.561  0.00  0.00    +0.000 C 
ENDBRANCH  19  20
ENDBRANCH  18  19
ENDBRANCH  16  18
ENDBRANCH   5  14
BRANCH   4  22
ATOM     22  C   UNL     1       3.761   3.091  17.609  0.00  0.00    +0.000 C 
BRANCH  22  23
ATOM     23  S   UNL     1       2.231   3.528  18.438  0.00  0.00    +0.000 S 
ATOM     24  O   UNL     1       1.139   3.424  17.487  0.00  0.00    +0.000 OA
ATOM     25  O   UNL     1       2.160   2.792  19.688  0.00  0.00    +0.000 OA
BRANCH  23  26
ATOM     26  C   UNL     1       2.324   5.263  18.889  0.00  0.00    +0.000 A 
ATOM     27  C   UNL     1       2.443   6.233  17.880  0.00  0.00    +0.000 A 
ATOM     28  C   UNL     1       2.300   7.592  18.189  0.00  0.00    +0.000 A 
ATOM     29  C   UNL     1       2.040   7.982  19.502  0.00  0.00    +0.000 A 
ATOM     30  C   UNL     1       1.926   7.019  20.506  0.00  0.00    +0.000 A 
ATOM     31  C   UNL     1       2.064   5.657  20.205  0.00  0.00    +0.000 A 
ENDBRANCH  23  26
ENDBRANCH  22  23
ENDBRANCH   4  22
TORSDOF 11
ENDMDL
MODEL 4
REMARK VINA RESULT:      -8.0      2.194      2.929
REMARK  Name = 
REMARK  13 active torsions:
REMARK  status: ('A' for Active; 'I' for Inactive)
REMARK    1  A    between atoms: C_1  and  C_2
REMARK    2  A    between atoms: C_2  and  C_3
REMARK    3  A    between atoms: C_3  and  C_4
REMARK    4  A    between atoms: C_4  and  N_5
REMARK    5  A    between atoms: C_6  and  C_8
REMARK    6  A    between atoms: C_11  and  C_12
REMARK    7  A    between atoms: C_12  and  S_13
REMARK    8  A    between atoms: S_13  and  C_16
REMARK    9  A    between atoms: C_22  and  C_23
REMARK   10  A    between atoms: N_25  and  C_26
REMARK   11  A    between atoms: C_26  and  C_27
REMARK   12  A    between atoms: C_27  and  C_28
REMARK   13  A    between atoms: C_28  and  C_29
REMARK                            x       y       z     vdW  Elec       q    Type
REMARK                         _______ _______ _______ _____ _____    ______ ____
ROOT
ATOM      1  C   UNL     1       6.004   4.592  15.984  0.00  0.00    +0.000 A 
ATOM      2  O   UNL     1       5.371   3.475  16.435  0.00  0.00    +0.000 OA
ATOM      3  N   UNL     1       4.781   3.717  17.648  0.00  0.00    +0.000 NA
ATOM      4  C   UNL     1       5.085   4.980  17.970  0.00  0.00    +0.000 A 
ATOM      5  C   UNL     1       5.822   5.614  16.905  0.00  0.00    +0.000 A 
ENDROOT
BRANCH   1   7
ATOM      6  N   UNL     1       6.125   3.606  13.818  0.00  0.00    +0.000 N 
ATOM      7  C   UNL     1       6.686   4.495  14.710  0.00  0.00    +0.000 C 
ATOM      8  O   UNL     1       7.711   5.115  14.438  0.00  0.00    +0.000 OA
ATOM      9  H   UNL     1       5.358   3.028  14.141  0.00  0.00    +0.000 HD
BRANCH   6  10
ATOM     10  C   UNL     1       6.759   3.278  12.560  0.00  0.00    +0.000 C 
BRANCH  10  11
ATOM     11  C   UNL     1       5.855   3.631  11.382  0.00  0.00    +0.000 C 
BRANCH  11  13
ATOM     12  C   UNL     1       3.493   3.588  10.507  0.00  0.00    +0.000 C 
ATOM     13  C   UNL     1       4.428   3.140  11.618  0.00  0.00    +0.000 C 
ENDBRANCH  11  13
ENDBRANCH  10  11
ENDBRANCH   6  10
ENDBRANCH   1   7
BRANCH   5  14
ATOM     14  C   UNL     1       6.236   7.003  16.826  0.00  0.00    +0.000 C 
ATOM     15  O   UNL     1       5.596   7.794  16.131  0.00  0.00    +0.000 OA
ATOM     16  N   UNL     1       7.347   7.388  17.537  0.00  0.00    +0.000 N 
ATOM     17  H   UNL     1       7.886   6.702  18.062  0.00  0.00    +0.000 HD
BRANCH  16  18
ATOM     18  C   UNL     1       7.841   8.747  17.545  0.00  0.00    +0.000 C 
BRANCH  18  19
ATOM     19  C   UNL     1       8.730   9.023  18.755  0.00  0.00    +0.000 C 
BRANCH  19  20
ATOM     20  C   UNL     1       9.230  10.467  18.795  0.00  0.00    +0.000 C 
ATOM     21  C   UNL     1       9.556  10.891  20.218  0.00  0.00    +0.000 C 
ENDBRANCH  19  20
ENDBRANCH  18  19
ENDBRANCH  16  18
ENDBRANCH   5  14
BRANCH   4  22
ATOM     22  C   UNL     1       4.655   5.495  19.315  0.00  0.00    +0.000 C 
BRANCH  22  23
ATOM     23  S   UNL     1       2.936   6.006  19.261  0.00  0.00    +0.000 S 
ATOM     24  O   UNL     1       2.683   6.909  20.369  0.00  0.00    +0.000 OA
ATOM     25  O   UNL     1       2.626   6.432  17.907  0.00  0.00    +0.000 OA
BRANCH  23  26
ATOM     26  C   UNL     1       1.921   4.557  19.568  0.00  0.00    +0.000 A 
ATOM     27  C   UNL     1       1.398   3.838  18.481  0.00  0.00    +0.000 A 
ATOM     28  C   UNL     1       0.792   2.591  18.687  0.00  0.00    +0.000 A 
ATOM     29  C   UNL     1       0.706   2.066  19.976  0.00  0.00    +0.000 A 
ATOM     30  C   UNL     1       1.221   2.782  21.058  0.00  0.00    +0.000 A 
ATOM     31  C   UNL     1       1.833   4.028  20.859  0.00  0.00    +0.000 A 
ENDBRANCH  23  26
ENDBRANCH  22  23
ENDBRANCH   4  22
TORSDOF 11
ENDMDL
MODEL 5
REMARK VINA RESULT:      -7.9      1.174      1.572
REMARK  Name = 
REMARK  13 active torsions:
REMARK  status: ('A' for Active; 'I' for Inactive)
REMARK    1  A    between atoms: C_1  and  C_2
REMARK    2  A    between atoms: C_2  and  C_3
REMARK    3  A    between atoms: C_3  and  C_4
REMARK    4  A    between atoms: C_4  and  N_5
REMARK    5  A    between atoms: C_6  and  C_8
REMARK    6  A    between atoms: C_11  and  C_12
REMARK    7  A    between atoms: C_12  and  S_13
REMARK    8  A    between atoms: S_13  and  C_16
REMARK    9  A    between atoms: C_22  and  C_23
REMARK   10  A    between atoms: N_25  and  C_26
REMARK   11  A    between atoms: C_26  and  C_27
REMARK   12  A    between atoms: C_27  and  C_28
REMARK   13  A    between atoms: C_28  and  C_29
REMARK                            x       y       z     vdW  Elec       q    Type
REMARK                         _______ _______ _______ _____ _____    ______ ____
ROOT
ATOM      1  C   UNL     1       5.199   4.283  16.526  0.00  0.00    +0.000 A 
ATOM      2  O   UNL     1       4.097   3.509  16.331  0.00  0.00    +0.000 OA
ATOM      3  N   UNL     1       3.538   3.160  17.533  0.00  0.00    +0.000 NA
ATOM      4  C   UNL     1       4.324   3.686  18.481  0.00  0.00    +0.000 A 
ATOM      5  C   UNL     1       5.377   4.472  17.890  0.00  0.00    +0.000 A 
ENDROOT
BRANCH   1   7
ATOM      6  N   UNL     1       6.210   3.736  14.439  0.00  0.00    +0.000 N 
ATOM      7  C   UNL     1       5.909   4.729  15.347  0.00  0.00    +0.000 C 
ATOM      8  O   UNL     1       6.263   5.892  15.164  0.00  0.00    +0.000 OA
ATOM      9  H   UNL     1       6.008   2.778  14.699  0.00  0.00    +0.000 HD
BRANCH   6  10
ATOM     10  C   UNL     1       7.039   3.981  13.279  0.00  0.00    +0.000 C 
BRANCH  10  11
ATOM     11  C   UNL     1       6.320   3.577  11.996  0.00  0.00    +0.000 C 
BRANCH  11  13
ATOM     12  C   UNL     1       4.021   3.312  11.003  0.00  0.00    +0.000 C 
ATOM     13  C   UNL     1       4.857   3.237  12.269  0.00  0.00    +0.000 C 
ENDBRANCH  11  13
ENDBRANCH  10  11
ENDBRANCH   6  10
ENDBRANCH   1   7
BRANCH   5  14
ATOM     14  C   UNL     1       6.361   5.288  18.580  0.00  0.00    +0.000 C 
ATOM     15  O   UNL     1       6.574   5.106  19.779  0.00  0.00    +0.000 OA
ATOM     16  N   UNL     1       7.023   6.251  17.857  0.00  0.00    +0.000 N 
ATOM     17  H   UNL     1       6.791   6.413  16.879  0.00  0.00    +0.000 HD
BRANCH  16  18
ATOM     18  C   UNL     1       8.033   7.110  18.435  0.00  0.00    +0.000 C 
BRANCH  18  19
ATOM     19  C   UNL     1       8.009   8.508  17.826  0.00  0.00    +0.000 C 
BRANCH  19  20
ATOM     20  C   UNL     1       8.776   9.527  18.670  0.00  0.00    +0.000 C 
ATOM     21  C   UNL     1       8.852  10.871  17.965  0.00  0.00    +0.000 C 
ENDBRANCH  19  20
ENDBRANCH  18  19
ENDBRANCH  16  18
ENDBRANCH   5  14
BRANCH   4  22
ATOM     22  C   UNL     1       4.013   3.373  19.918  0.00  0.00    +0.000 C 
BRANCH  22  23
ATOM     23  S   UNL     1       2.308   3.795  20.287  0.00  0.00    +0.000 S 
ATOM     24  O   UNL     1       1.437   3.003  19.437  0.00  0.00    +0.000 OA
ATOM     25  O   UNL     1       2.128   3.756  21.727  0.00  0.00    +0.000 OA
BRANCH  23  26
ATOM     26  C   UNL     1       2.046   5.503  19.800  0.00  0.00    +0.000 A 
ATOM     27  C   UNL     1       1.745   6.462  20.782  0.00  0.00    +0.000 A 
ATOM     28  C   UNL     1       1.751   7.826  20.460  0.00  0.00    +0.000 A 
ATOM     29  C   UNL     1       2.055   8.230  19.160  0.00  0.00    +0.000 A 
ATOM     30  C   UNL     1       2.350   7.278  18.183  0.00  0.00    +0.000 A 
ATOM     31  C   UNL     1       2.349   5.912  18.498  0.00  0.00    +0.000 A 
ENDBRANCH  23  26
ENDBRANCH  22  23
ENDBRANCH   4  22
TORSDOF 11
ENDMDL
MODEL 6
REMARK VINA RESULT:      -7.8      3.059      8.464
REMARK  Name = 
REMARK  13 active torsions:
REMARK  status: ('A' for Active; 'I' for Inactive)
REMARK    1  A    between atoms: C_1  and  C_2
REMARK    2  A    between atoms: C_2  and  C_3
REMARK    3  A    between atoms: C_3  and  C_4
REMARK    4  A    between atoms: C_4  and  N_5
REMARK    5  A    between atoms: C_6  and  C_8
REMARK    6  A    between atoms: C_11  and  C_12
REMARK    7  A    between atoms: C_12  and  S_13
REMARK    8  A    between atoms: S_13  and  C_16
REMARK    9  A    between atoms: C_22  and  C_23
REMARK   10  A    between atoms: N_25  and  C_26
REMARK   11  A    between atoms: C_26  and  C_27
REMARK   12  A    between atoms: C_27  and  C_28
REMARK   13  A    between atoms: C_28  and  C_29
REMARK                            x       y       z     vdW  Elec       q    Type
REMARK                         _______ _______ _______ _____ _____    ______ ____
ROOT
ATOM      1  C   UNL     1       3.073   7.572  17.734  0.00  0.00    +0.000 A 
ATOM      2  O   UNL     1       3.851   7.930  16.676  0.00  0.00    +0.000 OA
ATOM      3  N   UNL     1       4.701   6.910  16.340  0.00  0.00    +0.000 NA
ATOM      4  C   UNL     1       4.478   5.928  17.222  0.00  0.00    +0.000 A 
ATOM      5  C   UNL     1       3.396   6.275  18.108  0.00  0.00    +0.000 A 
ENDROOT
BRANCH   1   7
ATOM      6  N   UNL     1       1.831   8.466  19.560  0.00  0.00    +0.000 N 
ATOM      7  C   UNL     1       2.122   8.551  18.215  0.00  0.00    +0.000 C 
ATOM      8  O   UNL     1       1.571   9.378  17.492  0.00  0.00    +0.000 OA
ATOM      9  H   UNL     1       2.215   7.686  20.081  0.00  0.00    +0.000 HD
BRANCH   6  10
ATOM     10  C   UNL     1       0.797   9.269  20.175  0.00  0.00    +0.000 C 
BRANCH  10  11
ATOM     11  C   UNL     1       0.227   8.578  21.410  0.00  0.00    +0.000 C 
BRANCH  11  13
ATOM     12  C   UNL     1      -0.758  10.172  23.093  0.00  0.00    +0.000 C 
ATOM     13  C   UNL     1       0.482   9.403  22.668  0.00  0.00    +0.000 C 
ENDBRANCH  11  13
ENDBRANCH  10  11
ENDBRANCH   6  10
ENDBRANCH   1   7
BRANCH   5  14
ATOM     14  C   UNL     1       2.785   5.436  19.123  0.00  0.00    +0.000 C 
ATOM     15  O   UNL     1       3.128   5.550  20.300  0.00  0.00    +0.000 OA
ATOM     16  N   UNL     1       1.835   4.526  18.723  0.00  0.00    +0.000 N 
ATOM     17  H   UNL     1       1.607   4.419  17.736  0.00  0.00    +0.000 HD
BRANCH  16  18
ATOM     18  C   UNL     1       1.149   3.651  19.647  0.00  0.00    +0.000 C 
BRANCH  18  19
ATOM     19  C   UNL     1       1.616   2.204  19.514  0.00  0.00    +0.000 C 
BRANCH  19  20
ATOM     20  C   UNL     1       3.138   2.087  19.432  0.00  0.00    +0.000 C 
ATOM     21  C   UNL     1       3.570   1.541  18.081  0.00  0.00    +0.000 C 
ENDBRANCH  19  20
ENDBRANCH  18  19
ENDBRANCH  16  18
ENDBRANCH   5  14
BRANCH   4  22
ATOM     22  C   UNL     1       5.353   4.707  17.163  0.00  0.00    +0.000 C 
BRANCH  22  23
ATOM     23  S   UNL     1       6.935   5.115  16.420  0.00  0.00    +0.000 S 
ATOM     24  O   UNL     1       7.168   6.540  16.572  0.00  0.00    +0.000 OA
ATOM     25  O   UNL     1       7.928   4.174  16.909  0.00  0.00    +0.000 OA
BRANCH  23  26
ATOM     26  C   UNL     1       6.805   4.825  14.653  0.00  0.00    +0.000 A 
ATOM     27  C   UNL     1       7.728   5.430  13.785  0.00  0.00    +0.000 A 
ATOM     28  C   UNL     1       7.782   5.049  12.437  0.00  0.00    +0.000 A 
ATOM     29  C   UNL     1       6.914   4.069  11.958  0.00  0.00    +0.000 A 
ATOM     30  C   UNL     1       5.993   3.470  12.819  0.00  0.00    +0.000 A 
ATOM     31  C   UNL     1       5.936   3.842  14.169  0.00  0.00    +0.000 A 
ENDBRANCH  23  26
ENDBRANCH  22  23
ENDBRANCH   4  22
TORSDOF 11
ENDMDL
MODEL 7
REMARK VINA RESULT:      -7.7      1.710      5.316
REMARK  Name = 
REMARK  13 active torsions:
REMARK  status: ('A' for Active; 'I' for Inactive)
REMARK    1  A    between atoms: C_1  and  C_2
REMARK    2  A    between atoms: C_2  and  C_3
REMARK    3  A    between atoms: C_3  and  C_4
REMARK    4  A    between atoms: C_4  and  N_5
REMARK    5  A    between atoms: C_6  and  C_8
REMARK    6  A    between atoms: C_11  and  C_12
REMARK    7  A    between atoms: C_12  and  S_13
REMARK    8  A    between atoms: S_13  and  C_16
REMARK    9  A    between atoms: C_22  and  C_23
REMARK   10  A    between atoms: N_25  and  C_26
REMARK   11  A    between atoms: C_26  and  C_27
REMARK   12  A    between atoms: C_27  and  C_28
REMARK   13  A    between atoms: C_28  and  C_29
REMARK                            x       y       z     vdW  Elec       q    Type
REMARK                         _______ _______ _______ _____ _____    ______ ____
ROOT
ATOM      1  C   UNL     1       6.247   4.985  18.496  0.00  0.00    +0.000 A 
ATOM      2  O   UNL     1       6.047   4.314  19.663  0.00  0.00    +0.000 OA
ATOM      3  N   UNL     1       5.032   3.404  19.524  0.00  0.00    +0.000 NA
ATOM      4  C   UNL     1       4.572   3.542  18.274  0.00  0.00    +0.000 A 
ATOM      5  C   UNL     1       5.358   4.505  17.545  0.00  0.00    +0.000 A 
ENDROOT
BRANCH   1   7
ATOM      6  N   UNL     1       7.097   7.013  17.579  0.00  0.00    +0.000 N 
ATOM      7  C   UNL     1       7.288   5.991  18.484  0.00  0.00    +0.000 C 
ATOM      8  O   UNL     1       8.294   5.938  19.187  0.00  0.00    +0.000 OA
ATOM      9  H   UNL     1       6.317   6.939  16.936  0.00  0.00    +0.000 HD
BRANCH   6  10
ATOM     10  C   UNL     1       8.106   8.020  17.333  0.00  0.00    +0.000 C 
BRANCH  10  11
ATOM     11  C   UNL     1       7.813   9.294  18.120  0.00  0.00    +0.000 C 
BRANCH  11  13
ATOM     12  C   UNL     1       9.382  10.571  19.621  0.00  0.00    +0.000 C 
ATOM     13  C   UNL     1       9.044  10.194  18.188  0.00  0.00    +0.000 C 
ENDBRANCH  11  13
ENDBRANCH  10  11
ENDBRANCH   6  10
ENDBRANCH   1   7
BRANCH   5  14
ATOM     14  C   UNL     1       5.246   4.850  16.139  0.00  0.00    +0.000 C 
ATOM     15  O   UNL     1       4.964   6.003  15.812  0.00  0.00    +0.000 OA
ATOM     16  N   UNL     1       5.458   3.858  15.212  0.00  0.00    +0.000 N 
ATOM     17  H   UNL     1       5.640   2.902  15.512  0.00  0.00    +0.000 HD
BRANCH  16  18
ATOM     18  C   UNL     1       5.389   4.089  13.786  0.00  0.00    +0.000 C 
BRANCH  18  19
ATOM     19  C   UNL     1       6.767   4.031  13.133  0.00  0.00    +0.000 C 
BRANCH  19  20
ATOM     20  C   UNL     1       7.679   5.168  13.593  0.00  0.00    +0.000 C 
ATOM     21  C   UNL     1       8.336   5.854  12.405  0.00  0.00    +0.000 C 
ENDBRANCH  19  20
ENDBRANCH  18  19
ENDBRANCH  16  18
ENDBRANCH   5  14
BRANCH   4  22
ATOM     22  C   UNL     1       3.371   2.735  17.865  0.00  0.00    +0.000 C 
BRANCH  22  23
ATOM     23  S   UNL     1       1.918   3.294  18.758  0.00  0.00    +0.000 S 
ATOM     24  O   UNL     1       0.768   3.210  17.876  0.00  0.00    +0.000 OA
ATOM     25  O   UNL     1       1.882   2.620  20.044  0.00  0.00    +0.000 OA
BRANCH  23  26
ATOM     26  C   UNL     1       2.131   5.040  19.119  0.00  0.00    +0.000 A 
ATOM     27  C   UNL     1       2.256   5.953  18.059  0.00  0.00    +0.000 A 
ATOM     28  C   UNL     1       2.205   7.332  18.307  0.00  0.00    +0.000 A 
ATOM     29  C   UNL     1       2.031   7.796  19.610  0.00  0.00    +0.000 A 
ATOM     30  C   UNL     1       1.911   6.889  20.665  0.00  0.00    +0.000 A 
ATOM     31  C   UNL     1       1.958   5.509  20.424  0.00  0.00    +0.000 A 
ENDBRANCH  23  26
ENDBRANCH  22  23
ENDBRANCH   4  22
TORSDOF 11
ENDMDL
MODEL 8
REMARK VINA RESULT:      -7.6      2.425      4.380
REMARK  Name = 
REMARK  13 active torsions:
REMARK  status: ('A' for Active; 'I' for Inactive)
REMARK    1  A    between atoms: C_1  and  C_2
REMARK    2  A    between atoms: C_2  and  C_3
REMARK    3  A    between atoms: C_3  and  C_4
REMARK    4  A    between atoms: C_4  and  N_5
REMARK    5  A    between atoms: C_6  and  C_8
REMARK    6  A    between atoms: C_11  and  C_12
REMARK    7  A    between atoms: C_12  and  S_13
REMARK    8  A    between atoms: S_13  and  C_16
REMARK    9  A    between atoms: C_22  and  C_23
REMARK   10  A    between atoms: N_25  and  C_26
REMARK   11  A    between atoms: C_26  and  C_27
REMARK   12  A    between atoms: C_27  and  C_28
REMARK   13  A    between atoms: C_28  and  C_29
REMARK                            x       y       z     vdW  Elec       q    Type
REMARK                         _______ _______ _______ _____ _____    ______ ____
ROOT
ATOM      1  C   UNL     1       6.189   5.600  16.045  0.00  0.00    +0.000 A 
ATOM      2  O   UNL     1       6.712   6.776  16.485  0.00  0.00    +0.000 OA
ATOM      3  N   UNL     1       6.045   7.209  17.601  0.00  0.00    +0.000 NA
ATOM      4  C   UNL     1       5.074   6.316  17.829  0.00  0.00    +0.000 A 
ATOM      5  C   UNL     1       5.156   5.224  16.893  0.00  0.00    +0.000 A 
ENDROOT
BRANCH   1   7
ATOM      6  N   UNL     1       5.967   4.150  14.167  0.00  0.00    +0.000 N 
ATOM      7  C   UNL     1       6.785   5.014  14.863  0.00  0.00    +0.000 C 
ATOM      8  O   UNL     1       7.944   5.221  14.511  0.00  0.00    +0.000 OA
ATOM      9  H   UNL     1       5.068   3.916  14.573  0.00  0.00    +0.000 HD
BRANCH   6  10
ATOM     10  C   UNL     1       6.449   3.367  13.050  0.00  0.00    +0.000 C 
BRANCH  10  11
ATOM     11  C   UNL     1       5.366   3.203  11.988  0.00  0.00    +0.000 C 
BRANCH  11  13
ATOM     12  C   UNL     1       6.881   1.484  10.942  0.00  0.00    +0.000 C 
ATOM     13  C   UNL     1       5.451   1.832  11.323  0.00  0.00    +0.000 C 
ENDBRANCH  11  13
ENDBRANCH  10  11
ENDBRANCH   6  10
ENDBRANCH   1   7
BRANCH   5  14
ATOM     14  C   UNL     1       4.357   4.012  16.881  0.00  0.00    +0.000 C 
ATOM     15  O   UNL     1       3.661   3.748  15.900  0.00  0.00    +0.000 OA
ATOM     16  N   UNL     1       4.404   3.196  17.985  0.00  0.00    +0.000 N 
ATOM     17  H   UNL     1       4.949   3.465  18.803  0.00  0.00    +0.000 HD
BRANCH  16  18
ATOM     18  C   UNL     1       3.663   1.957  18.078  0.00  0.00    +0.000 C 
BRANCH  18  19
ATOM     19  C   UNL     1       2.241   2.181  18.584  0.00  0.00    +0.000 C 
BRANCH  19  20
ATOM     20  C   UNL     1       2.202   2.559  20.065  0.00  0.00    +0.000 C 
ATOM     21  C   UNL     1       1.115   3.587  20.336  0.00  0.00    +0.000 C 
ENDBRANCH  19  20
ENDBRANCH  18  19
ENDBRANCH  16  18
ENDBRANCH   5  14
BRANCH   4  22
ATOM     22  C   UNL     1       4.102   6.592  18.942  0.00  0.00    +0.000 C 
BRANCH  22  23
ATOM     23  S   UNL     1       2.556   7.212  18.274  0.00  0.00    +0.000 S 
ATOM     24  O   UNL     1       2.852   8.117  17.179  0.00  0.00    +0.000 OA
ATOM     25  O   UNL     1       1.669   6.084  18.049  0.00  0.00    +0.000 OA
BRANCH  23  26
ATOM     26  C   UNL     1       1.772   8.214  19.540  0.00  0.00    +0.000 A 
ATOM     27  C   UNL     1       1.145   9.417  19.177  0.00  0.00    +0.000 A 
ATOM     28  C   UNL     1       0.344  10.102  20.102  0.00  0.00    +0.000 A 
ATOM     29  C   UNL     1       0.174   9.587  21.387  0.00  0.00    +0.000 A 
ATOM     30  C   UNL     1       0.800   8.393  21.749  0.00  0.00    +0.000 A 
ATOM     31  C   UNL     1       1.598   7.701  20.829  0.00  0.00    +0.000 A 
ENDBRANCH  23  26
ENDBRANCH  22  23
ENDBRANCH   4  22
TORSDOF 11
ENDMDL
MODEL 9
REMARK VINA RESULT:      -7.6      1.430      5.834
REMARK  Name = 
REMARK  13 active torsions:
REMARK  status: ('A' for Active; 'I' for Inactive)
REMARK    1  A    between atoms: C_1  and  C_2
REMARK    2  A    between atoms: C_2  and  C_3
REMARK    3  A    between atoms: C_3  and  C_4
REMARK    4  A    between atoms: C_4  and  N_5
REMARK    5  A    between atoms: C_6  and  C_8
REMARK    6  A    between atoms: C_11  and  C_12
REMARK    7  A    between atoms: C_12  and  S_13
REMARK    8  A    between atoms: S_13  and  C_16
REMARK    9  A    between atoms: C_22  and  C_23
REMARK   10  A    between atoms: N_25  and  C_26
REMARK   11  A    between atoms: C_26  and  C_27
REMARK   12  A    between atoms: C_27  and  C_28
REMARK   13  A    between atoms: C_28  and  C_29
REMARK                            x       y       z     vdW  Elec       q    Type
REMARK                         _______ _______ _______ _____ _____    ______ ____
ROOT
ATOM      1  C   UNL     1       6.558   5.636  17.971  0.00  0.00    +0.000 A 
ATOM      2  O   UNL     1       6.323   5.755  19.307  0.00  0.00    +0.000 OA
ATOM      3  N   UNL     1       5.516   4.737  19.742  0.00  0.00    +0.000 NA
ATOM      4  C   UNL     1       5.214   4.007  18.661  0.00  0.00    +0.000 A 
ATOM      5  C   UNL     1       5.908   4.505  17.501  0.00  0.00    +0.000 A 
ENDROOT
BRANCH   1   7
ATOM      6  N   UNL     1       7.619   7.764  18.132  0.00  0.00    +0.000 N 
ATOM      7  C   UNL     1       7.395   6.646  17.357  0.00  0.00    +0.000 C 
ATOM      8  O   UNL     1       7.847   6.555  16.218  0.00  0.00    +0.000 OA
ATOM      9  H   UNL     1       7.118   7.843  19.009  0.00  0.00    +0.000 HD
BRANCH   6  10
ATOM     10  C   UNL     1       8.309   8.928  17.619  0.00  0.00    +0.000 C 
BRANCH  10  11
ATOM     11  C   UNL     1       8.909   9.753  18.753  0.00  0.00    +0.000 C 
BRANCH  11  13
ATOM     12  C   UNL     1      10.640  11.484  18.161  0.00  0.00    +0.000 C 
ATOM     13  C   UNL     1       9.156  11.194  18.313  0.00  0.00    +0.000 C 
ENDBRANCH  11  13
ENDBRANCH  10  11
ENDBRANCH   6  10
ENDBRANCH   1   7
BRANCH   5  14
ATOM     14  C   UNL     1       5.930   3.922  16.171  0.00  0.00    +0.000 C 
ATOM     15  O   UNL     1       5.528   2.770  16.000  0.00  0.00    +0.000 OA
ATOM     16  N   UNL     1       6.413   4.689  15.137  0.00  0.00    +0.000 N 
ATOM     17  H   UNL     1       6.786   5.620  15.316  0.00  0.00    +0.000 HD
BRANCH  16  18
ATOM     18  C   UNL     1       6.467   4.219  13.771  0.00  0.00    +0.000 C 
BRANCH  18  19
ATOM     19  C   UNL     1       5.074   4.040  13.174  0.00  0.00    +0.000 C 
BRANCH  19  20
ATOM     20  C   UNL     1       5.091   3.206  11.892  0.00  0.00    +0.000 C 
ATOM     21  C   UNL     1       6.441   2.536  11.697  0.00  0.00    +0.000 C 
ENDBRANCH  19  20
ENDBRANCH  18  19
ENDBRANCH  16  18
ENDBRANCH   5  14
BRANCH   4  22
ATOM     22  C   UNL     1       4.243   2.870  18.819  0.00  0.00    +0.000 C 
BRANCH  22  23
ATOM     23  S   UNL     1       2.569   3.438  18.512  0.00  0.00    +0.000 S 
ATOM     24  O   UNL     1       2.328   3.424  17.080  0.00  0.00    +0.000 OA
ATOM     25  O   UNL     1       1.670   2.716  19.395  0.00  0.00    +0.000 OA
BRANCH  23  26
ATOM     26  C   UNL     1       2.473   5.161  19.008  0.00  0.00    +0.000 A 
ATOM     27  C   UNL     1       2.634   6.167  18.041  0.00  0.00    +0.000 A 
ATOM     28  C   UNL     1       2.349   7.502  18.358  0.00  0.00    +0.000 A 
ATOM     29  C   UNL     1       1.907   7.831  19.639  0.00  0.00    +0.000 A 
ATOM     30  C   UNL     1       1.751   6.832  20.602  0.00  0.00    +0.000 A 
ATOM     31  C   UNL     1       2.031   5.495  20.291  0.00  0.00    +0.000 A 
ENDBRANCH  23  26
ENDBRANCH  22  23
ENDBRANCH   4  22
TORSDOF 11
ENDMDL
