MODEL 1
REMARK VINA RESULT:      -9.6      0.000      0.000
REMARK  Name = 
REMARK  6 active torsions:
REMARK  status: ('A' for Active; 'I' for Inactive)
REMARK    1  A    between atoms: C_2  and  C_4
REMARK    2  A    between atoms: C_8  and  C_9
REMARK    3  A    between atoms: C_9  and  N_10
REMARK    4  A    between atoms: C_11  and  C_12
REMARK    5  A    between atoms: N_14  and  C_15
REMARK    6  A    between atoms: C_15  and  C_16
REMARK                            x       y       z     vdW  Elec       q    Type
REMARK                         _______ _______ _______ _____ _____    ______ ____
ROOT
ATOM      1  N   UNL     1      -0.138  10.843  19.490  0.00  0.00    +0.000 N 
ATOM      2  C   UNL     1      -0.197  10.492  20.853  0.00  0.00    +0.000 A 
ATOM      3  C   UNL     1      -0.659  11.722  21.307  0.00  0.00    +0.000 A 
ATOM      4 CL   UNL     1      -2.010  12.109  22.238  0.00  0.00    +0.000 Cl
ATOM      5  C   UNL     1       0.285  12.607  20.743  0.00  0.00    +0.000 A 
ATOM      6  C   UNL     1       0.911  13.792  21.179  0.00  0.00    +0.000 A 
ATOM      7  C   UNL     1       2.126  14.112  20.583  0.00  0.00    +0.000 A 
ATOM      8  C   UNL     1       2.601  13.376  19.491  0.00  0.00    +0.000 A 
ATOM      9  C   UNL     1       1.857  12.338  18.890  0.00  0.00    +0.000 A 
ATOM     10  C   UNL     1       0.675  11.962  19.537  0.00  0.00    +0.000 A 
ENDROOT
BRANCH   2  11
ATOM     11  C   UNL     1       0.810   9.541  21.307  0.00  0.00    +0.000 C 
ATOM     12  O   UNL     1       1.383   9.687  22.385  0.00  0.00    +0.000 OA
ATOM     13  N   UNL     1       0.996   8.423  20.533  0.00  0.00    +0.000 N 
ATOM     14  H   UNL     1       0.452   8.308  19.690  0.00  0.00    +0.000 HD
BRANCH  13  15
ATOM     15  C   UNL     1       1.796   7.303  20.998  0.00  0.00    +0.000 C 
BRANCH  15  16
ATOM     16  C   UNL     1       2.319   6.477  19.842  0.00  0.00    +0.000 A 
ATOM     17  C   UNL     1       3.081   7.147  18.866  0.00  0.00    +0.000 A 
ATOM     18  C   UNL     1       3.533   6.485  17.730  0.00  0.00    +0.000 A 
ATOM     19  C   UNL     1       3.188   5.154  17.524  0.00  0.00    +0.000 A 
ATOM     20  C   UNL     1       2.414   4.456  18.462  0.00  0.00    +0.000 A 
ATOM     21  C   UNL     1       2.031   3.129  18.200  0.00  0.00    +0.000 A 
ATOM     22  C   UNL     1       1.295   2.398  19.129  0.00  0.00    +0.000 A 
ATOM     23  C   UNL     1       0.972   2.973  20.349  0.00  0.00    +0.000 A 
ATOM     24  C   UNL     1       1.320   4.302  20.613  0.00  0.00    +0.000 A 
ATOM     25  C   UNL     1       2.010   5.094  19.666  0.00  0.00    +0.000 A 
ENDBRANCH  15  16
ENDBRANCH  13  15
ENDBRANCH   2  11
BRANCH   1  26
ATOM     26  C   UNL     1      -1.124  10.160  18.644  0.00  0.00    +0.000 C 
BRANCH  26  31
ATOM     27  C   UNL     1      -4.478  11.525  17.330  0.00  0.00    +0.000 A 
ATOM     28  C   UNL     1      -4.385  11.104  15.993  0.00  0.00    +0.000 A 
ATOM     29  C   UNL     1      -3.229  10.478  15.527  0.00  0.00    +0.000 A 
ATOM     30  C   UNL     1      -2.179  10.301  16.425  0.00  0.00    +0.000 A 
ATOM     31  C   UNL     1      -2.234  10.709  17.783  0.00  0.00    +0.000 A 
ATOM     32  C   UNL     1      -3.412  11.330  18.236  0.00  0.00    +0.000 A 
BRANCH  27  34
ATOM     33  N   UNL     1      -6.833  11.449  17.802  0.00  0.00    +0.000 NA
ATOM     34  C   UNL     1      -5.750  12.151  17.778  0.00  0.00    +0.000 C 
ATOM     35  N   UNL     1      -5.781  13.453  18.145  0.00  0.00    +0.000 N 
ATOM     36  H   UNL     1      -7.607  12.008  18.158  0.00  0.00    +0.000 HD
ATOM     37  H   UNL     1      -6.691  13.903  18.113  0.00  0.00    +0.000 HD
ATOM     38  H   UNL     1      -5.077  14.050  17.711  0.00  0.00    +0.000 HD
ENDBRANCH  27  34
ENDBRANCH  26  31
ENDBRANCH   1  26
TORSDOF 6
ENDMDL
MODEL 2
REMARK VINA RESULT:      -9.4      5.096     10.078
REMARK  Name = 
REMARK  6 active torsions:
REMARK  status: ('A' for Active; 'I' for Inactive)
REMARK    1  A    between atoms: C_2  and  C_4
REMARK    2  A    between atoms: C_8  and  C_9
REMARK    3  A    between atoms: C_9  and  N_10
REMARK    4  A    between atoms: C_11  and  C_12
REMARK    5  A    between atoms: N_14  and  C_15
REMARK    6  A    between atoms: C_15  and  C_16
REMARK                            x       y       z     vdW  Elec       q    Type
REMARK                         _______ _______ _______ _____ _____    ______ ____
ROOT
ATOM      1  N   UNL     1       5.526   4.694  16.883  0.00  0.00    +0.000 N 
ATOM      2  C   UNL     1       5.524   5.855  17.682  0.00  0.00    +0.000 A 
ATOM      3  C   UNL     1       5.879   5.224  18.868  0.00  0.00    +0.000 A 
ATOM      4 CL   UNL     1       7.144   5.534  19.938  0.00  0.00    +0.000 Cl
ATOM      5  C   UNL     1       4.917   4.193  18.942  0.00  0.00    +0.000 A 
ATOM      6  C   UNL     1       4.193   3.592  19.990  0.00  0.00    +0.000 A 
ATOM      7  C   UNL     1       2.998   2.967  19.647  0.00  0.00    +0.000 A 
ATOM      8  C   UNL     1       2.638   2.807  18.303  0.00  0.00    +0.000 A 
ATOM      9  C   UNL     1       3.481   3.188  17.237  0.00  0.00    +0.000 A 
ATOM     10  C   UNL     1       4.642   3.889  17.580  0.00  0.00    +0.000 A 
ENDROOT
BRANCH   2  11
ATOM     11  C   UNL     1       4.553   6.877  17.312  0.00  0.00    +0.000 C 
ATOM     12  O   UNL     1       4.432   7.246  16.145  0.00  0.00    +0.000 OA
ATOM     13  N   UNL     1       3.708   7.312  18.301  0.00  0.00    +0.000 N 
ATOM     14  H   UNL     1       3.796   6.929  19.231  0.00  0.00    +0.000 HD
BRANCH  13  15
ATOM     15  C   UNL     1       2.558   8.148  18.002  0.00  0.00    +0.000 C 
BRANCH  15  16
ATOM     16  C   UNL     1       1.770   8.475  19.254  0.00  0.00    +0.000 A 
ATOM     17  C   UNL     1       1.749   7.505  20.274  0.00  0.00    +0.000 A 
ATOM     18  C   UNL     1       0.987   7.687  21.422  0.00  0.00    +0.000 A 
ATOM     19  C   UNL     1       0.190   8.819  21.549  0.00  0.00    +0.000 A 
ATOM     20  C   UNL     1       0.167   9.800  20.547  0.00  0.00    +0.000 A 
ATOM     21  C   UNL     1      -0.691  10.906  20.675  0.00  0.00    +0.000 A 
ATOM     22  C   UNL     1      -0.709  11.915  19.716  0.00  0.00    +0.000 A 
ATOM     23  C   UNL     1       0.164  11.851  18.640  0.00  0.00    +0.000 A 
ATOM     24  C   UNL     1       1.003  10.743  18.483  0.00  0.00    +0.000 A 
ATOM     25  C   UNL     1       1.000   9.668  19.403  0.00  0.00    +0.000 A 
ENDBRANCH  15  16
ENDBRANCH  13  15
ENDBRANCH   2  11
BRANCH   1  26
ATOM     26  C   UNL     1       6.603   4.645  15.886  0.00  0.00    +0.000 C 
BRANCH  26  31
ATOM     27  C   UNL     1       6.107   3.396  12.277  0.00  0.00    +0.000 A 
ATOM     28  C   UNL     1       7.099   4.156  11.635  0.00  0.00    +0.000 A 
ATOM     29  C   UNL     1       7.836   5.103  12.349  0.00  0.00    +0.000 A 
ATOM     30  C   UNL     1       7.542   5.270  13.700  0.00  0.00    +0.000 A 
ATOM     31  C   UNL     1       6.551   4.522  14.384  0.00  0.00    +0.000 A 
ATOM     32  C   UNL     1       5.826   3.565  13.650  0.00  0.00    +0.000 A 
BRANCH  27  34
ATOM     33  N   UNL     1       4.205   2.643  11.016  0.00  0.00    +0.000 NA
ATOM     34  C   UNL     1       5.382   2.376  11.474  0.00  0.00    +0.000 C 
ATOM     35  N   UNL     1       5.941   1.167  11.235  0.00  0.00    +0.000 N 
ATOM     36  H   UNL     1       3.855   1.860  10.465  0.00  0.00    +0.000 HD
ATOM     37  H   UNL     1       5.298   0.419  10.990  0.00  0.00    +0.000 HD
ATOM     38  H   UNL     1       6.607   0.843  11.936  0.00  0.00    +0.000 HD
ENDBRANCH  27  34
ENDBRANCH  26  31
ENDBRANCH   1  26
TORSDOF 6
ENDMDL
MODEL 3
REMARK VINA RESULT:      -9.3      2.369      3.456
REMARK  Name = 
REMARK  6 active torsions:
REMARK  status: ('A' for Active; 'I' for Inactive)
REMARK    1  A    between atoms: C_2  and  C_4
REMARK    2  A    between atoms: C_8  and  C_9
REMARK    3  A    between atoms: C_9  and  N_10
REMARK    4  A    between atoms: C_11  and  C_12
REMARK    5  A    between atoms: N_14  and  C_15
REMARK    6  A    between atoms: C_15  and  C_16
REMARK                            x       y       z     vdW  Elec       q    Type
REMARK                         _______ _______ _______ _____ _____    ______ ____
ROOT
ATOM      1  N   UNL     1      -0.300  10.653  18.903  0.00  0.00    +0.000 N 
ATOM      2  C   UNL     1       0.736   9.841  19.406  0.00  0.00    +0.000 A 
ATOM      3  C   UNL     1       0.771  10.408  20.674  0.00  0.00    +0.000 A 
ATOM      4 CL   UNL     1       0.644   9.695  22.196  0.00  0.00    +0.000 Cl
ATOM      5  C   UNL     1       0.898  11.781  20.370  0.00  0.00    +0.000 A 
ATOM      6  C   UNL     1       1.599  12.859  20.946  0.00  0.00    +0.000 A 
ATOM      7  C   UNL     1       1.884  13.935  20.112  0.00  0.00    +0.000 A 
ATOM      8  C   UNL     1       1.346  13.999  18.821  0.00  0.00    +0.000 A 
ATOM      9  C   UNL     1       0.439  13.039  18.324  0.00  0.00    +0.000 A 
ATOM     10  C   UNL     1       0.217  11.917  19.129  0.00  0.00    +0.000 A 
ENDROOT
BRANCH   2  11
ATOM     11  C   UNL     1       1.743   9.427  18.437  0.00  0.00    +0.000 C 
ATOM     12  O   UNL     1       2.195  10.218  17.611  0.00  0.00    +0.000 OA
ATOM     13  N   UNL     1       2.243   8.156  18.572  0.00  0.00    +0.000 N 
ATOM     14  H   UNL     1       1.894   7.562  19.310  0.00  0.00    +0.000 HD
BRANCH  13  15
ATOM     15  C   UNL     1       3.405   7.714  17.820  0.00  0.00    +0.000 C 
BRANCH  15  16
ATOM     16  C   UNL     1       3.375   6.219  17.580  0.00  0.00    +0.000 A 
ATOM     17  C   UNL     1       2.356   5.485  18.216  0.00  0.00    +0.000 A 
ATOM     18  C   UNL     1       2.300   4.100  18.116  0.00  0.00    +0.000 A 
ATOM     19  C   UNL     1       3.293   3.418  17.422  0.00  0.00    +0.000 A 
ATOM     20  C   UNL     1       4.336   4.110  16.791  0.00  0.00    +0.000 A 
ATOM     21  C   UNL     1       5.357   3.391  16.145  0.00  0.00    +0.000 A 
ATOM     22  C   UNL     1       6.386   4.051  15.476  0.00  0.00    +0.000 A 
ATOM     23  C   UNL     1       6.381   5.436  15.411  0.00  0.00    +0.000 A 
ATOM     24  C   UNL     1       5.388   6.166  16.073  0.00  0.00    +0.000 A 
ATOM     25  C   UNL     1       4.365   5.530  16.815  0.00  0.00    +0.000 A 
ENDBRANCH  15  16
ENDBRANCH  13  15
ENDBRANCH   2  11
BRANCH   1  26
ATOM     26  C   UNL     1      -1.559   9.941  18.649  0.00  0.00    +0.000 C 
BRANCH  26  31
ATOM     27  C   UNL     1      -3.612  10.355  15.416  0.00  0.00    +0.000 A 
ATOM     28  C   UNL     1      -4.531  11.324  15.854  0.00  0.00    +0.000 A 
ATOM     29  C   UNL     1      -4.527  11.753  17.181  0.00  0.00    +0.000 A 
ATOM     30  C   UNL     1      -3.598  11.180  18.046  0.00  0.00    +0.000 A 
ATOM     31  C   UNL     1      -2.653  10.202  17.644  0.00  0.00    +0.000 A 
ATOM     32  C   UNL     1      -2.666   9.789  16.299  0.00  0.00    +0.000 A 
BRANCH  27  34
ATOM     33  N   UNL     1      -2.529   9.851  13.331  0.00  0.00    +0.000 NA
ATOM     34  C   UNL     1      -3.639   9.965  13.982  0.00  0.00    +0.000 C 
ATOM     35  N   UNL     1      -4.817   9.746  13.352  0.00  0.00    +0.000 N 
ATOM     36  H   UNL     1      -2.712   9.551  12.374  0.00  0.00    +0.000 HD
ATOM     37  H   UNL     1      -4.800   9.818  12.339  0.00  0.00    +0.000 HD
ATOM     38  H   UNL     1      -5.618  10.253  13.729  0.00  0.00    +0.000 HD
ENDBRANCH  27  34
ENDBRANCH  26  31
ENDBRANCH   1  26
TORSDOF 6
ENDMDL
MODEL 4
REMARK VINA RESULT:      -9.2      1.630      2.728
REMARK  Name = 
REMARK  6 active torsions:
REMARK  status: ('A' for Active; 'I' for Inactive)
REMARK    1  A    between atoms: C_2  and  C_4
REMARK    2  A    between atoms: C_8  and  C_9
REMARK    3  A    between atoms: C_9  and  N_10
REMARK    4  A    between atoms: C_11  and  C_12
REMARK    5  A    between atoms: N_14  and  C_15
REMARK    6  A    between atoms: C_15  and  C_16
REMARK                            x       y       z     vdW  Elec       q    Type
REMARK                         _______ _______ _______ _____ _____    ______ ____
ROOT
ATOM      1  N   UNL     1      -0.068  10.446  18.986  0.00  0.00    +0.000 N 
ATOM      2  C   UNL     1      -0.142  10.277  20.382  0.00  0.00    +0.000 A 
ATOM      3  C   UNL     1      -0.676  11.530  20.658  0.00  0.00    +0.000 A 
ATOM      4 CL   UNL     1      -2.067  11.966  21.505  0.00  0.00    +0.000 Cl
ATOM      5  C   UNL     1       0.236  12.381  19.997  0.00  0.00    +0.000 A 
ATOM      6  C   UNL     1       0.791  13.645  20.280  0.00  0.00    +0.000 A 
ATOM      7  C   UNL     1       2.002  13.947  19.667  0.00  0.00    +0.000 A 
ATOM      8  C   UNL     1       2.540  13.097  18.693  0.00  0.00    +0.000 A 
ATOM      9  C   UNL     1       1.864  11.950  18.224  0.00  0.00    +0.000 A 
ATOM     10  C   UNL     1       0.687  11.602  18.896  0.00  0.00    +0.000 A 
ENDROOT
BRANCH   2  11
ATOM     11  C   UNL     1       0.900   9.450  20.977  0.00  0.00    +0.000 C 
ATOM     12  O   UNL     1       1.360   9.708  22.088  0.00  0.00    +0.000 OA
ATOM     13  N   UNL     1       1.250   8.313  20.294  0.00  0.00    +0.000 N 
ATOM     14  H   UNL     1       0.796   8.102  19.418  0.00  0.00    +0.000 HD
BRANCH  13  15
ATOM     15  C   UNL     1       2.100   7.299  20.894  0.00  0.00    +0.000 C 
BRANCH  15  16
ATOM     16  C   UNL     1       2.057   6.004  20.110  0.00  0.00    +0.000 A 
ATOM     17  C   UNL     1       1.256   4.966  20.625  0.00  0.00    +0.000 A 
ATOM     18  C   UNL     1       1.221   3.718  20.015  0.00  0.00    +0.000 A 
ATOM     19  C   UNL     1       2.025   3.467  18.908  0.00  0.00    +0.000 A 
ATOM     20  C   UNL     1       2.851   4.467  18.377  0.00  0.00    +0.000 A 
ATOM     21  C   UNL     1       3.697   4.169  17.294  0.00  0.00    +0.000 A 
ATOM     22  C   UNL     1       4.500   5.151  16.720  0.00  0.00    +0.000 A 
ATOM     23  C   UNL     1       4.435   6.452  17.195  0.00  0.00    +0.000 A 
ATOM     24  C   UNL     1       3.621   6.758  18.291  0.00  0.00    +0.000 A 
ATOM     25  C   UNL     1       2.841   5.772  18.939  0.00  0.00    +0.000 A 
ENDBRANCH  15  16
ENDBRANCH  13  15
ENDBRANCH   2  11
BRANCH   1  26
ATOM     26  C   UNL     1      -0.998   9.604  18.222  0.00  0.00    +0.000 C 
BRANCH  26  31
ATOM     27  C   UNL     1      -3.395  10.282  15.285  0.00  0.00    +0.000 A 
ATOM     28  C   UNL     1      -4.196  11.277  15.871  0.00  0.00    +0.000 A 
ATOM     29  C   UNL     1      -4.008  11.641  17.205  0.00  0.00    +0.000 A 
ATOM     30  C   UNL     1      -3.017  10.978  17.926  0.00  0.00    +0.000 A 
ATOM     31  C   UNL     1      -2.187   9.971  17.370  0.00  0.00    +0.000 A 
ATOM     32  C   UNL     1      -2.385   9.625  16.021  0.00  0.00    +0.000 A 
BRANCH  27  34
ATOM     33  N   UNL     1      -2.602   9.838  13.061  0.00  0.00    +0.000 NA
ATOM     34  C   UNL     1      -3.617   9.964  13.849  0.00  0.00    +0.000 C 
ATOM     35  N   UNL     1      -4.872   9.823  13.364  0.00  0.00    +0.000 N 
ATOM     36  H   UNL     1      -2.915   9.593  12.122  0.00  0.00    +0.000 HD
ATOM     37  H   UNL     1      -4.978   9.943  12.361  0.00  0.00    +0.000 HD
ATOM     38  H   UNL     1      -5.597  10.341  13.860  0.00  0.00    +0.000 HD
ENDBRANCH  27  34
ENDBRANCH  26  31
ENDBRANCH   1  26
TORSDOF 6
ENDMDL
MODEL 5
REMARK VINA RESULT:      -9.2      0.596      1.881
REMARK  Name = 
REMARK  6 active torsions:
REMARK  status: ('A' for Active; 'I' for Inactive)
REMARK    1  A    between atoms: C_2  and  C_4
REMARK    2  A    between atoms: C_8  and  C_9
REMARK    3  A    between atoms: C_9  and  N_10
REMARK    4  A    between atoms: C_11  and  C_12
REMARK    5  A    between atoms: N_14  and  C_15
REMARK    6  A    between atoms: C_15  and  C_16
REMARK                            x       y       z     vdW  Elec       q    Type
REMARK                         _______ _______ _______ _____ _____    ______ ____
ROOT
ATOM      1  N   UNL     1       0.035  10.770  19.438  0.00  0.00    +0.000 N 
ATOM      2  C   UNL     1      -0.048  10.366  20.785  0.00  0.00    +0.000 A 
ATOM      3  C   UNL     1      -0.610  11.544  21.263  0.00  0.00    +0.000 A 
ATOM      4 CL   UNL     1      -2.016  11.804  22.154  0.00  0.00    +0.000 Cl
ATOM      5  C   UNL     1       0.290  12.511  20.766  0.00  0.00    +0.000 A 
ATOM      6  C   UNL     1       0.817  13.719  21.265  0.00  0.00    +0.000 A 
ATOM      7  C   UNL     1       2.027  14.143  20.727  0.00  0.00    +0.000 A 
ATOM      8  C   UNL     1       2.590  13.481  19.629  0.00  0.00    +0.000 A 
ATOM      9  C   UNL     1       1.942  12.417  18.965  0.00  0.00    +0.000 A 
ATOM     10  C   UNL     1       0.767  11.939  19.554  0.00  0.00    +0.000 A 
ENDROOT
BRANCH   2  11
ATOM     11  C   UNL     1       1.006   9.469  21.244  0.00  0.00    +0.000 C 
ATOM     12  O   UNL     1       1.616   9.688  22.289  0.00  0.00    +0.000 OA
ATOM     13  N   UNL     1       1.196   8.319  20.521  0.00  0.00    +0.000 N 
ATOM     14  H   UNL     1       0.623   8.145  19.708  0.00  0.00    +0.000 HD
BRANCH  13  15
ATOM     15  C   UNL     1       2.048   7.248  21.009  0.00  0.00    +0.000 C 
BRANCH  15  16
ATOM     16  C   UNL     1       1.957   6.021  20.127  0.00  0.00    +0.000 A 
ATOM     17  C   UNL     1       1.094   4.990  20.545  0.00  0.00    +0.000 A 
ATOM     18  C   UNL     1       1.009   3.795  19.839  0.00  0.00    +0.000 A 
ATOM     19  C   UNL     1       1.824   3.589  18.731  0.00  0.00    +0.000 A 
ATOM     20  C   UNL     1       2.711   4.582  18.294  0.00  0.00    +0.000 A 
ATOM     21  C   UNL     1       3.564   4.324  17.207  0.00  0.00    +0.000 A 
ATOM     22  C   UNL     1       4.428   5.304  16.725  0.00  0.00    +0.000 A 
ATOM     23  C   UNL     1       4.418   6.567  17.299  0.00  0.00    +0.000 A 
ATOM     24  C   UNL     1       3.596   6.830  18.400  0.00  0.00    +0.000 A 
ATOM     25  C   UNL     1       2.754   5.839  18.956  0.00  0.00    +0.000 A 
ENDBRANCH  15  16
ENDBRANCH  13  15
ENDBRANCH   2  11
BRANCH   1  26
ATOM     26  C   UNL     1      -0.871  10.052  18.532  0.00  0.00    +0.000 C 
BRANCH  26  31
ATOM     27  C   UNL     1      -4.231  11.450  17.273  0.00  0.00    +0.000 A 
ATOM     28  C   UNL     1      -4.273  10.837  16.009  0.00  0.00    +0.000 A 
ATOM     29  C   UNL     1      -3.197  10.069  15.560  0.00  0.00    +0.000 A 
ATOM     30  C   UNL     1      -2.091   9.949  16.398  0.00  0.00    +0.000 A 
ATOM     31  C   UNL     1      -2.011  10.550  17.680  0.00  0.00    +0.000 A 
ATOM     32  C   UNL     1      -3.109  11.312  18.119  0.00  0.00    +0.000 A 
BRANCH  27  34
ATOM     33  N   UNL     1      -6.512  12.163  17.022  0.00  0.00    +0.000 NA
ATOM     34  C   UNL     1      -5.423  12.223  17.712  0.00  0.00    +0.000 C 
ATOM     35  N   UNL     1      -5.367  12.999  18.820  0.00  0.00    +0.000 N 
ATOM     36  H   UNL     1      -7.241  12.721  17.466  0.00  0.00    +0.000 HD
ATOM     37  H   UNL     1      -6.060  13.739  18.881  0.00  0.00    +0.000 HD
ATOM     38  H   UNL     1      -4.443  13.361  19.058  0.00  0.00    +0.000 HD
ENDBRANCH  27  34
ENDBRANCH  26  31
ENDBRANCH   1  26
TORSDOF 6
ENDMDL
MODEL 6
REMARK VINA RESULT:      -9.2      1.609      2.022
REMARK  Name = 
REMARK  6 active torsions:
REMARK  status: ('A' for Active; 'I' for Inactive)
REMARK    1  A    between atoms: C_2  and  C_4
REMARK    2  A    between atoms: C_8  and  C_9
REMARK    3  A    between atoms: C_9  and  N_10
REMARK    4  A    between atoms: C_11  and  C_12
REMARK    5  A    between atoms: N_14  and  C_15
REMARK    6  A    between atoms: C_15  and  C_16
REMARK                            x       y       z     vdW  Elec       q    Type
REMARK                         _______ _______ _______ _____ _____    ______ ____
ROOT
ATOM      1  N   UNL     1      -0.007  10.532  18.737  0.00  0.00    +0.000 N 
ATOM      2  C   UNL     1      -0.159  10.323  20.122  0.00  0.00    +0.000 A 
ATOM      3  C   UNL     1      -0.737  11.556  20.399  0.00  0.00    +0.000 A 
ATOM      4 CL   UNL     1      -2.183  11.938  21.173  0.00  0.00    +0.000 Cl
ATOM      5  C   UNL     1       0.193  12.444  19.815  0.00  0.00    +0.000 A 
ATOM      6  C   UNL     1       0.701  13.711  20.163  0.00  0.00    +0.000 A 
ATOM      7  C   UNL     1       1.939  14.056  19.631  0.00  0.00    +0.000 A 
ATOM      8  C   UNL     1       2.551  13.246  18.668  0.00  0.00    +0.000 A 
ATOM      9  C   UNL     1       1.931  12.098  18.130  0.00  0.00    +0.000 A 
ATOM     10  C   UNL     1       0.725  11.706  18.722  0.00  0.00    +0.000 A 
ENDROOT
BRANCH   2  11
ATOM     11  C   UNL     1       0.866   9.502  20.755  0.00  0.00    +0.000 C 
ATOM     12  O   UNL     1       1.238   9.724  21.906  0.00  0.00    +0.000 OA
ATOM     13  N   UNL     1       1.302   8.408  20.051  0.00  0.00    +0.000 N 
ATOM     14  H   UNL     1       0.918   8.222  19.136  0.00  0.00    +0.000 HD
BRANCH  13  15
ATOM     15  C   UNL     1       2.141   7.394  20.667  0.00  0.00    +0.000 C 
BRANCH  15  16
ATOM     16  C   UNL     1       2.606   6.369  19.655  0.00  0.00    +0.000 A 
ATOM     17  C   UNL     1       3.398   6.832  18.587  0.00  0.00    +0.000 A 
ATOM     18  C   UNL     1       3.801   5.975  17.569  0.00  0.00    +0.000 A 
ATOM     19  C   UNL     1       3.377   4.651  17.573  0.00  0.00    +0.000 A 
ATOM     20  C   UNL     1       2.572   4.155  18.608  0.00  0.00    +0.000 A 
ATOM     21  C   UNL     1       2.110   2.828  18.556  0.00  0.00    +0.000 A 
ATOM     22  C   UNL     1       1.341   2.296  19.587  0.00  0.00    +0.000 A 
ATOM     23  C   UNL     1       1.061   3.072  20.702  0.00  0.00    +0.000 A 
ATOM     24  C   UNL     1       1.488   4.403  20.755  0.00  0.00    +0.000 A 
ATOM     25  C   UNL     1       2.216   4.996  19.697  0.00  0.00    +0.000 A 
ENDBRANCH  15  16
ENDBRANCH  13  15
ENDBRANCH   2  11
BRANCH   1  26
ATOM     26  C   UNL     1      -0.871   9.692  17.898  0.00  0.00    +0.000 C 
BRANCH  26  31
ATOM     27  C   UNL     1      -3.482  10.287  15.129  0.00  0.00    +0.000 A 
ATOM     28  C   UNL     1      -4.257  11.277  15.758  0.00  0.00    +0.000 A 
ATOM     29  C   UNL     1      -3.981  11.664  17.070  0.00  0.00    +0.000 A 
ATOM     30  C   UNL     1      -2.930  11.028  17.727  0.00  0.00    +0.000 A 
ATOM     31  C   UNL     1      -2.124  10.027  17.128  0.00  0.00    +0.000 A 
ATOM     32  C   UNL     1      -2.411   9.658  15.801  0.00  0.00    +0.000 A 
BRANCH  27  34
ATOM     33  N   UNL     1      -5.030   9.794  13.359  0.00  0.00    +0.000 NA
ATOM     34  C   UNL     1      -3.799   9.945  13.718  0.00  0.00    +0.000 C 
ATOM     35  N   UNL     1      -2.806   9.777  12.814  0.00  0.00    +0.000 N 
ATOM     36  H   UNL     1      -5.083   9.592  12.361  0.00  0.00    +0.000 HD
ATOM     37  H   UNL     1      -3.042   9.232  11.989  0.00  0.00    +0.000 HD
ATOM     38  H   UNL     1      -1.911   9.470  13.194  0.00  0.00    +0.000 HD
ENDBRANCH  27  34
ENDBRANCH  26  31
ENDBRANCH   1  26
TORSDOF 6
ENDMDL
MODEL 7
REMARK VINA RESULT:      -8.9      4.698      9.857
REMARK  Name = 
REMARK  6 active torsions:
REMARK  status: ('A' for Active; 'I' for Inactive)
REMARK    1  A    between atoms: C_2  and  C_4
REMARK    2  A    between atoms: C_8  and  C_9
REMARK    3  A    between atoms: C_9  and  N_10
REMARK    4  A    between atoms: C_11  and  C_12
REMARK    5  A    between atoms: N_14  and  C_15
REMARK    6  A    between atoms: C_15  and  C_16
REMARK                            x       y       z     vdW  Elec       q    Type
REMARK                         _______ _______ _______ _____ _____    ______ ____
ROOT
ATOM      1  N   UNL     1       4.347   4.936  17.156  0.00  0.00    +0.000 N 
ATOM      2  C   UNL     1       4.289   5.688  18.346  0.00  0.00    +0.000 A 
ATOM      3  C   UNL     1       5.285   4.988  19.016  0.00  0.00    +0.000 A 
ATOM      4 CL   UNL     1       6.696   5.533  19.760  0.00  0.00    +0.000 Cl
ATOM      5  C   UNL     1       4.837   3.656  18.883  0.00  0.00    +0.000 A 
ATOM      6  C   UNL     1       4.849   2.521  19.719  0.00  0.00    +0.000 A 
ATOM      7  C   UNL     1       3.899   1.541  19.454  0.00  0.00    +0.000 A 
ATOM      8  C   UNL     1       3.095   1.617  18.310  0.00  0.00    +0.000 A 
ATOM      9  C   UNL     1       3.249   2.625  17.335  0.00  0.00    +0.000 A 
ATOM     10  C   UNL     1       4.147   3.654  17.640  0.00  0.00    +0.000 A 
ENDROOT
BRANCH   2  11
ATOM     11  C   UNL     1       2.975   6.204  18.706  0.00  0.00    +0.000 C 
ATOM     12  O   UNL     1       1.977   5.917  18.047  0.00  0.00    +0.000 OA
ATOM     13  N   UNL     1       2.891   6.918  19.874  0.00  0.00    +0.000 N 
ATOM     14  H   UNL     1       3.724   7.070  20.423  0.00  0.00    +0.000 HD
BRANCH  13  15
ATOM     15  C   UNL     1       1.607   7.280  20.452  0.00  0.00    +0.000 C 
BRANCH  15  16
ATOM     16  C   UNL     1       1.227   8.705  20.108  0.00  0.00    +0.000 A 
ATOM     17  C   UNL     1       1.701   9.222  18.888  0.00  0.00    +0.000 A 
ATOM     18  C   UNL     1       1.467  10.544  18.530  0.00  0.00    +0.000 A 
ATOM     19  C   UNL     1       0.800  11.390  19.410  0.00  0.00    +0.000 A 
ATOM     20  C   UNL     1       0.329  10.919  20.644  0.00  0.00    +0.000 A 
ATOM     21  C   UNL     1      -0.290  11.810  21.537  0.00  0.00    +0.000 A 
ATOM     22  C   UNL     1      -0.803  11.365  22.754  0.00  0.00    +0.000 A 
ATOM     23  C   UNL     1      -0.739  10.017  23.070  0.00  0.00    +0.000 A 
ATOM     24  C   UNL     1      -0.099   9.123  22.204  0.00  0.00    +0.000 A 
ATOM     25  C   UNL     1       0.489   9.551  20.991  0.00  0.00    +0.000 A 
ENDBRANCH  15  16
ENDBRANCH  13  15
ENDBRANCH   2  11
BRANCH   1  26
ATOM     26  C   UNL     1       4.871   5.671  15.998  0.00  0.00    +0.000 C 
BRANCH  26  31
ATOM     27  C   UNL     1       5.800   3.697  12.824  0.00  0.00    +0.000 A 
ATOM     28  C   UNL     1       7.175   3.980  12.775  0.00  0.00    +0.000 A 
ATOM     29  C   UNL     1       7.750   4.855  13.697  0.00  0.00    +0.000 A 
ATOM     30  C   UNL     1       6.914   5.439  14.646  0.00  0.00    +0.000 A 
ATOM     31  C   UNL     1       5.523   5.178  14.730  0.00  0.00    +0.000 A 
ATOM     32  C   UNL     1       4.964   4.285  13.798  0.00  0.00    +0.000 A 
BRANCH  27  34
ATOM     33  N   UNL     1       4.137   2.986  11.242  0.00  0.00    +0.000 NA
ATOM     34  C   UNL     1       5.252   2.727  11.839  0.00  0.00    +0.000 C 
ATOM     35  N   UNL     1       5.905   1.571  11.579  0.00  0.00    +0.000 N 
ATOM     36  H   UNL     1       3.911   2.243  10.580  0.00  0.00    +0.000 HD
ATOM     37  H   UNL     1       5.345   0.823  11.180  0.00  0.00    +0.000 HD
ATOM     38  H   UNL     1       6.484   1.211  12.338  0.00  0.00    +0.000 HD
ENDBRANCH  27  34
ENDBRANCH  26  31
ENDBRANCH   1  26
TORSDOF 6
ENDMDL
MODEL 8
REMARK VINA RESULT:      -8.8      2.099      2.699
REMARK  Name = 
REMARK  6 active torsions:
REMARK  status: ('A' for Active; 'I' for Inactive)
REMARK    1  A    between atoms: C_2  and  C_4
REMARK    2  A    between atoms: C_8  and  C_9
REMARK    3  A    between atoms: C_9  and  N_10
REMARK    4  A    between atoms: C_11  and  C_12
REMARK    5  A    between atoms: N_14  and  C_15
REMARK    6  A    between atoms: C_15  and  C_16
REMARK                            x       y       z     vdW  Elec       q    Type
REMARK                         _______ _______ _______ _____ _____    ______ ____
ROOT
ATOM      1  N   UNL     1      -0.210  10.481  18.789  0.00  0.00    +0.000 N 
ATOM      2  C   UNL     1       0.804   9.663  19.326  0.00  0.00    +0.000 A 
ATOM      3  C   UNL     1       0.825  10.254  20.584  0.00  0.00    +0.000 A 
ATOM      4 CL   UNL     1       0.660   9.574  22.117  0.00  0.00    +0.000 Cl
ATOM      5  C   UNL     1       0.979  11.619  20.255  0.00  0.00    +0.000 A 
ATOM      6  C   UNL     1       1.686  12.697  20.823  0.00  0.00    +0.000 A 
ATOM      7  C   UNL     1       2.004  13.752  19.974  0.00  0.00    +0.000 A 
ATOM      8  C   UNL     1       1.490  13.799  18.672  0.00  0.00    +0.000 A 
ATOM      9  C   UNL     1       0.577  12.844  18.177  0.00  0.00    +0.000 A 
ATOM     10  C   UNL     1       0.322  11.741  19.000  0.00  0.00    +0.000 A 
ENDROOT
BRANCH   2  11
ATOM     11  C   UNL     1       1.821   9.214  18.384  0.00  0.00    +0.000 C 
ATOM     12  O   UNL     1       2.288   9.978  17.540  0.00  0.00    +0.000 OA
ATOM     13  N   UNL     1       2.313   7.946  18.564  0.00  0.00    +0.000 N 
ATOM     14  H   UNL     1       1.951   7.377  19.316  0.00  0.00    +0.000 HD
BRANCH  13  15
ATOM     15  C   UNL     1       3.482   7.476  17.842  0.00  0.00    +0.000 C 
BRANCH  15  16
ATOM     16  C   UNL     1       3.558   5.963  17.834  0.00  0.00    +0.000 A 
ATOM     17  C   UNL     1       4.338   5.363  16.827  0.00  0.00    +0.000 A 
ATOM     18  C   UNL     1       4.398   3.980  16.696  0.00  0.00    +0.000 A 
ATOM     19  C   UNL     1       3.639   3.173  17.536  0.00  0.00    +0.000 A 
ATOM     20  C   UNL     1       2.834   3.732  18.538  0.00  0.00    +0.000 A 
ATOM     21  C   UNL     1       2.033   2.896  19.335  0.00  0.00    +0.000 A 
ATOM     22  C   UNL     1       1.252   3.418  20.363  0.00  0.00    +0.000 A 
ATOM     23  C   UNL     1       1.298   4.777  20.633  0.00  0.00    +0.000 A 
ATOM     24  C   UNL     1       2.067   5.626  19.832  0.00  0.00    +0.000 A 
ATOM     25  C   UNL     1       2.821   5.139  18.738  0.00  0.00    +0.000 A 
ENDBRANCH  15  16
ENDBRANCH  13  15
ENDBRANCH   2  11
BRANCH   1  26
ATOM     26  C   UNL     1      -1.476   9.784  18.526  0.00  0.00    +0.000 C 
BRANCH  26  31
ATOM     27  C   UNL     1      -3.614  10.310  15.365  0.00  0.00    +0.000 A 
ATOM     28  C   UNL     1      -4.480  11.308  15.842  0.00  0.00    +0.000 A 
ATOM     29  C   UNL     1      -4.418  11.723  17.173  0.00  0.00    +0.000 A 
ATOM     30  C   UNL     1      -3.484  11.106  18.002  0.00  0.00    +0.000 A 
ATOM     31  C   UNL     1      -2.591  10.097  17.559  0.00  0.00    +0.000 A 
ATOM     32  C   UNL     1      -2.662   9.700  16.212  0.00  0.00    +0.000 A 
BRANCH  27  34
ATOM     33  N   UNL     1      -4.859   9.766  13.384  0.00  0.00    +0.000 NA
ATOM     34  C   UNL     1      -3.701   9.937  13.929  0.00  0.00    +0.000 C 
ATOM     35  N   UNL     1      -2.577   9.761  13.196  0.00  0.00    +0.000 N 
ATOM     36  H   UNL     1      -4.753   9.544  12.394  0.00  0.00    +0.000 HD
ATOM     37  H   UNL     1      -2.676   9.198  12.357  0.00  0.00    +0.000 HD
ATOM     38  H   UNL     1      -1.751   9.471  13.720  0.00  0.00    +0.000 HD
ENDBRANCH  27  34
ENDBRANCH  26  31
ENDBRANCH   1  26
TORSDOF 6
ENDMDL
MODEL 9
REMARK VINA RESULT:      -8.7      2.638      4.710
REMARK  Name = 
REMARK  6 active torsions:
REMARK  status: ('A' for Active; 'I' for Inactive)
REMARK    1  A    between atoms: C_2  and  C_4
REMARK    2  A    between atoms: C_8  and  C_9
REMARK    3  A    between atoms: C_9  and  N_10
REMARK    4  A    between atoms: C_11  and  C_12
REMARK    5  A    between atoms: N_14  and  C_15
REMARK    6  A    between atoms: C_15  and  C_16
REMARK                            x       y       z     vdW  Elec       q    Type
REMARK                         _______ _______ _______ _____ _____    ______ ____
ROOT
ATOM      1  N   UNL     1       0.478  12.108  20.114  0.00  0.00    +0.000 N 
ATOM      2  C   UNL     1      -0.112  10.900  19.693  0.00  0.00    +0.000 A 
ATOM      3  C   UNL     1      -1.288  11.463  19.215  0.00  0.00    +0.000 A 
ATOM      4 CL   UNL     1      -2.024  11.344  17.703  0.00  0.00    +0.000 Cl
ATOM      5  C   UNL     1      -1.714  12.223  20.326  0.00  0.00    +0.000 A 
ATOM      6  C   UNL     1      -2.967  12.518  20.899  0.00  0.00    +0.000 A 
ATOM      7  C   UNL     1      -2.970  12.877  22.243  0.00  0.00    +0.000 A 
ATOM      8  C   UNL     1      -1.767  13.093  22.926  0.00  0.00    +0.000 A 
ATOM      9  C   UNL     1      -0.508  13.041  22.290  0.00  0.00    +0.000 A 
ATOM     10  C   UNL     1      -0.499  12.601  20.962  0.00  0.00    +0.000 A 
ENDROOT
BRANCH   2  11
ATOM     11  C   UNL     1       0.215   9.724  20.491  0.00  0.00    +0.000 C 
ATOM     12  O   UNL     1      -0.518   9.352  21.405  0.00  0.00    +0.000 OA
ATOM     13  N   UNL     1       1.307   8.994  20.095  0.00  0.00    +0.000 N 
ATOM     14  H   UNL     1       1.841   9.297  19.294  0.00  0.00    +0.000 HD
BRANCH  13  15
ATOM     15  C   UNL     1       1.593   7.687  20.662  0.00  0.00    +0.000 C 
BRANCH  15  16
ATOM     16  C   UNL     1       2.241   6.771  19.646  0.00  0.00    +0.000 A 
ATOM     17  C   UNL     1       3.032   7.372  18.649  0.00  0.00    +0.000 A 
ATOM     18  C   UNL     1       3.599   6.616  17.629  0.00  0.00    +0.000 A 
ATOM     19  C   UNL     1       3.341   5.251  17.558  0.00  0.00    +0.000 A 
ATOM     20  C   UNL     1       2.542   4.617  18.519  0.00  0.00    +0.000 A 
ATOM     21  C   UNL     1       2.251   3.248  18.389  0.00  0.00    +0.000 A 
ATOM     22  C   UNL     1       1.492   2.582  19.349  0.00  0.00    +0.000 A 
ATOM     23  C   UNL     1       1.052   3.270  20.470  0.00  0.00    +0.000 A 
ATOM     24  C   UNL     1       1.308   4.639  20.599  0.00  0.00    +0.000 A 
ATOM     25  C   UNL     1       2.020   5.360  19.612  0.00  0.00    +0.000 A 
ENDBRANCH  15  16
ENDBRANCH  13  15
ENDBRANCH   2  11
BRANCH   1  26
ATOM     26  C   UNL     1       1.648  12.519  19.328  0.00  0.00    +0.000 C 
BRANCH  26  31
ATOM     27  C   UNL     1       1.994  16.221  18.321  0.00  0.00    +0.000 A 
ATOM     28  C   UNL     1       3.282  16.183  17.760  0.00  0.00    +0.000 A 
ATOM     29  C   UNL     1       4.035  15.009  17.795  0.00  0.00    +0.000 A 
ATOM     30  C   UNL     1       3.471  13.895  18.412  0.00  0.00    +0.000 A 
ATOM     31  C   UNL     1       2.175  13.891  18.988  0.00  0.00    +0.000 A 
ATOM     32  C   UNL     1       1.428  15.081  18.933  0.00  0.00    +0.000 A 
BRANCH  27  34
ATOM     33  N   UNL     1       1.573  18.377  17.349  0.00  0.00    +0.000 NA
ATOM     34  C   UNL     1       1.225  17.489  18.219  0.00  0.00    +0.000 C 
ATOM     35  N   UNL     1       0.176  17.723  19.040  0.00  0.00    +0.000 N 
ATOM     36  H   UNL     1       0.934  19.171  17.382  0.00  0.00    +0.000 HD
ATOM     37  H   UNL     1      -0.087  18.697  19.161  0.00  0.00    +0.000 HD
ATOM     38  H   UNL     1       0.212  17.253  19.945  0.00  0.00    +0.000 HD
ENDBRANCH  27  34
ENDBRANCH  26  31
ENDBRANCH   1  26
TORSDOF 6
ENDMDL
