MODEL 1
REMARK VINA RESULT:      -6.9      0.000      0.000
REMARK  Name = 
REMARK  8 active torsions:
REMARK  status: ('A' for Active; 'I' for Inactive)
REMARK    1  A    between atoms: C_1  and  C_2
REMARK    2  A    between atoms: C_2  and  C_3
REMARK    3  A    between atoms: C_2  and  C_4
REMARK    4  A    between atoms: C_2  and  O_5
REMARK    5  A    between atoms: O_5  and  C_6
REMARK    6  A    between atoms: C_6  and  C_8
REMARK    7  A    between atoms: C_9  and  C_10
REMARK    8  A    between atoms: C_10  and  C_11
REMARK                            x       y       z     vdW  Elec       q    Type
REMARK                         _______ _______ _______ _____ _____    ______ ____
ROOT
ATOM      1  C   UNL     1       4.087   6.973  17.202  0.00  0.00    +0.000 C 
ENDROOT
BRANCH   1   2
ATOM      2  C   UNL     1       5.475   6.417  16.813  0.00  0.00    +0.000 C 
ATOM      3  C   UNL     1       5.372   5.644  15.501  0.00  0.00    +0.000 C 
ATOM      4  C   UNL     1       6.701   5.057  15.096  0.00  0.00    +0.000 C 
ATOM      5  O   UNL     1       6.984   4.820  13.926  0.00  0.00    +0.000 OA
ATOM      6  N   UNL     1       7.552   4.716  16.114  0.00  0.00    +0.000 N 
ATOM      7  C   UNL     1       7.336   4.829  17.460  0.00  0.00    +0.000 C 
ATOM      8  O   UNL     1       8.122   4.338  18.267  0.00  0.00    +0.000 OA
ATOM      9  C   UNL     1       6.059   5.507  17.899  0.00  0.00    +0.000 C 
ATOM     10  H   UNL     1       8.408   4.254  15.840  0.00  0.00    +0.000 HD
ENDBRANCH   1   2
BRANCH   1  12
ATOM     11  C   UNL     1       2.783   6.649  19.355  0.00  0.00    +0.000 C 
ATOM     12  C   UNL     1       3.444   6.166  18.287  0.00  0.00    +0.000 C 
BRANCH  11  13
ATOM     13  C   UNL     1       2.161   5.670  20.267  0.00  0.00    +0.000 C 
ATOM     14  O   UNL     1       1.089   5.866  20.822  0.00  0.00    +0.000 OA
BRANCH  13  15
ATOM     15  O   UNL     1       2.951   4.575  20.401  0.00  0.00    +0.000 OA
BRANCH  15  17
ATOM     16  C   UNL     1       1.240   3.323  19.138  0.00  0.00    +0.000 C 
ATOM     17  C   UNL     1       2.349   3.268  20.200  0.00  0.00    +0.000 C 
ATOM     18  C   UNL     1       1.851   2.685  21.532  0.00  0.00    +0.000 C 
ATOM     19  C   UNL     1       3.459   2.349  19.669  0.00  0.00    +0.000 C 
ENDBRANCH  15  17
ENDBRANCH  13  15
ENDBRANCH  11  13
ENDBRANCH   1  12
TORSDOF 5
ENDMDL
MODEL 2
REMARK VINA RESULT:      -6.8      0.135      1.057
REMARK  Name = 
REMARK  8 active torsions:
REMARK  status: ('A' for Active; 'I' for Inactive)
REMARK    1  A    between atoms: C_1  and  C_2
REMARK    2  A    between atoms: C_2  and  C_3
REMARK    3  A    between atoms: C_2  and  C_4
REMARK    4  A    between atoms: C_2  and  O_5
REMARK    5  A    between atoms: O_5  and  C_6
REMARK    6  A    between atoms: C_6  and  C_8
REMARK    7  A    between atoms: C_9  and  C_10
REMARK    8  A    between atoms: C_10  and  C_11
REMARK                            x       y       z     vdW  Elec       q    Type
REMARK                         _______ _______ _______ _____ _____    ______ ____
ROOT
ATOM      1  C   UNL     1       4.173   6.915  17.161  0.00  0.00    +0.000 C 
ENDROOT
BRANCH   1   2
ATOM      2  C   UNL     1       5.561   6.363  16.764  0.00  0.00    +0.000 C 
ATOM      3  C   UNL     1       5.454   5.594  15.450  0.00  0.00    +0.000 C 
ATOM      4  C   UNL     1       6.781   5.011  15.038  0.00  0.00    +0.000 C 
ATOM      5  O   UNL     1       7.060   4.778  13.865  0.00  0.00    +0.000 OA
ATOM      6  N   UNL     1       7.638   4.669  16.051  0.00  0.00    +0.000 N 
ATOM      7  C   UNL     1       7.427   4.778  17.399  0.00  0.00    +0.000 C 
ATOM      8  O   UNL     1       8.218   4.285  18.200  0.00  0.00    +0.000 OA
ATOM      9  C   UNL     1       6.150   5.452  17.844  0.00  0.00    +0.000 C 
ATOM     10  H   UNL     1       8.493   4.209  15.772  0.00  0.00    +0.000 HD
ENDBRANCH   1   2
BRANCH   1  12
ATOM     11  C   UNL     1       2.688   6.651  19.201  0.00  0.00    +0.000 C 
ATOM     12  C   UNL     1       3.584   6.172  18.318  0.00  0.00    +0.000 C 
BRANCH  11  13
ATOM     13  C   UNL     1       2.183   5.718  20.227  0.00  0.00    +0.000 C 
ATOM     14  O   UNL     1       1.175   5.937  20.885  0.00  0.00    +0.000 OA
BRANCH  13  15
ATOM     15  O   UNL     1       2.997   4.639  20.332  0.00  0.00    +0.000 OA
BRANCH  15  17
ATOM     16  C   UNL     1       1.936   2.782  21.565  0.00  0.00    +0.000 C 
ATOM     17  C   UNL     1       2.402   3.318  20.203  0.00  0.00    +0.000 C 
ATOM     18  C   UNL     1       3.365   2.351  19.495  0.00  0.00    +0.000 C 
ATOM     19  C   UNL     1       1.159   3.481  19.314  0.00  0.00    +0.000 C 
ENDBRANCH  15  17
ENDBRANCH  13  15
ENDBRANCH  11  13
ENDBRANCH   1  12
TORSDOF 5
ENDMDL
MODEL 3
REMARK VINA RESULT:      -6.7      2.202      3.329
REMARK  Name = 
REMARK  8 active torsions:
REMARK  status: ('A' for Active; 'I' for Inactive)
REMARK    1  A    between atoms: C_1  and  C_2
REMARK    2  A    between atoms: C_2  and  C_3
REMARK    3  A    between atoms: C_2  and  C_4
REMARK    4  A    between atoms: C_2  and  O_5
REMARK    5  A    between atoms: O_5  and  C_6
REMARK    6  A    between atoms: C_6  and  C_8
REMARK    7  A    between atoms: C_9  and  C_10
REMARK    8  A    between atoms: C_10  and  C_11
REMARK                            x       y       z     vdW  Elec       q    Type
REMARK                         _______ _______ _______ _____ _____    ______ ____
ROOT
ATOM      1  C   UNL     1       5.213   4.066  16.341  0.00  0.00    +0.000 C 
ENDROOT
BRANCH   1   2
ATOM      2  C   UNL     1       6.357   4.842  17.031  0.00  0.00    +0.000 C 
ATOM      3  C   UNL     1       6.216   4.730  18.547  0.00  0.00    +0.000 C 
ATOM      4  C   UNL     1       7.298   5.498  19.263  0.00  0.00    +0.000 C 
ATOM      5  O   UNL     1       7.677   5.199  20.391  0.00  0.00    +0.000 OA
ATOM      6  N   UNL     1       7.781   6.610  18.625  0.00  0.00    +0.000 N 
ATOM      7  C   UNL     1       7.388   7.120  17.418  0.00  0.00    +0.000 C 
ATOM      8  O   UNL     1       7.794   8.215  17.035  0.00  0.00    +0.000 OA
ATOM      9  C   UNL     1       6.380   6.319  16.627  0.00  0.00    +0.000 C 
ATOM     10  H   UNL     1       8.449   7.163  19.143  0.00  0.00    +0.000 HD
ENDBRANCH   1   2
BRANCH   1  12
ATOM     11  C   UNL     1       2.912   3.372  17.155  0.00  0.00    +0.000 C 
ATOM     12  C   UNL     1       4.240   3.505  17.330  0.00  0.00    +0.000 C 
BRANCH  11  13
ATOM     13  C   UNL     1       2.147   2.724  18.239  0.00  0.00    +0.000 C 
ATOM     14  O   UNL     1       1.064   2.185  18.056  0.00  0.00    +0.000 OA
BRANCH  13  15
ATOM     15  O   UNL     1       2.803   2.840  19.420  0.00  0.00    +0.000 OA
BRANCH  15  17
ATOM     16  C   UNL     1       2.901   5.108  20.387  0.00  0.00    +0.000 C 
ATOM     17  C   UNL     1       2.242   3.721  20.430  0.00  0.00    +0.000 C 
ATOM     18  C   UNL     1       2.326   3.080  21.824  0.00  0.00    +0.000 C 
ATOM     19  C   UNL     1       0.755   3.899  20.082  0.00  0.00    +0.000 C 
ENDBRANCH  15  17
ENDBRANCH  13  15
ENDBRANCH  11  13
ENDBRANCH   1  12
TORSDOF 5
ENDMDL
MODEL 4
REMARK VINA RESULT:      -6.7      0.689      2.224
REMARK  Name = 
REMARK  8 active torsions:
REMARK  status: ('A' for Active; 'I' for Inactive)
REMARK    1  A    between atoms: C_1  and  C_2
REMARK    2  A    between atoms: C_2  and  C_3
REMARK    3  A    between atoms: C_2  and  C_4
REMARK    4  A    between atoms: C_2  and  O_5
REMARK    5  A    between atoms: O_5  and  C_6
REMARK    6  A    between atoms: C_6  and  C_8
REMARK    7  A    between atoms: C_9  and  C_10
REMARK    8  A    between atoms: C_10  and  C_11
REMARK                            x       y       z     vdW  Elec       q    Type
REMARK                         _______ _______ _______ _____ _____    ______ ____
ROOT
ATOM      1  C   UNL     1       4.109   6.836  17.245  0.00  0.00    +0.000 C 
ENDROOT
BRANCH   1   2
ATOM      2  C   UNL     1       5.127   5.751  16.827  0.00  0.00    +0.000 C 
ATOM      3  C   UNL     1       6.353   5.817  17.735  0.00  0.00    +0.000 C 
ATOM      4  C   UNL     1       7.388   4.793  17.345  0.00  0.00    +0.000 C 
ATOM      5  O   UNL     1       8.196   4.338  18.149  0.00  0.00    +0.000 OA
ATOM      6  N   UNL     1       7.443   4.457  16.018  0.00  0.00    +0.000 N 
ATOM      7  C   UNL     1       6.679   4.951  14.996  0.00  0.00    +0.000 C 
ATOM      8  O   UNL     1       6.940   4.678  13.827  0.00  0.00    +0.000 OA
ATOM      9  C   UNL     1       5.564   5.901  15.367  0.00  0.00    +0.000 C 
ATOM     10  H   UNL     1       8.188   3.829  15.750  0.00  0.00    +0.000 HD
ENDBRANCH   1   2
BRANCH   1  12
ATOM     11  C   UNL     1       3.129   5.986  19.426  0.00  0.00    +0.000 C 
ATOM     12  C   UNL     1       3.026   6.282  18.117  0.00  0.00    +0.000 C 
BRANCH  11  13
ATOM     13  C   UNL     1       1.910   5.516  20.113  0.00  0.00    +0.000 C 
ATOM     14  O   UNL     1       1.506   6.007  21.157  0.00  0.00    +0.000 OA
BRANCH  13  15
ATOM     15  O   UNL     1       1.352   4.481  19.437  0.00  0.00    +0.000 OA
BRANCH  15  17
ATOM     16  C   UNL     1       1.301   2.831  21.272  0.00  0.00    +0.000 C 
ATOM     17  C   UNL     1       1.723   3.130  19.825  0.00  0.00    +0.000 C 
ATOM     18  C   UNL     1       3.222   2.886  19.593  0.00  0.00    +0.000 C 
ATOM     19  C   UNL     1       0.942   2.179  18.905  0.00  0.00    +0.000 C 
ENDBRANCH  15  17
ENDBRANCH  13  15
ENDBRANCH  11  13
ENDBRANCH   1  12
TORSDOF 5
ENDMDL
MODEL 5
REMARK VINA RESULT:      -6.6      2.588      6.008
REMARK  Name = 
REMARK  8 active torsions:
REMARK  status: ('A' for Active; 'I' for Inactive)
REMARK    1  A    between atoms: C_1  and  C_2
REMARK    2  A    between atoms: C_2  and  C_3
REMARK    3  A    between atoms: C_2  and  C_4
REMARK    4  A    between atoms: C_2  and  O_5
REMARK    5  A    between atoms: O_5  and  C_6
REMARK    6  A    between atoms: C_6  and  C_8
REMARK    7  A    between atoms: C_9  and  C_10
REMARK    8  A    between atoms: C_10  and  C_11
REMARK                            x       y       z     vdW  Elec       q    Type
REMARK                         _______ _______ _______ _____ _____    ______ ____
ROOT
ATOM      1  C   UNL     1       2.612   6.692  19.396  0.00  0.00    +0.000 C 
ENDROOT
BRANCH   1   2
ATOM      2  C   UNL     1       1.873   5.382  19.750  0.00  0.00    +0.000 C 
ATOM      3  C   UNL     1       2.602   4.669  20.886  0.00  0.00    +0.000 C 
ATOM      4  C   UNL     1       1.932   3.368  21.246  0.00  0.00    +0.000 C 
ATOM      5  O   UNL     1       2.021   2.872  22.365  0.00  0.00    +0.000 OA
ATOM      6  N   UNL     1       1.284   2.714  20.231  0.00  0.00    +0.000 N 
ATOM      7  C   UNL     1       1.185   3.093  18.920  0.00  0.00    +0.000 C 
ATOM      8  O   UNL     1       0.709   2.333  18.080  0.00  0.00    +0.000 OA
ATOM      9  C   UNL     1       1.757   4.441  18.547  0.00  0.00    +0.000 C 
ATOM     10  H   UNL     1       0.903   1.807  20.460  0.00  0.00    +0.000 HD
ENDBRANCH   1   2
BRANCH   1  12
ATOM     11  C   UNL     1       4.078   7.092  17.364  0.00  0.00    +0.000 C 
ATOM     12  C   UNL     1       3.794   6.448  18.511  0.00  0.00    +0.000 C 
BRANCH  11  13
ATOM     13  C   UNL     1       5.340   6.741  16.684  0.00  0.00    +0.000 C 
ATOM     14  O   UNL     1       6.399   7.307  16.917  0.00  0.00    +0.000 OA
BRANCH  13  15
ATOM     15  O   UNL     1       5.135   5.748  15.783  0.00  0.00    +0.000 OA
BRANCH  15  17
ATOM     16  C   UNL     1       4.712   3.505  16.721  0.00  0.00    +0.000 C 
ATOM     17  C   UNL     1       5.725   4.447  16.052  0.00  0.00    +0.000 C 
ATOM     18  C   UNL     1       7.016   4.590  16.872  0.00  0.00    +0.000 C 
ATOM     19  C   UNL     1       6.095   3.842  14.689  0.00  0.00    +0.000 C 
ENDBRANCH  15  17
ENDBRANCH  13  15
ENDBRANCH  11  13
ENDBRANCH   1  12
TORSDOF 5
ENDMDL
MODEL 6
REMARK VINA RESULT:      -6.6      0.550      2.188
REMARK  Name = 
REMARK  8 active torsions:
REMARK  status: ('A' for Active; 'I' for Inactive)
REMARK    1  A    between atoms: C_1  and  C_2
REMARK    2  A    between atoms: C_2  and  C_3
REMARK    3  A    between atoms: C_2  and  C_4
REMARK    4  A    between atoms: C_2  and  O_5
REMARK    5  A    between atoms: O_5  and  C_6
REMARK    6  A    between atoms: C_6  and  C_8
REMARK    7  A    between atoms: C_9  and  C_10
REMARK    8  A    between atoms: C_10  and  C_11
REMARK                            x       y       z     vdW  Elec       q    Type
REMARK                         _______ _______ _______ _____ _____    ______ ____
ROOT
ATOM      1  C   UNL     1       4.134   7.046  17.158  0.00  0.00    +0.000 C 
ENDROOT
BRANCH   1   2
ATOM      2  C   UNL     1       5.088   5.878  16.821  0.00  0.00    +0.000 C 
ATOM      3  C   UNL     1       6.338   5.963  17.693  0.00  0.00    +0.000 C 
ATOM      4  C   UNL     1       7.312   4.857  17.376  0.00  0.00    +0.000 C 
ATOM      5  O   UNL     1       8.117   4.437  18.202  0.00  0.00    +0.000 OA
ATOM      6  N   UNL     1       7.317   4.399  16.085  0.00  0.00    +0.000 N 
ATOM      7  C   UNL     1       6.552   4.836  15.039  0.00  0.00    +0.000 C 
ATOM      8  O   UNL     1       6.770   4.446  13.894  0.00  0.00    +0.000 OA
ATOM      9  C   UNL     1       5.494   5.872  15.344  0.00  0.00    +0.000 C 
ATOM     10  H   UNL     1       8.024   3.713  15.861  0.00  0.00    +0.000 HD
ENDBRANCH   1   2
BRANCH   1  12
ATOM     11  C   UNL     1       2.901   5.634  18.868  0.00  0.00    +0.000 C 
ATOM     12  C   UNL     1       3.390   6.811  18.435  0.00  0.00    +0.000 C 
BRANCH  11  13
ATOM     13  C   UNL     1       2.261   5.614  20.198  0.00  0.00    +0.000 C 
ATOM     14  O   UNL     1       1.516   6.502  20.589  0.00  0.00    +0.000 OA
BRANCH  13  15
ATOM     15  O   UNL     1       2.635   4.510  20.891  0.00  0.00    +0.000 OA
BRANCH  15  17
ATOM     16  C   UNL     1       2.971   2.362  19.723  0.00  0.00    +0.000 C 
ATOM     17  C   UNL     1       2.016   3.242  20.544  0.00  0.00    +0.000 C 
ATOM     18  C   UNL     1       0.672   3.464  19.833  0.00  0.00    +0.000 C 
ATOM     19  C   UNL     1       1.734   2.514  21.868  0.00  0.00    +0.000 C 
ENDBRANCH  15  17
ENDBRANCH  13  15
ENDBRANCH  11  13
ENDBRANCH   1  12
TORSDOF 5
ENDMDL
MODEL 7
REMARK VINA RESULT:      -6.6      2.386      5.923
REMARK  Name = 
REMARK  8 active torsions:
REMARK  status: ('A' for Active; 'I' for Inactive)
REMARK    1  A    between atoms: C_1  and  C_2
REMARK    2  A    between atoms: C_2  and  C_3
REMARK    3  A    between atoms: C_2  and  C_4
REMARK    4  A    between atoms: C_2  and  O_5
REMARK    5  A    between atoms: O_5  and  C_6
REMARK    6  A    between atoms: C_6  and  C_8
REMARK    7  A    between atoms: C_9  and  C_10
REMARK    8  A    between atoms: C_10  and  C_11
REMARK                            x       y       z     vdW  Elec       q    Type
REMARK                         _______ _______ _______ _____ _____    ______ ____
ROOT
ATOM      1  C   UNL     1       2.542   6.300  18.332  0.00  0.00    +0.000 C 
ENDROOT
BRANCH   1   2
ATOM      2  C   UNL     1       2.317   4.873  18.883  0.00  0.00    +0.000 C 
ATOM      3  C   UNL     1       2.602   4.848  20.382  0.00  0.00    +0.000 C 
ATOM      4  C   UNL     1       2.423   3.467  20.958  0.00  0.00    +0.000 C 
ATOM      5  O   UNL     1       2.136   3.280  22.137  0.00  0.00    +0.000 OA
ATOM      6  N   UNL     1       2.684   2.417  20.118  0.00  0.00    +0.000 N 
ATOM      7  C   UNL     1       3.105   2.470  18.817  0.00  0.00    +0.000 C 
ATOM      8  O   UNL     1       3.455   1.450  18.227  0.00  0.00    +0.000 OA
ATOM      9  C   UNL     1       3.196   3.836  18.177  0.00  0.00    +0.000 C 
ATOM     10  H   UNL     1       2.637   1.496  20.531  0.00  0.00    +0.000 HD
ENDBRANCH   1   2
BRANCH   1  12
ATOM     11  C   UNL     1       4.893   7.050  17.743  0.00  0.00    +0.000 C 
ATOM     12  C   UNL     1       3.759   6.380  17.465  0.00  0.00    +0.000 C 
BRANCH  11  13
ATOM     13  C   UNL     1       6.002   6.936  16.776  0.00  0.00    +0.000 C 
ATOM     14  O   UNL     1       7.067   7.520  16.915  0.00  0.00    +0.000 OA
BRANCH  13  15
ATOM     15  O   UNL     1       5.652   6.130  15.743  0.00  0.00    +0.000 OA
BRANCH  15  17
ATOM     16  C   UNL     1       7.217   4.534  16.789  0.00  0.00    +0.000 C 
ATOM     17  C   UNL     1       6.421   4.915  15.531  0.00  0.00    +0.000 C 
ATOM     18  C   UNL     1       7.318   5.043  14.291  0.00  0.00    +0.000 C 
ATOM     19  C   UNL     1       5.405   3.793  15.264  0.00  0.00    +0.000 C 
ENDBRANCH  15  17
ENDBRANCH  13  15
ENDBRANCH  11  13
ENDBRANCH   1  12
TORSDOF 5
ENDMDL
MODEL 8
REMARK VINA RESULT:      -6.5      2.618      6.000
REMARK  Name = 
REMARK  8 active torsions:
REMARK  status: ('A' for Active; 'I' for Inactive)
REMARK    1  A    between atoms: C_1  and  C_2
REMARK    2  A    between atoms: C_2  and  C_3
REMARK    3  A    between atoms: C_2  and  C_4
REMARK    4  A    between atoms: C_2  and  O_5
REMARK    5  A    between atoms: O_5  and  C_6
REMARK    6  A    between atoms: C_6  and  C_8
REMARK    7  A    between atoms: C_9  and  C_10
REMARK    8  A    between atoms: C_10  and  C_11
REMARK                            x       y       z     vdW  Elec       q    Type
REMARK                         _______ _______ _______ _____ _____    ______ ____
ROOT
ATOM      1  C   UNL     1       2.102   5.112  18.471  0.00  0.00    +0.000 C 
ENDROOT
BRANCH   1   2
ATOM      2  C   UNL     1       2.535   4.318  19.724  0.00  0.00    +0.000 C 
ATOM      3  C   UNL     1       3.524   3.225  19.326  0.00  0.00    +0.000 C 
ATOM      4  C   UNL     1       3.952   2.405  20.516  0.00  0.00    +0.000 C 
ATOM      5  O   UNL     1       5.031   1.819  20.554  0.00  0.00    +0.000 OA
ATOM      6  N   UNL     1       3.036   2.269  21.525  0.00  0.00    +0.000 N 
ATOM      7  C   UNL     1       1.767   2.778  21.579  0.00  0.00    +0.000 C 
ATOM      8  O   UNL     1       0.995   2.447  22.475  0.00  0.00    +0.000 OA
ATOM      9  C   UNL     1       1.343   3.690  20.451  0.00  0.00    +0.000 C 
ATOM     10  H   UNL     1       3.300   1.656  22.284  0.00  0.00    +0.000 HD
ENDBRANCH   1   2
BRANCH   1  12
ATOM     11  C   UNL     1       4.062   5.521  16.913  0.00  0.00    +0.000 C 
ATOM     12  C   UNL     1       3.229   5.911  17.896  0.00  0.00    +0.000 C 
BRANCH  11  13
ATOM     13  C   UNL     1       5.064   6.499  16.446  0.00  0.00    +0.000 C 
ATOM     14  O   UNL     1       5.220   6.777  15.265  0.00  0.00    +0.000 OA
BRANCH  13  15
ATOM     15  O   UNL     1       5.765   7.000  17.493  0.00  0.00    +0.000 OA
BRANCH  15  17
ATOM     16  C   UNL     1       8.100   7.246  18.256  0.00  0.00    +0.000 C 
ATOM     17  C   UNL     1       6.950   6.280  17.930  0.00  0.00    +0.000 C 
ATOM     18  C   UNL     1       7.358   5.218  16.896  0.00  0.00    +0.000 C 
ATOM     19  C   UNL     1       6.569   5.552  19.228  0.00  0.00    +0.000 C 
ENDBRANCH  15  17
ENDBRANCH  13  15
ENDBRANCH  11  13
ENDBRANCH   1  12
TORSDOF 5
ENDMDL
MODEL 9
REMARK VINA RESULT:      -6.5      2.251      3.380
REMARK  Name = 
REMARK  8 active torsions:
REMARK  status: ('A' for Active; 'I' for Inactive)
REMARK    1  A    between atoms: C_1  and  C_2
REMARK    2  A    between atoms: C_2  and  C_3
REMARK    3  A    between atoms: C_2  and  C_4
REMARK    4  A    between atoms: C_2  and  O_5
REMARK    5  A    between atoms: O_5  and  C_6
REMARK    6  A    between atoms: C_6  and  C_8
REMARK    7  A    between atoms: C_9  and  C_10
REMARK    8  A    between atoms: C_10  and  C_11
REMARK                            x       y       z     vdW  Elec       q    Type
REMARK                         _______ _______ _______ _____ _____    ______ ____
ROOT
ATOM      1  C   UNL     1       5.675   4.107  16.321  0.00  0.00    +0.000 C 
ENDROOT
BRANCH   1   2
ATOM      2  C   UNL     1       6.733   4.947  17.071  0.00  0.00    +0.000 C 
ATOM      3  C   UNL     1       6.559   4.771  18.577  0.00  0.00    +0.000 C 
ATOM      4  C   UNL     1       7.554   5.597  19.352  0.00  0.00    +0.000 C 
ATOM      5  O   UNL     1       7.924   5.289  20.481  0.00  0.00    +0.000 OA
ATOM      6  N   UNL     1       7.963   6.766  18.766  0.00  0.00    +0.000 N 
ATOM      7  C   UNL     1       7.565   7.285  17.565  0.00  0.00    +0.000 C 
ATOM      8  O   UNL     1       7.892   8.422  17.231  0.00  0.00    +0.000 OA
ATOM      9  C   UNL     1       6.648   6.435  16.716  0.00  0.00    +0.000 C 
ATOM     10  H   UNL     1       8.570   7.351  19.323  0.00  0.00    +0.000 HD
ENDBRANCH   1   2
BRANCH   1  12
ATOM     11  C   UNL     1       3.205   3.709  16.743  0.00  0.00    +0.000 C 
ATOM     12  C   UNL     1       4.475   3.828  17.171  0.00  0.00    +0.000 C 
BRANCH  11  13
ATOM     13  C   UNL     1       2.182   3.358  17.747  0.00  0.00    +0.000 C 
ATOM     14  O   UNL     1       1.700   2.237  17.840  0.00  0.00    +0.000 OA
BRANCH  13  15
ATOM     15  O   UNL     1       1.862   4.440  18.499  0.00  0.00    +0.000 OA
BRANCH  15  17
ATOM     16  C   UNL     1       0.819   3.326  20.439  0.00  0.00    +0.000 C 
ATOM     17  C   UNL     1       1.898   4.302  19.946  0.00  0.00    +0.000 C 
ATOM     18  C   UNL     1       1.797   5.675  20.629  0.00  0.00    +0.000 C 
ATOM     19  C   UNL     1       3.268   3.700  20.296  0.00  0.00    +0.000 C 
ENDBRANCH  15  17
ENDBRANCH  13  15
ENDBRANCH  11  13
ENDBRANCH   1  12
TORSDOF 5
ENDMDL
