MODEL 1
REMARK VINA RESULT:      -8.4      0.000      0.000
REMARK  Name = 
REMARK  3 active torsions:
REMARK  status: ('A' for Active; 'I' for Inactive)
REMARK    1  A    between atoms: N_3  and  C_4
REMARK    2  A    between atoms: C_7  and  C_8
REMARK    3  A    between atoms: N_13  and  C_14
REMARK                            x       y       z     vdW  Elec       q    Type
REMARK                         _______ _______ _______ _____ _____    ______ ____
ROOT
ATOM      1  C   UNL     1       1.324   8.768  20.098  0.00  0.00    +0.000 A 
ATOM      2  C   UNL     1       1.906   8.507  18.857  0.00  0.00    +0.000 A 
ATOM      3  C   UNL     1       2.464   7.255  18.586  0.00  0.00    +0.000 A 
ATOM      4  C   UNL     1       2.452   6.253  19.559  0.00  0.00    +0.000 A 
ATOM      5  C   UNL     1       1.909   6.531  20.815  0.00  0.00    +0.000 A 
ATOM      6  C   UNL     1       1.318   7.767  21.073  0.00  0.00    +0.000 A 
ENDROOT
BRANCH   1   9
ATOM      7  O   UNL     1      -1.133  10.071  19.177  0.00  0.00    +0.000 OA
ATOM      8  C   UNL     1      -0.360  10.593  19.968  0.00  0.00    +0.000 C 
ATOM      9  N   UNL     1       0.778  10.010  20.464  0.00  0.00    +0.000 N 
ATOM     10  N   UNL     1      -0.598  11.866  20.429  0.00  0.00    +0.000 N 
ATOM     11  C   UNL     1       0.167  12.652  21.396  0.00  0.00    +0.000 C 
ATOM     12  C   UNL     1      -0.779  13.747  21.756  0.00  0.00    +0.000 A 
ATOM     13  C   UNL     1      -0.763  14.598  22.843  0.00  0.00    +0.000 A 
ATOM     14  C   UNL     1      -1.775  15.554  22.938  0.00  0.00    +0.000 A 
ATOM     15  C   UNL     1      -2.736  15.690  21.920  0.00  0.00    +0.000 A 
ATOM     16  C   UNL     1      -2.764  14.802  20.845  0.00  0.00    +0.000 A 
ATOM     17  C   UNL     1      -1.819  13.796  20.822  0.00  0.00    +0.000 A 
ATOM     18  C   UNL     1      -1.811  12.551  19.998  0.00  0.00    +0.000 C 
ATOM     19  H   UNL     1       1.236  10.481  21.224  0.00  0.00    +0.000 HD
ENDBRANCH   1   9
BRANCH   4  20
ATOM     20  C   UNL     1       3.164   4.980  19.277  0.00  0.00    +0.000 C 
ATOM     21  O   UNL     1       2.798   3.983  19.897  0.00  0.00    +0.000 OA
ATOM     22  N   UNL     1       4.149   4.925  18.303  0.00  0.00    +0.000 N 
ATOM     23  C   UNL     1       4.557   3.615  17.790  0.00  0.00    +0.000 C 
ATOM     24  C   UNL     1       4.443   3.574  16.252  0.00  0.00    +0.000 C 
ATOM     25  N   UNL     1       5.193   4.708  15.678  0.00  0.00    +0.000 N 
ATOM     26  C   UNL     1       4.807   6.037  16.187  0.00  0.00    +0.000 C 
ATOM     27  C   UNL     1       4.913   6.044  17.726  0.00  0.00    +0.000 C 
BRANCH  25  28
ATOM     28  C   UNL     1       5.971   4.573  14.548  0.00  0.00    +0.000 A 
ATOM     29  C   UNL     1       7.153   5.295  14.355  0.00  0.00    +0.000 A 
ATOM     30  C   UNL     1       7.898   5.193  13.170  0.00  0.00    +0.000 A 
ATOM     31  C   UNL     1       7.463   4.355  12.152  0.00  0.00    +0.000 A 
ATOM     32  C   UNL     1       6.291   3.619  12.312  0.00  0.00    +0.000 A 
ATOM     33  C   UNL     1       5.562   3.737  13.501  0.00  0.00    +0.000 A 
ENDBRANCH  25  28
ENDBRANCH   4  20
TORSDOF 3
ENDMDL
MODEL 2
REMARK VINA RESULT:      -8.4      1.234      1.415
REMARK  Name = 
REMARK  3 active torsions:
REMARK  status: ('A' for Active; 'I' for Inactive)
REMARK    1  A    between atoms: N_3  and  C_4
REMARK    2  A    between atoms: C_7  and  C_8
REMARK    3  A    between atoms: N_13  and  C_14
REMARK                            x       y       z     vdW  Elec       q    Type
REMARK                         _______ _______ _______ _____ _____    ______ ____
ROOT
ATOM      1  C   UNL     1       1.276   9.190  19.635  0.00  0.00    +0.000 A 
ATOM      2  C   UNL     1       1.808   8.795  18.407  0.00  0.00    +0.000 A 
ATOM      3  C   UNL     1       2.434   7.553  18.274  0.00  0.00    +0.000 A 
ATOM      4  C   UNL     1       2.541   6.696  19.372  0.00  0.00    +0.000 A 
ATOM      5  C   UNL     1       2.046   7.112  20.610  0.00  0.00    +0.000 A 
ATOM      6  C   UNL     1       1.388   8.335  20.735  0.00  0.00    +0.000 A 
ENDROOT
BRANCH   1   9
ATOM      7  O   UNL     1       1.919  11.816  18.507  0.00  0.00    +0.000 OA
ATOM      8  C   UNL     1       1.037  11.647  19.338  0.00  0.00    +0.000 C 
ATOM      9  N   UNL     1       0.667  10.436  19.863  0.00  0.00    +0.000 N 
ATOM     10  N   UNL     1       0.329  12.721  19.821  0.00  0.00    +0.000 N 
ATOM     11  C   UNL     1      -0.778  12.738  20.776  0.00  0.00    +0.000 C 
ATOM     12  C   UNL     1      -1.351  14.103  20.596  0.00  0.00    +0.000 A 
ATOM     13  C   UNL     1      -2.588  14.592  20.968  0.00  0.00    +0.000 A 
ATOM     14  C   UNL     1      -2.872  15.929  20.686  0.00  0.00    +0.000 A 
ATOM     15  C   UNL     1      -1.901  16.767  20.110  0.00  0.00    +0.000 A 
ATOM     16  C   UNL     1      -0.668  16.254  19.706  0.00  0.00    +0.000 A 
ATOM     17  C   UNL     1      -0.444  14.905  19.895  0.00  0.00    +0.000 A 
ATOM     18  C   UNL     1       0.616  14.047  19.286  0.00  0.00    +0.000 C 
ATOM     19  H   UNL     1      -0.173  10.417  20.413  0.00  0.00    +0.000 HD
ENDBRANCH   1   9
BRANCH   4  20
ATOM     20  C   UNL     1       3.321   5.441  19.220  0.00  0.00    +0.000 C 
ATOM     21  O   UNL     1       3.032   4.507  19.968  0.00  0.00    +0.000 OA
ATOM     22  N   UNL     1       4.281   5.324  18.228  0.00  0.00    +0.000 N 
ATOM     23  C   UNL     1       4.754   3.987  17.863  0.00  0.00    +0.000 C 
ATOM     24  C   UNL     1       4.602   3.752  16.345  0.00  0.00    +0.000 C 
ATOM     25  N   UNL     1       5.267   4.849  15.614  0.00  0.00    +0.000 N 
ATOM     26  C   UNL     1       4.814   6.206  15.973  0.00  0.00    +0.000 C 
ATOM     27  C   UNL     1       4.960   6.406  17.496  0.00  0.00    +0.000 C 
BRANCH  25  28
ATOM     28  C   UNL     1       6.021   4.622  14.483  0.00  0.00    +0.000 A 
ATOM     29  C   UNL     1       7.212   5.307  14.221  0.00  0.00    +0.000 A 
ATOM     30  C   UNL     1       7.933   5.110  13.032  0.00  0.00    +0.000 A 
ATOM     31  C   UNL     1       7.464   4.211  12.083  0.00  0.00    +0.000 A 
ATOM     32  C   UNL     1       6.284   3.510  12.314  0.00  0.00    +0.000 A 
ATOM     33  C   UNL     1       5.579   3.723  13.504  0.00  0.00    +0.000 A 
ENDBRANCH  25  28
ENDBRANCH   4  20
TORSDOF 3
ENDMDL
MODEL 3
REMARK VINA RESULT:      -8.4      1.018      1.576
REMARK  Name = 
REMARK  3 active torsions:
REMARK  status: ('A' for Active; 'I' for Inactive)
REMARK    1  A    between atoms: N_3  and  C_4
REMARK    2  A    between atoms: C_7  and  C_8
REMARK    3  A    between atoms: N_13  and  C_14
REMARK                            x       y       z     vdW  Elec       q    Type
REMARK                         _______ _______ _______ _____ _____    ______ ____
ROOT
ATOM      1  C   UNL     1       1.187   8.518  20.333  0.00  0.00    +0.000 A 
ATOM      2  C   UNL     1       1.193   7.435  21.212  0.00  0.00    +0.000 A 
ATOM      3  C   UNL     1       1.892   6.267  20.893  0.00  0.00    +0.000 A 
ATOM      4  C   UNL     1       2.587   6.170  19.685  0.00  0.00    +0.000 A 
ATOM      5  C   UNL     1       2.543   7.240  18.787  0.00  0.00    +0.000 A 
ATOM      6  C   UNL     1       1.877   8.418  19.122  0.00  0.00    +0.000 A 
ENDROOT
BRANCH   1   9
ATOM      7  O   UNL     1       0.522   9.842  22.860  0.00  0.00    +0.000 OA
ATOM      8  C   UNL     1       0.158  10.266  21.772  0.00  0.00    +0.000 C 
ATOM      9  N   UNL     1       0.478   9.710  20.559  0.00  0.00    +0.000 N 
ATOM     10  N   UNL     1      -0.640  11.382  21.696  0.00  0.00    +0.000 N 
ATOM     11  C   UNL     1      -1.149  12.070  20.511  0.00  0.00    +0.000 C 
ATOM     12  C   UNL     1      -1.603  13.382  21.057  0.00  0.00    +0.000 A 
ATOM     13  C   UNL     1      -1.866  14.565  20.395  0.00  0.00    +0.000 A 
ATOM     14  C   UNL     1      -2.292  15.656  21.154  0.00  0.00    +0.000 A 
ATOM     15  C   UNL     1      -2.516  15.529  22.536  0.00  0.00    +0.000 A 
ATOM     16  C   UNL     1      -2.213  14.340  23.200  0.00  0.00    +0.000 A 
ATOM     17  C   UNL     1      -1.692  13.305  22.451  0.00  0.00    +0.000 A 
ATOM     18  C   UNL     1      -0.994  12.074  22.930  0.00  0.00    +0.000 C 
ATOM     19  H   UNL     1       0.249  10.244  19.740  0.00  0.00    +0.000 HD
ENDBRANCH   1   9
BRANCH   4  20
ATOM     20  C   UNL     1       3.212   4.872  19.328  0.00  0.00    +0.000 C 
ATOM     21  O   UNL     1       2.783   3.867  19.895  0.00  0.00    +0.000 OA
ATOM     22  N   UNL     1       4.187   4.806  18.345  0.00  0.00    +0.000 N 
ATOM     23  C   UNL     1       4.506   3.502  17.758  0.00  0.00    +0.000 C 
ATOM     24  C   UNL     1       4.383   3.554  16.220  0.00  0.00    +0.000 C 
ATOM     25  N   UNL     1       5.204   4.667  15.704  0.00  0.00    +0.000 N 
ATOM     26  C   UNL     1       4.908   5.988  16.289  0.00  0.00    +0.000 C 
ATOM     27  C   UNL     1       5.021   5.902  17.825  0.00  0.00    +0.000 C 
BRANCH  25  28
ATOM     28  C   UNL     1       5.967   4.544  14.562  0.00  0.00    +0.000 A 
ATOM     29  C   UNL     1       7.136   5.284  14.354  0.00  0.00    +0.000 A 
ATOM     30  C   UNL     1       7.864   5.193  13.157  0.00  0.00    +0.000 A 
ATOM     31  C   UNL     1       7.426   4.350  12.144  0.00  0.00    +0.000 A 
ATOM     32  C   UNL     1       6.267   3.598  12.321  0.00  0.00    +0.000 A 
ATOM     33  C   UNL     1       5.555   3.704  13.521  0.00  0.00    +0.000 A 
ENDBRANCH  25  28
ENDBRANCH   4  20
TORSDOF 3
ENDMDL
MODEL 4
REMARK VINA RESULT:      -8.4      2.881     12.324
REMARK  Name = 
REMARK  3 active torsions:
REMARK  status: ('A' for Active; 'I' for Inactive)
REMARK    1  A    between atoms: N_3  and  C_4
REMARK    2  A    between atoms: C_7  and  C_8
REMARK    3  A    between atoms: N_13  and  C_14
REMARK                            x       y       z     vdW  Elec       q    Type
REMARK                         _______ _______ _______ _____ _____    ______ ____
ROOT
ATOM      1  C   UNL     1       0.911  10.458  18.995  0.00  0.00    +0.000 A 
ATOM      2  C   UNL     1      -0.406  10.720  18.614  0.00  0.00    +0.000 A 
ATOM      3  C   UNL     1      -0.974  11.976  18.845  0.00  0.00    +0.000 A 
ATOM      4  C   UNL     1      -0.229  12.982  19.466  0.00  0.00    +0.000 A 
ATOM      5  C   UNL     1       1.074  12.703  19.886  0.00  0.00    +0.000 A 
ATOM      6  C   UNL     1       1.652  11.463  19.622  0.00  0.00    +0.000 A 
ENDROOT
BRANCH   1   9
ATOM      7  O   UNL     1       1.011   8.170  20.821  0.00  0.00    +0.000 OA
ATOM      8  C   UNL     1       1.592   8.187  19.745  0.00  0.00    +0.000 C 
ATOM      9  N   UNL     1       1.541   9.213  18.835  0.00  0.00    +0.000 N 
ATOM     10  N   UNL     1       2.374   7.124  19.364  0.00  0.00    +0.000 N 
ATOM     11  C   UNL     1       3.114   6.924  18.119  0.00  0.00    +0.000 C 
ATOM     12  C   UNL     1       3.426   5.467  18.147  0.00  0.00    +0.000 A 
ATOM     13  C   UNL     1       3.808   4.631  17.116  0.00  0.00    +0.000 A 
ATOM     14  C   UNL     1       4.052   3.291  17.419  0.00  0.00    +0.000 A 
ATOM     15  C   UNL     1       3.980   2.827  18.745  0.00  0.00    +0.000 A 
ATOM     16  C   UNL     1       3.559   3.672  19.772  0.00  0.00    +0.000 A 
ATOM     17  C   UNL     1       3.219   4.967  19.437  0.00  0.00    +0.000 A 
ATOM     18  C   UNL     1       2.452   5.962  20.243  0.00  0.00    +0.000 C 
ATOM     19  H   UNL     1       1.931   9.034  17.927  0.00  0.00    +0.000 HD
ENDBRANCH   1   9
BRANCH   4  20
ATOM     20  C   UNL     1      -0.906  14.260  19.805  0.00  0.00    +0.000 C 
ATOM     21  O   UNL     1      -0.603  15.249  19.139  0.00  0.00    +0.000 OA
ATOM     22  N   UNL     1      -1.883  14.300  20.787  0.00  0.00    +0.000 N 
ATOM     23  C   UNL     1      -2.781  15.457  20.838  0.00  0.00    +0.000 C 
ATOM     24  C   UNL     1      -4.255  15.003  20.802  0.00  0.00    +0.000 C 
ATOM     25  N   UNL     1      -4.485  14.013  21.873  0.00  0.00    +0.000 N 
ATOM     26  C   UNL     1      -3.586  12.844  21.849  0.00  0.00    +0.000 C 
ATOM     27  C   UNL     1      -2.121  13.328  21.866  0.00  0.00    +0.000 C 
BRANCH  25  28
ATOM     28  C   UNL     1      -5.628  14.020  22.642  0.00  0.00    +0.000 A 
ATOM     29  C   UNL     1      -6.250  15.203  23.057  0.00  0.00    +0.000 A 
ATOM     30  C   UNL     1      -7.377  15.191  23.894  0.00  0.00    +0.000 A 
ATOM     31  C   UNL     1      -7.902  13.981  24.328  0.00  0.00    +0.000 A 
ATOM     32  C   UNL     1      -7.309  12.786  23.931  0.00  0.00    +0.000 A 
ATOM     33  C   UNL     1      -6.185  12.819  23.098  0.00  0.00    +0.000 A 
ENDBRANCH  25  28
ENDBRANCH   4  20
TORSDOF 3
ENDMDL
MODEL 5
REMARK VINA RESULT:      -8.3      1.214      1.287
REMARK  Name = 
REMARK  3 active torsions:
REMARK  status: ('A' for Active; 'I' for Inactive)
REMARK    1  A    between atoms: N_3  and  C_4
REMARK    2  A    between atoms: C_7  and  C_8
REMARK    3  A    between atoms: N_13  and  C_14
REMARK                            x       y       z     vdW  Elec       q    Type
REMARK                         _______ _______ _______ _____ _____    ______ ____
ROOT
ATOM      1  C   UNL     1       1.441   8.393  20.303  0.00  0.00    +0.000 A 
ATOM      2  C   UNL     1       2.036   8.212  19.054  0.00  0.00    +0.000 A 
ATOM      3  C   UNL     1       2.528   6.959  18.679  0.00  0.00    +0.000 A 
ATOM      4  C   UNL     1       2.436   5.875  19.555  0.00  0.00    +0.000 A 
ATOM      5  C   UNL     1       1.880   6.070  20.822  0.00  0.00    +0.000 A 
ATOM      6  C   UNL     1       1.355   7.310  21.182  0.00  0.00    +0.000 A 
ENDROOT
BRANCH   1   9
ATOM      7  O   UNL     1      -0.618   8.951  22.311  0.00  0.00    +0.000 OA
ATOM      8  C   UNL     1      -0.041   9.832  21.688  0.00  0.00    +0.000 C 
ATOM      9  N   UNL     1       0.958   9.627  20.771  0.00  0.00    +0.000 N 
ATOM     10  N   UNL     1      -0.383  11.149  21.877  0.00  0.00    +0.000 N 
ATOM     11  C   UNL     1       0.199  12.346  21.272  0.00  0.00    +0.000 C 
ATOM     12  C   UNL     1      -0.315  13.442  22.142  0.00  0.00    +0.000 A 
ATOM     13  C   UNL     1       0.138  14.739  22.281  0.00  0.00    +0.000 A 
ATOM     14  C   UNL     1      -0.539  15.575  23.170  0.00  0.00    +0.000 A 
ATOM     15  C   UNL     1      -1.689  15.129  23.846  0.00  0.00    +0.000 A 
ATOM     16  C   UNL     1      -2.117  13.807  23.726  0.00  0.00    +0.000 A 
ATOM     17  C   UNL     1      -1.373  12.965  22.924  0.00  0.00    +0.000 A 
ATOM     18  C   UNL     1      -1.402  11.472  22.869  0.00  0.00    +0.000 C 
ATOM     19  H   UNL     1       1.455  10.439  20.451  0.00  0.00    +0.000 HD
ENDBRANCH   1   9
BRANCH   4  20
ATOM     20  C   UNL     1       3.080   4.593  19.170  0.00  0.00    +0.000 C 
ATOM     21  O   UNL     1       2.641   3.567  19.687  0.00  0.00    +0.000 OA
ATOM     22  N   UNL     1       4.085   4.569  18.216  0.00  0.00    +0.000 N 
ATOM     23  C   UNL     1       4.430   3.289  17.592  0.00  0.00    +0.000 C 
ATOM     24  C   UNL     1       4.354   3.397  16.054  0.00  0.00    +0.000 C 
ATOM     25  N   UNL     1       5.184   4.532  15.604  0.00  0.00    +0.000 N 
ATOM     26  C   UNL     1       4.861   5.829  16.227  0.00  0.00    +0.000 C 
ATOM     27  C   UNL     1       4.927   5.688  17.762  0.00  0.00    +0.000 C 
BRANCH  25  28
ATOM     28  C   UNL     1       5.981   4.455  14.483  0.00  0.00    +0.000 A 
ATOM     29  C   UNL     1       7.138   5.226  14.327  0.00  0.00    +0.000 A 
ATOM     30  C   UNL     1       7.903   5.182  13.150  0.00  0.00    +0.000 A 
ATOM     31  C   UNL     1       7.513   4.354  12.104  0.00  0.00    +0.000 A 
ATOM     32  C   UNL     1       6.368   3.572  12.229  0.00  0.00    +0.000 A 
ATOM     33  C   UNL     1       5.619   3.632  13.409  0.00  0.00    +0.000 A 
ENDBRANCH  25  28
ENDBRANCH   4  20
TORSDOF 3
ENDMDL
MODEL 6
REMARK VINA RESULT:      -8.2      1.019      1.483
REMARK  Name = 
REMARK  3 active torsions:
REMARK  status: ('A' for Active; 'I' for Inactive)
REMARK    1  A    between atoms: N_3  and  C_4
REMARK    2  A    between atoms: C_7  and  C_8
REMARK    3  A    between atoms: N_13  and  C_14
REMARK                            x       y       z     vdW  Elec       q    Type
REMARK                         _______ _______ _______ _____ _____    ______ ____
ROOT
ATOM      1  C   UNL     1       1.286   9.435  19.569  0.00  0.00    +0.000 A 
ATOM      2  C   UNL     1       1.391   8.519  20.617  0.00  0.00    +0.000 A 
ATOM      3  C   UNL     1       2.032   7.292  20.423  0.00  0.00    +0.000 A 
ATOM      4  C   UNL     1       2.569   6.967  19.175  0.00  0.00    +0.000 A 
ATOM      5  C   UNL     1       2.423   7.867  18.117  0.00  0.00    +0.000 A 
ATOM      6  C   UNL     1       1.817   9.106  18.319  0.00  0.00    +0.000 A 
ENDROOT
BRANCH   1   9
ATOM      7  O   UNL     1      -0.819  10.278  21.425  0.00  0.00    +0.000 OA
ATOM      8  C   UNL     1      -0.389  10.999  20.534  0.00  0.00    +0.000 C 
ATOM      9  N   UNL     1       0.623  10.670  19.670  0.00  0.00    +0.000 N 
ATOM     10  N   UNL     1      -0.927  12.248  20.336  0.00  0.00    +0.000 N 
ATOM     11  C   UNL     1      -0.540  13.273  19.368  0.00  0.00    +0.000 C 
ATOM     12  C   UNL     1      -1.210  14.497  19.894  0.00  0.00    +0.000 A 
ATOM     13  C   UNL     1      -0.960  15.825  19.611  0.00  0.00    +0.000 A 
ATOM     14  C   UNL     1      -1.750  16.787  20.242  0.00  0.00    +0.000 A 
ATOM     15  C   UNL     1      -2.813  16.408  21.082  0.00  0.00    +0.000 A 
ATOM     16  C   UNL     1      -3.034  15.066  21.389  0.00  0.00    +0.000 A 
ATOM     17  C   UNL     1      -2.175  14.135  20.839  0.00  0.00    +0.000 A 
ATOM     18  C   UNL     1      -1.976  12.710  21.238  0.00  0.00    +0.000 C 
ATOM     19  H   UNL     1       0.987  11.408  19.093  0.00  0.00    +0.000 HD
ENDBRANCH   1   9
BRANCH   4  20
ATOM     20  C   UNL     1       3.131   5.607  18.976  0.00  0.00    +0.000 C 
ATOM     21  O   UNL     1       2.632   4.692  19.631  0.00  0.00    +0.000 OA
ATOM     22  N   UNL     1       4.128   5.387  18.038  0.00  0.00    +0.000 N 
ATOM     23  C   UNL     1       4.390   4.014  17.601  0.00  0.00    +0.000 C 
ATOM     24  C   UNL     1       4.313   3.909  16.063  0.00  0.00    +0.000 C 
ATOM     25  N   UNL     1       5.208   4.916  15.461  0.00  0.00    +0.000 N 
ATOM     26  C   UNL     1       4.969   6.306  15.895  0.00  0.00    +0.000 C 
ATOM     27  C   UNL     1       5.034   6.377  17.435  0.00  0.00    +0.000 C 
BRANCH  25  28
ATOM     28  C   UNL     1       5.993   4.634  14.364  0.00  0.00    +0.000 A 
ATOM     29  C   UNL     1       7.203   5.291  14.114  0.00  0.00    +0.000 A 
ATOM     30  C   UNL     1       7.957   5.036  12.958  0.00  0.00    +0.000 A 
ATOM     31  C   UNL     1       7.504   4.108  12.029  0.00  0.00    +0.000 A 
ATOM     32  C   UNL     1       6.305   3.435  12.249  0.00  0.00    +0.000 A 
ATOM     33  C   UNL     1       5.567   3.705  13.407  0.00  0.00    +0.000 A 
ENDBRANCH  25  28
ENDBRANCH   4  20
TORSDOF 3
ENDMDL
MODEL 7
REMARK VINA RESULT:      -8.1      1.025      1.302
REMARK  Name = 
REMARK  3 active torsions:
REMARK  status: ('A' for Active; 'I' for Inactive)
REMARK    1  A    between atoms: N_3  and  C_4
REMARK    2  A    between atoms: C_7  and  C_8
REMARK    3  A    between atoms: N_13  and  C_14
REMARK                            x       y       z     vdW  Elec       q    Type
REMARK                         _______ _______ _______ _____ _____    ______ ____
ROOT
ATOM      1  C   UNL     1       1.311   9.223  19.678  0.00  0.00    +0.000 A 
ATOM      2  C   UNL     1       1.819   8.821  18.442  0.00  0.00    +0.000 A 
ATOM      3  C   UNL     1       2.426   7.570  18.299  0.00  0.00    +0.000 A 
ATOM      4  C   UNL     1       2.537   6.711  19.395  0.00  0.00    +0.000 A 
ATOM      5  C   UNL     1       2.068   7.134  20.641  0.00  0.00    +0.000 A 
ATOM      6  C   UNL     1       1.429   8.366  20.776  0.00  0.00    +0.000 A 
ENDROOT
BRANCH   1   9
ATOM      7  O   UNL     1       0.532  10.469  22.212  0.00  0.00    +0.000 OA
ATOM      8  C   UNL     1       0.339  10.996  21.125  0.00  0.00    +0.000 C 
ATOM      9  N   UNL     1       0.724  10.477  19.916  0.00  0.00    +0.000 N 
ATOM     10  N   UNL     1      -0.312  12.204  21.048  0.00  0.00    +0.000 N 
ATOM     11  C   UNL     1      -0.606  13.017  19.870  0.00  0.00    +0.000 C 
ATOM     12  C   UNL     1      -0.963  14.339  20.458  0.00  0.00    +0.000 A 
ATOM     13  C   UNL     1      -1.014  15.582  19.858  0.00  0.00    +0.000 A 
ATOM     14  C   UNL     1      -1.392  16.671  20.645  0.00  0.00    +0.000 A 
ATOM     15  C   UNL     1      -1.778  16.492  21.986  0.00  0.00    +0.000 A 
ATOM     16  C   UNL     1      -1.689  15.239  22.591  0.00  0.00    +0.000 A 
ATOM     17  C   UNL     1      -1.211  14.193  21.827  0.00  0.00    +0.000 A 
ATOM     18  C   UNL     1      -0.716  12.861  22.286  0.00  0.00    +0.000 C 
ATOM     19  H   UNL     1       0.649  11.082  19.117  0.00  0.00    +0.000 HD
ENDBRANCH   1   9
BRANCH   4  20
ATOM     20  C   UNL     1       3.297   5.446  19.231  0.00  0.00    +0.000 C 
ATOM     21  O   UNL     1       2.989   4.507  19.965  0.00  0.00    +0.000 OA
ATOM     22  N   UNL     1       4.262   5.326  18.243  0.00  0.00    +0.000 N 
ATOM     23  C   UNL     1       4.715   3.986  17.863  0.00  0.00    +0.000 C 
ATOM     24  C   UNL     1       4.569   3.774  16.341  0.00  0.00    +0.000 C 
ATOM     25  N   UNL     1       5.256   4.869  15.629  0.00  0.00    +0.000 N 
ATOM     26  C   UNL     1       4.823   6.229  16.003  0.00  0.00    +0.000 C 
ATOM     27  C   UNL     1       4.963   6.406  17.529  0.00  0.00    +0.000 C 
BRANCH  25  28
ATOM     28  C   UNL     1       6.012   4.645  14.499  0.00  0.00    +0.000 A 
ATOM     29  C   UNL     1       7.196   5.342  14.234  0.00  0.00    +0.000 A 
ATOM     30  C   UNL     1       7.920   5.146  13.047  0.00  0.00    +0.000 A 
ATOM     31  C   UNL     1       7.462   4.238  12.102  0.00  0.00    +0.000 A 
ATOM     32  C   UNL     1       6.289   3.525  12.336  0.00  0.00    +0.000 A 
ATOM     33  C   UNL     1       5.581   3.736  13.525  0.00  0.00    +0.000 A 
ENDBRANCH  25  28
ENDBRANCH   4  20
TORSDOF 3
ENDMDL
MODEL 8
REMARK VINA RESULT:      -8.1      3.175     12.259
REMARK  Name = 
REMARK  3 active torsions:
REMARK  status: ('A' for Active; 'I' for Inactive)
REMARK    1  A    between atoms: N_3  and  C_4
REMARK    2  A    between atoms: C_7  and  C_8
REMARK    3  A    between atoms: N_13  and  C_14
REMARK                            x       y       z     vdW  Elec       q    Type
REMARK                         _______ _______ _______ _____ _____    ______ ____
ROOT
ATOM      1  C   UNL     1       0.915   9.833  19.163  0.00  0.00    +0.000 A 
ATOM      2  C   UNL     1      -0.182  10.297  18.436  0.00  0.00    +0.000 A 
ATOM      3  C   UNL     1      -0.675  11.588  18.646  0.00  0.00    +0.000 A 
ATOM      4  C   UNL     1      -0.079  12.425  19.592  0.00  0.00    +0.000 A 
ATOM      5  C   UNL     1       0.992  11.942  20.348  0.00  0.00    +0.000 A 
ATOM      6  C   UNL     1       1.508  10.669  20.113  0.00  0.00    +0.000 A 
ENDROOT
BRANCH   1   9
ATOM      7  O   UNL     1       1.089   7.692  21.155  0.00  0.00    +0.000 OA
ATOM      8  C   UNL     1       1.541   7.585  20.023  0.00  0.00    +0.000 C 
ATOM      9  N   UNL     1       1.447   8.538  19.041  0.00  0.00    +0.000 N 
ATOM     10  N   UNL     1       2.208   6.443  19.650  0.00  0.00    +0.000 N 
ATOM     11  C   UNL     1       2.784   6.096  18.353  0.00  0.00    +0.000 C 
ATOM     12  C   UNL     1       3.009   4.627  18.470  0.00  0.00    +0.000 A 
ATOM     13  C   UNL     1       3.218   3.689  17.478  0.00  0.00    +0.000 A 
ATOM     14  C   UNL     1       3.413   2.363  17.866  0.00  0.00    +0.000 A 
ATOM     15  C   UNL     1       3.469   2.010  19.226  0.00  0.00    +0.000 A 
ATOM     16  C   UNL     1       3.221   2.959  20.218  0.00  0.00    +0.000 A 
ATOM     17  C   UNL     1       2.924   4.244  19.813  0.00  0.00    +0.000 A 
ATOM     18  C   UNL     1       2.316   5.351  20.611  0.00  0.00    +0.000 C 
ATOM     19  H   UNL     1       1.717   8.262  18.114  0.00  0.00    +0.000 HD
ENDBRANCH   1   9
BRANCH   4  20
ATOM     20  C   UNL     1      -0.708  13.740  19.873  0.00  0.00    +0.000 C 
ATOM     21  O   UNL     1      -0.365  14.689  19.167  0.00  0.00    +0.000 OA
ATOM     22  N   UNL     1      -1.687  13.859  20.846  0.00  0.00    +0.000 N 
ATOM     23  C   UNL     1      -2.540  15.050  20.843  0.00  0.00    +0.000 C 
ATOM     24  C   UNL     1      -4.030  14.651  20.818  0.00  0.00    +0.000 C 
ATOM     25  N   UNL     1      -4.302  13.716  21.928  0.00  0.00    +0.000 N 
ATOM     26  C   UNL     1      -3.448  12.514  21.958  0.00  0.00    +0.000 C 
ATOM     27  C   UNL     1      -1.966  12.942  21.964  0.00  0.00    +0.000 C 
BRANCH  25  28
ATOM     28  C   UNL     1      -5.448  13.799  22.689  0.00  0.00    +0.000 A 
ATOM     29  C   UNL     1      -5.836  12.791  23.579  0.00  0.00    +0.000 A 
ATOM     30  C   UNL     1      -7.039  12.864  24.299  0.00  0.00    +0.000 A 
ATOM     31  C   UNL     1      -7.877  13.959  24.135  0.00  0.00    +0.000 A 
ATOM     32  C   UNL     1      -7.518  14.981  23.260  0.00  0.00    +0.000 A 
ATOM     33  C   UNL     1      -6.315  14.889  22.550  0.00  0.00    +0.000 A 
ENDBRANCH  25  28
ENDBRANCH   4  20
TORSDOF 3
ENDMDL
MODEL 9
REMARK VINA RESULT:      -8.1      6.750      8.951
REMARK  Name = 
REMARK  3 active torsions:
REMARK  status: ('A' for Active; 'I' for Inactive)
REMARK    1  A    between atoms: N_3  and  C_4
REMARK    2  A    between atoms: C_7  and  C_8
REMARK    3  A    between atoms: N_13  and  C_14
REMARK                            x       y       z     vdW  Elec       q    Type
REMARK                         _______ _______ _______ _____ _____    ______ ____
ROOT
ATOM      1  C   UNL     1       8.663   9.353  18.701  0.00  0.00    +0.000 A 
ATOM      2  C   UNL     1       8.834   8.083  19.253  0.00  0.00    +0.000 A 
ATOM      3  C   UNL     1       8.308   6.956  18.615  0.00  0.00    +0.000 A 
ATOM      4  C   UNL     1       7.600   7.091  17.418  0.00  0.00    +0.000 A 
ATOM      5  C   UNL     1       7.393   8.368  16.891  0.00  0.00    +0.000 A 
ATOM      6  C   UNL     1       7.949   9.487  17.507  0.00  0.00    +0.000 A 
ENDROOT
BRANCH   1   9
ATOM      7  O   UNL     1      10.475  11.396  17.641  0.00  0.00    +0.000 OA
ATOM      8  C   UNL     1      10.009  11.443  18.771  0.00  0.00    +0.000 C 
ATOM      9  N   UNL     1       9.124  10.538  19.299  0.00  0.00    +0.000 N 
ATOM     10  N   UNL     1      10.366  12.458  19.625  0.00  0.00    +0.000 N 
ATOM     11  C   UNL     1       9.903  12.721  20.987  0.00  0.00    +0.000 C 
ATOM     12  C   UNL     1      10.341  14.127  21.221  0.00  0.00    +0.000 A 
ATOM     13  C   UNL     1       9.916  15.031  22.174  0.00  0.00    +0.000 A 
ATOM     14  C   UNL     1      10.505  16.297  22.180  0.00  0.00    +0.000 A 
ATOM     15  C   UNL     1      11.548  16.611  21.291  0.00  0.00    +0.000 A 
ATOM     16  C   UNL     1      11.944  15.703  20.310  0.00  0.00    +0.000 A 
ATOM     17  C   UNL     1      11.278  14.496  20.250  0.00  0.00    +0.000 A 
ATOM     18  C   UNL     1      11.266  13.498  19.139  0.00  0.00    +0.000 C 
ATOM     19  H   UNL     1       8.697  10.778  20.176  0.00  0.00    +0.000 HD
ENDBRANCH   1   9
BRANCH   4  20
ATOM     20  C   UNL     1       6.953   5.888  16.836  0.00  0.00    +0.000 C 
ATOM     21  O   UNL     1       7.593   5.257  15.995  0.00  0.00    +0.000 OA
ATOM     22  N   UNL     1       5.710   5.470  17.286  0.00  0.00    +0.000 N 
ATOM     23  C   UNL     1       5.275   4.105  16.979  0.00  0.00    +0.000 C 
ATOM     24  C   UNL     1       4.875   3.359  18.270  0.00  0.00    +0.000 C 
ATOM     25  N   UNL     1       3.878   4.161  19.006  0.00  0.00    +0.000 N 
ATOM     26  C   UNL     1       4.290   5.542  19.317  0.00  0.00    +0.000 C 
ATOM     27  C   UNL     1       4.700   6.257  18.013  0.00  0.00    +0.000 C 
BRANCH  25  28
ATOM     28  C   UNL     1       2.785   3.585  19.618  0.00  0.00    +0.000 A 
ATOM     29  C   UNL     1       1.571   3.380  18.955  0.00  0.00    +0.000 A 
ATOM     30  C   UNL     1       0.449   2.852  19.612  0.00  0.00    +0.000 A 
ATOM     31  C   UNL     1       0.531   2.517  20.958  0.00  0.00    +0.000 A 
ATOM     32  C   UNL     1       1.727   2.706  21.647  0.00  0.00    +0.000 A 
ATOM     33  C   UNL     1       2.833   3.236  20.973  0.00  0.00    +0.000 A 
ENDBRANCH  25  28
ENDBRANCH   4  20
TORSDOF 3
ENDMDL
