MODEL 1
REMARK VINA RESULT:      -7.3      0.000      0.000
REMARK  Name = 
REMARK  17 active torsions:
REMARK  status: ('A' for Active; 'I' for Inactive)
REMARK    1  A    between atoms: C_1  and  C_2
REMARK    2  A    between atoms: C_2  and  N_3
REMARK    3  A    between atoms: N_3  and  C_4
REMARK    4  A    between atoms: C_4  and  C_5
REMARK    5  A    between atoms: C_6  and  C_8
REMARK    6  A    between atoms: C_8  and  C_9
REMARK    7  A    between atoms: C_8  and  C_10
REMARK    8  A    between atoms: C_13  and  C_14
REMARK    9  A    between atoms: C_14  and  C_15
REMARK   10  A    between atoms: C_15  and  C_16
REMARK   11  A    between atoms: C_15  and  N_17
REMARK   12  A    between atoms: C_19  and  C_20
REMARK   13  A    between atoms: C_21  and  C_22
REMARK   14  A    between atoms: C_22  and  O_23
REMARK   15  A    between atoms: O_23  and  C_24
REMARK   16  A    between atoms: C_27  and  O_28
REMARK   17  A    between atoms: O_28  and  C_29
REMARK                            x       y       z     vdW  Elec       q    Type
REMARK                         _______ _______ _______ _____ _____    ______ ____
ROOT
ATOM      1  C   UNL     1       5.999   4.765  16.478  0.00  0.00    +0.000 C 
ATOM      2  C   UNL     1       6.587   4.796  15.065  0.00  0.00    +0.000 C 
ENDROOT
BRANCH   1   3
ATOM      3  N   UNL     1       6.766   5.645  17.343  0.00  0.00    +0.000 N 
ATOM      4  C   UNL     1       7.064   6.952  17.135  0.00  0.00    +0.000 A 
ATOM      5  C   UNL     1       7.861   7.257  18.188  0.00  0.00    +0.000 A 
ATOM      6  N   UNL     1       8.075   6.170  18.975  0.00  0.00    +0.000 NA
ATOM      7  N   UNL     1       7.393   5.163  18.436  0.00  0.00    +0.000 NA
BRANCH   5   8
ATOM      8  C   UNL     1       8.409   8.531  18.453  0.00  0.00    +0.000 C 
ATOM      9  C   UNL     1       8.893   9.720  18.682  0.00  0.00    +0.000 C 
BRANCH   9  10
ATOM     10  C   UNL     1       9.457  11.105  18.950  0.00  0.00    +0.000 C 
BRANCH  10  11
ATOM     11  O   UNL     1       9.412  11.869  17.749  0.00  0.00    +0.000 OA
BRANCH  11  12
ATOM     12  C   UNL     1       8.809  13.096  17.857  0.00  0.00    +0.000 A 
ATOM     13  C   UNL     1       9.651  14.132  18.258  0.00  0.00    +0.000 A 
ATOM     14  C   UNL     1       9.144  15.432  18.399  0.00  0.00    +0.000 A 
ATOM     15  C   UNL     1       7.814  15.710  18.101  0.00  0.00    +0.000 A 
ATOM     16  C   UNL     1       6.975  14.677  17.684  0.00  0.00    +0.000 A 
ATOM     17  C   UNL     1       7.474  13.371  17.567  0.00  0.00    +0.000 A 
BRANCH  15  18
ATOM     18  O   UNL     1       7.429  17.008  18.288  0.00  0.00    +0.000 OA
ATOM     19  C   UNL     1       7.309  17.429  19.641  0.00  0.00    +0.000 C 
ENDBRANCH  15  18
ENDBRANCH  11  12
ENDBRANCH  10  11
ENDBRANCH   9  10
ENDBRANCH   5   8
ENDBRANCH   1   3
BRANCH   1  20
ATOM     20  C   UNL     1       4.469   4.996  16.583  0.00  0.00    +0.000 C 
BRANCH  20  24
ATOM     21  C   UNL     1       2.569   5.954  19.432  0.00  0.00    +0.000 C 
ATOM     22  C   UNL     1       1.753   4.713  19.099  0.00  0.00    +0.000 C 
ATOM     23  C   UNL     1       2.338   4.233  17.791  0.00  0.00    +0.000 C 
ATOM     24  C   UNL     1       3.797   4.636  17.914  0.00  0.00    +0.000 C 
ATOM     25  O   UNL     1       3.849   5.754  18.801  0.00  0.00    +0.000 OA
BRANCH  21  26
ATOM     26  C   UNL     1       1.976   7.276  18.909  0.00  0.00    +0.000 C 
ATOM     27  C   UNL     1       3.019   8.056  18.097  0.00  0.00    +0.000 C 
BRANCH  26  29
ATOM     28  N   UNL     1       1.162   9.473  19.819  0.00  0.00    +0.000 N 
ATOM     29  C   UNL     1       1.552   8.162  20.076  0.00  0.00    +0.000 C 
ATOM     30  O   UNL     1       1.636   7.736  21.227  0.00  0.00    +0.000 OA
BRANCH  28  32
ATOM     31  C   UNL     1      -0.489  10.614  21.324  0.00  0.00    +0.000 C 
ATOM     32  C   UNL     1       0.969  10.359  20.972  0.00  0.00    +0.000 C 
ENDBRANCH  28  32
BRANCH  28  33
ATOM     33  C   UNL     1       0.906  10.034  18.487  0.00  0.00    +0.000 C 
ATOM     34  C   UNL     1       1.478  11.432  18.296  0.00  0.00    +0.000 C 
ENDBRANCH  28  33
ENDBRANCH  26  29
ENDBRANCH  21  26
ENDBRANCH  20  24
ENDBRANCH   1  20
TORSDOF 12
ENDMDL
MODEL 2
REMARK VINA RESULT:      -7.1      4.759      9.221
REMARK  Name = 
REMARK  17 active torsions:
REMARK  status: ('A' for Active; 'I' for Inactive)
REMARK    1  A    between atoms: C_1  and  C_2
REMARK    2  A    between atoms: C_2  and  N_3
REMARK    3  A    between atoms: N_3  and  C_4
REMARK    4  A    between atoms: C_4  and  C_5
REMARK    5  A    between atoms: C_6  and  C_8
REMARK    6  A    between atoms: C_8  and  C_9
REMARK    7  A    between atoms: C_8  and  C_10
REMARK    8  A    between atoms: C_13  and  C_14
REMARK    9  A    between atoms: C_14  and  C_15
REMARK   10  A    between atoms: C_15  and  C_16
REMARK   11  A    between atoms: C_15  and  N_17
REMARK   12  A    between atoms: C_19  and  C_20
REMARK   13  A    between atoms: C_21  and  C_22
REMARK   14  A    between atoms: C_22  and  O_23
REMARK   15  A    between atoms: O_23  and  C_24
REMARK   16  A    between atoms: C_27  and  O_28
REMARK   17  A    between atoms: O_28  and  C_29
REMARK                            x       y       z     vdW  Elec       q    Type
REMARK                         _______ _______ _______ _____ _____    ______ ____
ROOT
ATOM      1  C   UNL     1       0.650  11.232  18.678  0.00  0.00    +0.000 C 
ATOM      2  C   UNL     1       1.693  12.317  18.954  0.00  0.00    +0.000 C 
ENDROOT
BRANCH   1   3
ATOM      3  N   UNL     1       1.315   9.956  18.478  0.00  0.00    +0.000 N 
ATOM      4  C   UNL     1       1.372   8.911  19.342  0.00  0.00    +0.000 A 
ATOM      5  C   UNL     1       2.178   8.028  18.704  0.00  0.00    +0.000 A 
ATOM      6  N   UNL     1       2.628   8.535  17.525  0.00  0.00    +0.000 NA
ATOM      7  N   UNL     1       2.090   9.744  17.395  0.00  0.00    +0.000 NA
BRANCH   5   8
ATOM      8  C   UNL     1       2.519   6.744  19.181  0.00  0.00    +0.000 C 
ATOM      9  C   UNL     1       2.860   5.569  19.632  0.00  0.00    +0.000 C 
BRANCH   9  10
ATOM     10  C   UNL     1       3.257   4.200  20.158  0.00  0.00    +0.000 C 
BRANCH  10  11
ATOM     11  O   UNL     1       3.655   3.376  19.067  0.00  0.00    +0.000 OA
BRANCH  11  12
ATOM     12  C   UNL     1       4.635   3.901  18.264  0.00  0.00    +0.000 A 
ATOM     13  C   UNL     1       4.352   3.881  16.899  0.00  0.00    +0.000 A 
ATOM     14  C   UNL     1       5.282   4.394  15.983  0.00  0.00    +0.000 A 
ATOM     15  C   UNL     1       6.470   4.965  16.425  0.00  0.00    +0.000 A 
ATOM     16  C   UNL     1       6.747   5.000  17.792  0.00  0.00    +0.000 A 
ATOM     17  C   UNL     1       5.831   4.465  18.708  0.00  0.00    +0.000 A 
BRANCH  15  18
ATOM     18  O   UNL     1       7.305   5.420  15.443  0.00  0.00    +0.000 OA
ATOM     19  C   UNL     1       7.067   4.902  14.140  0.00  0.00    +0.000 C 
ENDBRANCH  15  18
ENDBRANCH  11  12
ENDBRANCH  10  11
ENDBRANCH   9  10
ENDBRANCH   5   8
ENDBRANCH   1   3
BRANCH   1  20
ATOM     20  C   UNL     1      -0.527  11.149  19.685  0.00  0.00    +0.000 C 
BRANCH  20  24
ATOM     21  C   UNL     1      -2.101  13.364  21.979  0.00  0.00    +0.000 C 
ATOM     22  C   UNL     1      -1.437  12.483  23.029  0.00  0.00    +0.000 C 
ATOM     23  C   UNL     1      -0.819  11.363  22.225  0.00  0.00    +0.000 C 
ATOM     24  C   UNL     1      -0.454  12.053  20.922  0.00  0.00    +0.000 C 
ATOM     25  O   UNL     1      -1.346  13.158  20.769  0.00  0.00    +0.000 OA
BRANCH  21  26
ATOM     26  C   UNL     1      -3.575  13.024  21.690  0.00  0.00    +0.000 C 
ATOM     27  C   UNL     1      -3.764  12.632  20.218  0.00  0.00    +0.000 C 
BRANCH  26  29
ATOM     28  N   UNL     1      -5.477  14.137  22.898  0.00  0.00    +0.000 N 
ATOM     29  C   UNL     1      -4.459  14.238  21.955  0.00  0.00    +0.000 C 
ATOM     30  O   UNL     1      -4.314  15.257  21.279  0.00  0.00    +0.000 OA
BRANCH  28  32
ATOM     31  C   UNL     1      -6.151  16.242  24.085  0.00  0.00    +0.000 C 
ATOM     32  C   UNL     1      -6.439  15.242  22.975  0.00  0.00    +0.000 C 
ENDBRANCH  28  32
BRANCH  28  33
ATOM     33  C   UNL     1      -5.651  13.024  23.840  0.00  0.00    +0.000 C 
ATOM     34  C   UNL     1      -7.024  12.372  23.762  0.00  0.00    +0.000 C 
ENDBRANCH  28  33
ENDBRANCH  26  29
ENDBRANCH  21  26
ENDBRANCH  20  24
ENDBRANCH   1  20
TORSDOF 12
ENDMDL
MODEL 3
REMARK VINA RESULT:      -7.0      4.542      9.383
REMARK  Name = 
REMARK  17 active torsions:
REMARK  status: ('A' for Active; 'I' for Inactive)
REMARK    1  A    between atoms: C_1  and  C_2
REMARK    2  A    between atoms: C_2  and  N_3
REMARK    3  A    between atoms: N_3  and  C_4
REMARK    4  A    between atoms: C_4  and  C_5
REMARK    5  A    between atoms: C_6  and  C_8
REMARK    6  A    between atoms: C_8  and  C_9
REMARK    7  A    between atoms: C_8  and  C_10
REMARK    8  A    between atoms: C_13  and  C_14
REMARK    9  A    between atoms: C_14  and  C_15
REMARK   10  A    between atoms: C_15  and  C_16
REMARK   11  A    between atoms: C_15  and  N_17
REMARK   12  A    between atoms: C_19  and  C_20
REMARK   13  A    between atoms: C_21  and  C_22
REMARK   14  A    between atoms: C_22  and  O_23
REMARK   15  A    between atoms: O_23  and  C_24
REMARK   16  A    between atoms: C_27  and  O_28
REMARK   17  A    between atoms: O_28  and  C_29
REMARK                            x       y       z     vdW  Elec       q    Type
REMARK                         _______ _______ _______ _____ _____    ______ ____
ROOT
ATOM      1  C   UNL     1       0.490   9.621  20.567  0.00  0.00    +0.000 C 
ATOM      2  C   UNL     1       0.112   8.435  21.458  0.00  0.00    +0.000 C 
ENDROOT
BRANCH   1   3
ATOM      3  N   UNL     1       1.252   9.148  19.425  0.00  0.00    +0.000 N 
ATOM      4  C   UNL     1       2.077   8.073  19.371  0.00  0.00    +0.000 A 
ATOM      5  C   UNL     1       2.590   8.141  18.119  0.00  0.00    +0.000 A 
ATOM      6  N   UNL     1       2.132   9.237  17.457  0.00  0.00    +0.000 NA
ATOM      7  N   UNL     1       1.301   9.866  18.283  0.00  0.00    +0.000 NA
BRANCH   5   8
ATOM      8  C   UNL     1       3.486   7.207  17.553  0.00  0.00    +0.000 C 
ATOM      9  C   UNL     1       4.311   6.329  17.055  0.00  0.00    +0.000 C 
BRANCH   9  10
ATOM     10  C   UNL     1       5.272   5.304  16.474  0.00  0.00    +0.000 C 
BRANCH  10  11
ATOM     11  O   UNL     1       4.626   4.036  16.420  0.00  0.00    +0.000 OA
BRANCH  11  12
ATOM     12  C   UNL     1       3.847   3.729  17.506  0.00  0.00    +0.000 A 
ATOM     13  C   UNL     1       2.488   3.578  17.231  0.00  0.00    +0.000 A 
ATOM     14  C   UNL     1       1.596   3.260  18.265  0.00  0.00    +0.000 A 
ATOM     15  C   UNL     1       2.058   3.050  19.560  0.00  0.00    +0.000 A 
ATOM     16  C   UNL     1       3.419   3.184  19.832  0.00  0.00    +0.000 A 
ATOM     17  C   UNL     1       4.310   3.527  18.805  0.00  0.00    +0.000 A 
BRANCH  15  18
ATOM     18  O   UNL     1       1.096   2.758  20.487  0.00  0.00    +0.000 OA
ATOM     19  C   UNL     1       1.559   2.556  21.817  0.00  0.00    +0.000 C 
ENDBRANCH  15  18
ENDBRANCH  11  12
ENDBRANCH  10  11
ENDBRANCH   9  10
ENDBRANCH   5   8
ENDBRANCH   1   3
BRANCH   1  20
ATOM     20  C   UNL     1      -0.672  10.569  20.169  0.00  0.00    +0.000 C 
BRANCH  20  24
ATOM     21  C   UNL     1       0.025  13.599  21.895  0.00  0.00    +0.000 C 
ATOM     22  C   UNL     1      -1.395  13.966  21.483  0.00  0.00    +0.000 C 
ATOM     23  C   UNL     1      -1.820  12.824  20.589  0.00  0.00    +0.000 C 
ATOM     24  C   UNL     1      -1.079  11.642  21.187  0.00  0.00    +0.000 C 
ATOM     25  O   UNL     1       0.084  12.160  21.835  0.00  0.00    +0.000 OA
BRANCH  21  26
ATOM     26  C   UNL     1       1.128  14.164  20.981  0.00  0.00    +0.000 C 
ATOM     27  C   UNL     1       2.101  13.056  20.555  0.00  0.00    +0.000 C 
BRANCH  26  29
ATOM     28  N   UNL     1       1.761  16.561  21.393  0.00  0.00    +0.000 N 
ATOM     29  C   UNL     1       1.939  15.221  21.723  0.00  0.00    +0.000 C 
ATOM     30  O   UNL     1       2.791  14.874  22.541  0.00  0.00    +0.000 OA
BRANCH  28  32
ATOM     31  C   UNL     1       3.885  17.857  21.068  0.00  0.00    +0.000 C 
ATOM     32  C   UNL     1       2.702  17.530  21.967  0.00  0.00    +0.000 C 
ENDBRANCH  28  32
BRANCH  28  33
ATOM     33  C   UNL     1       0.692  17.087  20.535  0.00  0.00    +0.000 C 
ATOM     34  C   UNL     1      -0.457  17.714  21.312  0.00  0.00    +0.000 C 
ENDBRANCH  28  33
ENDBRANCH  26  29
ENDBRANCH  21  26
ENDBRANCH  20  24
ENDBRANCH   1  20
TORSDOF 12
ENDMDL
MODEL 4
REMARK VINA RESULT:      -6.9      5.348      9.382
REMARK  Name = 
REMARK  17 active torsions:
REMARK  status: ('A' for Active; 'I' for Inactive)
REMARK    1  A    between atoms: C_1  and  C_2
REMARK    2  A    between atoms: C_2  and  N_3
REMARK    3  A    between atoms: N_3  and  C_4
REMARK    4  A    between atoms: C_4  and  C_5
REMARK    5  A    between atoms: C_6  and  C_8
REMARK    6  A    between atoms: C_8  and  C_9
REMARK    7  A    between atoms: C_8  and  C_10
REMARK    8  A    between atoms: C_13  and  C_14
REMARK    9  A    between atoms: C_14  and  C_15
REMARK   10  A    between atoms: C_15  and  C_16
REMARK   11  A    between atoms: C_15  and  N_17
REMARK   12  A    between atoms: C_19  and  C_20
REMARK   13  A    between atoms: C_21  and  C_22
REMARK   14  A    between atoms: C_22  and  O_23
REMARK   15  A    between atoms: O_23  and  C_24
REMARK   16  A    between atoms: C_27  and  O_28
REMARK   17  A    between atoms: O_28  and  C_29
REMARK                            x       y       z     vdW  Elec       q    Type
REMARK                         _______ _______ _______ _____ _____    ______ ____
ROOT
ATOM      1  C   UNL     1      -0.074  10.259  19.332  0.00  0.00    +0.000 C 
ATOM      2  C   UNL     1      -0.781  10.396  17.981  0.00  0.00    +0.000 C 
ENDROOT
BRANCH   1   3
ATOM      3  N   UNL     1       0.975   9.259  19.234  0.00  0.00    +0.000 N 
ATOM      4  C   UNL     1       1.661   8.890  18.124  0.00  0.00    +0.000 A 
ATOM      5  C   UNL     1       2.442   7.875  18.568  0.00  0.00    +0.000 A 
ATOM      6  N   UNL     1       2.205   7.610  19.880  0.00  0.00    +0.000 NA
ATOM      7  N   UNL     1       1.281   8.475  20.288  0.00  0.00    +0.000 NA
BRANCH   5   8
ATOM      8  C   UNL     1       3.386   7.171  17.789  0.00  0.00    +0.000 C 
ATOM      9  C   UNL     1       4.264   6.546  17.055  0.00  0.00    +0.000 C 
BRANCH   9  10
ATOM     10  C   UNL     1       5.288   5.818  16.201  0.00  0.00    +0.000 C 
BRANCH  10  11
ATOM     11  O   UNL     1       5.514   4.522  16.746  0.00  0.00    +0.000 OA
BRANCH  11  12
ATOM     12  C   UNL     1       4.568   4.087  17.638  0.00  0.00    +0.000 A 
ATOM     13  C   UNL     1       3.416   3.553  17.061  0.00  0.00    +0.000 A 
ATOM     14  C   UNL     1       2.381   3.075  17.878  0.00  0.00    +0.000 A 
ATOM     15  C   UNL     1       2.509   3.086  19.262  0.00  0.00    +0.000 A 
ATOM     16  C   UNL     1       3.667   3.605  19.840  0.00  0.00    +0.000 A 
ATOM     17  C   UNL     1       4.693   4.108  19.026  0.00  0.00    +0.000 A 
BRANCH  15  18
ATOM     18  O   UNL     1       1.432   2.607  19.956  0.00  0.00    +0.000 OA
ATOM     19  C   UNL     1       1.564   2.592  21.372  0.00  0.00    +0.000 C 
ENDBRANCH  15  18
ENDBRANCH  11  12
ENDBRANCH  10  11
ENDBRANCH   9  10
ENDBRANCH   5   8
ENDBRANCH   1   3
BRANCH   1  20
ATOM     20  C   UNL     1       0.410  11.582  19.983  0.00  0.00    +0.000 C 
BRANCH  20  24
ATOM     21  C   UNL     1      -1.590  12.858  22.631  0.00  0.00    +0.000 C 
ATOM     22  C   UNL     1      -1.458  11.447  23.189  0.00  0.00    +0.000 C 
ATOM     23  C   UNL     1      -0.738  10.691  22.096  0.00  0.00    +0.000 C 
ATOM     24  C   UNL     1       0.150  11.760  21.483  0.00  0.00    +0.000 C 
ATOM     25  O   UNL     1      -0.485  13.017  21.719  0.00  0.00    +0.000 OA
BRANCH  21  26
ATOM     26  C   UNL     1      -2.895  13.127  21.857  0.00  0.00    +0.000 C 
ATOM     27  C   UNL     1      -2.690  14.234  20.814  0.00  0.00    +0.000 C 
BRANCH  26  29
ATOM     28  N   UNL     1      -5.318  13.365  22.478  0.00  0.00    +0.000 N 
ATOM     29  C   UNL     1      -3.987  13.596  22.812  0.00  0.00    +0.000 C 
ATOM     30  O   UNL     1      -3.684  14.240  23.817  0.00  0.00    +0.000 OA
BRANCH  28  32
ATOM     31  C   UNL     1      -7.225  13.044  24.077  0.00  0.00    +0.000 C 
ATOM     32  C   UNL     1      -6.344  14.013  23.303  0.00  0.00    +0.000 C 
ENDBRANCH  28  32
BRANCH  28  33
ATOM     33  C   UNL     1      -5.779  12.504  21.382  0.00  0.00    +0.000 C 
ATOM     34  C   UNL     1      -6.494  13.262  20.274  0.00  0.00    +0.000 C 
ENDBRANCH  28  33
ENDBRANCH  26  29
ENDBRANCH  21  26
ENDBRANCH  20  24
ENDBRANCH   1  20
TORSDOF 12
ENDMDL
MODEL 5
REMARK VINA RESULT:      -6.8      4.660      9.368
REMARK  Name = 
REMARK  17 active torsions:
REMARK  status: ('A' for Active; 'I' for Inactive)
REMARK    1  A    between atoms: C_1  and  C_2
REMARK    2  A    between atoms: C_2  and  N_3
REMARK    3  A    between atoms: N_3  and  C_4
REMARK    4  A    between atoms: C_4  and  C_5
REMARK    5  A    between atoms: C_6  and  C_8
REMARK    6  A    between atoms: C_8  and  C_9
REMARK    7  A    between atoms: C_8  and  C_10
REMARK    8  A    between atoms: C_13  and  C_14
REMARK    9  A    between atoms: C_14  and  C_15
REMARK   10  A    between atoms: C_15  and  C_16
REMARK   11  A    between atoms: C_15  and  N_17
REMARK   12  A    between atoms: C_19  and  C_20
REMARK   13  A    between atoms: C_21  and  C_22
REMARK   14  A    between atoms: C_22  and  O_23
REMARK   15  A    between atoms: O_23  and  C_24
REMARK   16  A    between atoms: C_27  and  O_28
REMARK   17  A    between atoms: O_28  and  C_29
REMARK                            x       y       z     vdW  Elec       q    Type
REMARK                         _______ _______ _______ _____ _____    ______ ____
ROOT
ATOM      1  C   UNL     1       0.361   9.721  20.626  0.00  0.00    +0.000 C 
ATOM      2  C   UNL     1      -0.191   8.548  21.441  0.00  0.00    +0.000 C 
ENDROOT
BRANCH   1   3
ATOM      3  N   UNL     1       1.137   9.214  19.508  0.00  0.00    +0.000 N 
ATOM      4  C   UNL     1       1.980   8.151  19.504  0.00  0.00    +0.000 A 
ATOM      5  C   UNL     1       2.500   8.176  18.252  0.00  0.00    +0.000 A 
ATOM      6  N   UNL     1       2.027   9.235  17.544  0.00  0.00    +0.000 NA
ATOM      7  N   UNL     1       1.181   9.884  18.338  0.00  0.00    +0.000 NA
BRANCH   5   8
ATOM      8  C   UNL     1       3.414   7.235  17.730  0.00  0.00    +0.000 C 
ATOM      9  C   UNL     1       4.280   6.381  17.259  0.00  0.00    +0.000 C 
BRANCH   9  10
ATOM     10  C   UNL     1       5.290   5.386  16.712  0.00  0.00    +0.000 C 
BRANCH  10  11
ATOM     11  O   UNL     1       4.665   4.115  16.572  0.00  0.00    +0.000 OA
BRANCH  11  12
ATOM     12  C   UNL     1       3.694   3.834  17.500  0.00  0.00    +0.000 A 
ATOM     13  C   UNL     1       4.147   3.736  18.815  0.00  0.00    +0.000 A 
ATOM     14  C   UNL     1       3.241   3.455  19.848  0.00  0.00    +0.000 A 
ATOM     15  C   UNL     1       1.884   3.314  19.581  0.00  0.00    +0.000 A 
ATOM     16  C   UNL     1       1.428   3.427  18.268  0.00  0.00    +0.000 A 
ATOM     17  C   UNL     1       2.335   3.683  17.230  0.00  0.00    +0.000 A 
BRANCH  15  18
ATOM     18  O   UNL     1       1.099   3.028  20.664  0.00  0.00    +0.000 OA
ATOM     19  C   UNL     1       1.781   2.535  21.810  0.00  0.00    +0.000 C 
ENDBRANCH  15  18
ENDBRANCH  11  12
ENDBRANCH  10  11
ENDBRANCH   9  10
ENDBRANCH   5   8
ENDBRANCH   1   3
BRANCH   1  20
ATOM     20  C   UNL     1      -0.670  10.801  20.206  0.00  0.00    +0.000 C 
BRANCH  20  24
ATOM     21  C   UNL     1       0.176  13.782  21.950  0.00  0.00    +0.000 C 
ATOM     22  C   UNL     1      -1.235  14.209  21.568  0.00  0.00    +0.000 C 
ATOM     23  C   UNL     1      -1.721  13.095  20.670  0.00  0.00    +0.000 C 
ATOM     24  C   UNL     1      -1.016  11.878  21.242  0.00  0.00    +0.000 C 
ATOM     25  O   UNL     1       0.177  12.343  21.875  0.00  0.00    +0.000 OA
BRANCH  21  26
ATOM     26  C   UNL     1       1.285  14.313  21.022  0.00  0.00    +0.000 C 
ATOM     27  C   UNL     1       2.178  13.166  20.530  0.00  0.00    +0.000 C 
BRANCH  26  29
ATOM     28  N   UNL     1       2.114  16.647  21.448  0.00  0.00    +0.000 N 
ATOM     29  C   UNL     1       2.177  15.296  21.773  0.00  0.00    +0.000 C 
ATOM     30  O   UNL     1       2.992  14.874  22.594  0.00  0.00    +0.000 OA
BRANCH  28  32
ATOM     31  C   UNL     1       2.597  18.474  23.099  0.00  0.00    +0.000 C 
ATOM     32  C   UNL     1       3.130  17.530  22.031  0.00  0.00    +0.000 C 
ENDBRANCH  28  32
BRANCH  28  33
ATOM     33  C   UNL     1       1.098  17.264  20.587  0.00  0.00    +0.000 C 
ATOM     34  C   UNL     1       1.666  17.856  19.305  0.00  0.00    +0.000 C 
ENDBRANCH  28  33
ENDBRANCH  26  29
ENDBRANCH  21  26
ENDBRANCH  20  24
ENDBRANCH   1  20
TORSDOF 12
ENDMDL
MODEL 6
REMARK VINA RESULT:      -6.8      5.147      9.457
REMARK  Name = 
REMARK  17 active torsions:
REMARK  status: ('A' for Active; 'I' for Inactive)
REMARK    1  A    between atoms: C_1  and  C_2
REMARK    2  A    between atoms: C_2  and  N_3
REMARK    3  A    between atoms: N_3  and  C_4
REMARK    4  A    between atoms: C_4  and  C_5
REMARK    5  A    between atoms: C_6  and  C_8
REMARK    6  A    between atoms: C_8  and  C_9
REMARK    7  A    between atoms: C_8  and  C_10
REMARK    8  A    between atoms: C_13  and  C_14
REMARK    9  A    between atoms: C_14  and  C_15
REMARK   10  A    between atoms: C_15  and  C_16
REMARK   11  A    between atoms: C_15  and  N_17
REMARK   12  A    between atoms: C_19  and  C_20
REMARK   13  A    between atoms: C_21  and  C_22
REMARK   14  A    between atoms: C_22  and  O_23
REMARK   15  A    between atoms: O_23  and  C_24
REMARK   16  A    between atoms: C_27  and  O_28
REMARK   17  A    between atoms: O_28  and  C_29
REMARK                            x       y       z     vdW  Elec       q    Type
REMARK                         _______ _______ _______ _____ _____    ______ ____
ROOT
ATOM      1  C   UNL     1       2.536   7.730  19.067  0.00  0.00    +0.000 C 
ATOM      2  C   UNL     1       2.339   7.893  17.558  0.00  0.00    +0.000 C 
ENDROOT
BRANCH   1   3
ATOM      3  N   UNL     1       1.587   8.572  19.775  0.00  0.00    +0.000 N 
ATOM      4  C   UNL     1       1.228   9.845  19.473  0.00  0.00    +0.000 A 
ATOM      5  C   UNL     1       0.397  10.179  20.489  0.00  0.00    +0.000 A 
ATOM      6  N   UNL     1       0.294   9.169  21.394  0.00  0.00    +0.000 NA
ATOM      7  N   UNL     1       1.047   8.170  20.944  0.00  0.00    +0.000 NA
BRANCH   5   8
ATOM      8  C   UNL     1      -0.284  11.410  20.615  0.00  0.00    +0.000 C 
ATOM      9  C   UNL     1      -0.931  12.534  20.751  0.00  0.00    +0.000 C 
BRANCH   9  10
ATOM     10  C   UNL     1      -1.684  13.844  20.910  0.00  0.00    +0.000 C 
BRANCH  10  11
ATOM     11  O   UNL     1      -2.040  14.015  22.278  0.00  0.00    +0.000 OA
BRANCH  11  12
ATOM     12  C   UNL     1      -3.286  13.555  22.622  0.00  0.00    +0.000 A 
ATOM     13  C   UNL     1      -3.430  13.189  23.960  0.00  0.00    +0.000 A 
ATOM     14  C   UNL     1      -4.661  12.707  24.425  0.00  0.00    +0.000 A 
ATOM     15  C   UNL     1      -5.759  12.629  23.574  0.00  0.00    +0.000 A 
ATOM     16  C   UNL     1      -5.620  13.010  22.240  0.00  0.00    +0.000 A 
ATOM     17  C   UNL     1      -4.382  13.468  21.766  0.00  0.00    +0.000 A 
BRANCH  15  18
ATOM     18  O   UNL     1      -6.903  12.132  24.134  0.00  0.00    +0.000 OA
ATOM     19  C   UNL     1      -7.913  11.725  23.220  0.00  0.00    +0.000 C 
ENDBRANCH  15  18
ENDBRANCH  11  12
ENDBRANCH  10  11
ENDBRANCH   9  10
ENDBRANCH   5   8
ENDBRANCH   1   3
BRANCH   1  20
ATOM     20  C   UNL     1       2.564   6.272  19.596  0.00  0.00    +0.000 C 
BRANCH  20  24
ATOM     21  C   UNL     1       2.109   3.376  17.584  0.00  0.00    +0.000 C 
ATOM     22  C   UNL     1       1.153   2.958  18.693  0.00  0.00    +0.000 C 
ATOM     23  C   UNL     1       1.325   4.031  19.744  0.00  0.00    +0.000 C 
ATOM     24  C   UNL     1       1.634   5.263  18.912  0.00  0.00    +0.000 C 
ATOM     25  O   UNL     1       2.224   4.808  17.693  0.00  0.00    +0.000 OA
BRANCH  21  26
ATOM     26  C   UNL     1       3.522   2.770  17.688  0.00  0.00    +0.000 C 
ATOM     27  C   UNL     1       3.519   1.540  18.606  0.00  0.00    +0.000 C 
BRANCH  26  29
ATOM     28  N   UNL     1       5.193   4.630  17.436  0.00  0.00    +0.000 N 
ATOM     29  C   UNL     1       4.488   3.786  18.288  0.00  0.00    +0.000 C 
ATOM     30  O   UNL     1       4.691   3.790  19.503  0.00  0.00    +0.000 OA
BRANCH  28  32
ATOM     31  C   UNL     1       7.645   4.804  17.941  0.00  0.00    +0.000 C 
ATOM     32  C   UNL     1       6.266   5.441  18.024  0.00  0.00    +0.000 C 
ENDBRANCH  28  32
BRANCH  28  33
ATOM     33  C   UNL     1       4.934   4.793  16.001  0.00  0.00    +0.000 C 
ATOM     34  C   UNL     1       5.357   6.150  15.458  0.00  0.00    +0.000 C 
ENDBRANCH  28  33
ENDBRANCH  26  29
ENDBRANCH  21  26
ENDBRANCH  20  24
ENDBRANCH   1  20
TORSDOF 12
ENDMDL
MODEL 7
REMARK VINA RESULT:      -6.8      4.478      9.707
REMARK  Name = 
REMARK  17 active torsions:
REMARK  status: ('A' for Active; 'I' for Inactive)
REMARK    1  A    between atoms: C_1  and  C_2
REMARK    2  A    between atoms: C_2  and  N_3
REMARK    3  A    between atoms: N_3  and  C_4
REMARK    4  A    between atoms: C_4  and  C_5
REMARK    5  A    between atoms: C_6  and  C_8
REMARK    6  A    between atoms: C_8  and  C_9
REMARK    7  A    between atoms: C_8  and  C_10
REMARK    8  A    between atoms: C_13  and  C_14
REMARK    9  A    between atoms: C_14  and  C_15
REMARK   10  A    between atoms: C_15  and  C_16
REMARK   11  A    between atoms: C_15  and  N_17
REMARK   12  A    between atoms: C_19  and  C_20
REMARK   13  A    between atoms: C_21  and  C_22
REMARK   14  A    between atoms: C_22  and  O_23
REMARK   15  A    between atoms: O_23  and  C_24
REMARK   16  A    between atoms: C_27  and  O_28
REMARK   17  A    between atoms: O_28  and  C_29
REMARK                            x       y       z     vdW  Elec       q    Type
REMARK                         _______ _______ _______ _____ _____    ______ ____
ROOT
ATOM      1  C   UNL     1      10.645  12.699  20.049  0.00  0.00    +0.000 C 
ATOM      2  C   UNL     1      12.025  12.039  20.108  0.00  0.00    +0.000 C 
ENDROOT
BRANCH   1   3
ATOM      3  N   UNL     1       9.750  11.887  19.243  0.00  0.00    +0.000 N 
ATOM      4  C   UNL     1       9.596  10.540  19.285  0.00  0.00    +0.000 A 
ATOM      5  C   UNL     1       8.718  10.300  18.281  0.00  0.00    +0.000 A 
ATOM      6  N   UNL     1       8.390  11.446  17.628  0.00  0.00    +0.000 NA
ATOM      7  N   UNL     1       9.045  12.434  18.231  0.00  0.00    +0.000 NA
BRANCH   5   8
ATOM      8  C   UNL     1       8.198   9.032  17.939  0.00  0.00    +0.000 C 
ATOM      9  C   UNL     1       7.743   7.855  17.611  0.00  0.00    +0.000 C 
BRANCH   9  10
ATOM     10  C   UNL     1       7.214   6.483  17.229  0.00  0.00    +0.000 C 
BRANCH  10  11
ATOM     11  O   UNL     1       6.028   6.637  16.458  0.00  0.00    +0.000 OA
BRANCH  11  12
ATOM     12  C   UNL     1       4.936   5.945  16.916  0.00  0.00    +0.000 A 
ATOM     13  C   UNL     1       3.984   6.718  17.580  0.00  0.00    +0.000 A 
ATOM     14  C   UNL     1       2.825   6.116  18.089  0.00  0.00    +0.000 A 
ATOM     15  C   UNL     1       2.591   4.758  17.903  0.00  0.00    +0.000 A 
ATOM     16  C   UNL     1       3.535   3.987  17.225  0.00  0.00    +0.000 A 
ATOM     17  C   UNL     1       4.707   4.581  16.737  0.00  0.00    +0.000 A 
BRANCH  15  18
ATOM     18  O   UNL     1       1.435   4.280  18.454  0.00  0.00    +0.000 OA
ATOM     19  C   UNL     1       1.292   2.865  18.460  0.00  0.00    +0.000 C 
ENDBRANCH  15  18
ENDBRANCH  11  12
ENDBRANCH  10  11
ENDBRANCH   9  10
ENDBRANCH   5   8
ENDBRANCH   1   3
BRANCH   1  20
ATOM     20  C   UNL     1      10.029  13.108  21.413  0.00  0.00    +0.000 C 
BRANCH  20  24
ATOM     21  C   UNL     1       7.319  15.251  22.255  0.00  0.00    +0.000 C 
ATOM     22  C   UNL     1       8.391  16.041  22.994  0.00  0.00    +0.000 C 
ATOM     23  C   UNL     1       9.628  15.181  22.869  0.00  0.00    +0.000 C 
ATOM     24  C   UNL     1       9.433  14.516  21.517  0.00  0.00    +0.000 C 
ATOM     25  O   UNL     1       8.026  14.467  21.273  0.00  0.00    +0.000 OA
BRANCH  21  26
ATOM     26  C   UNL     1       6.501  14.290  23.139  0.00  0.00    +0.000 C 
ATOM     27  C   UNL     1       5.016  14.328  22.752  0.00  0.00    +0.000 C 
BRANCH  26  29
ATOM     28  N   UNL     1       7.314  13.898  25.484  0.00  0.00    +0.000 N 
ATOM     29  C   UNL     1       6.601  14.705  24.603  0.00  0.00    +0.000 C 
ATOM     30  O   UNL     1       5.989  15.697  24.999  0.00  0.00    +0.000 OA
BRANCH  28  32
ATOM     31  C   UNL     1       6.981  12.990  27.799  0.00  0.00    +0.000 C 
ATOM     32  C   UNL     1       7.213  14.206  26.915  0.00  0.00    +0.000 C 
ENDBRANCH  28  32
BRANCH  28  33
ATOM     33  C   UNL     1       8.179  12.778  25.095  0.00  0.00    +0.000 C 
ATOM     34  C   UNL     1       7.413  11.573  24.569  0.00  0.00    +0.000 C 
ENDBRANCH  28  33
ENDBRANCH  26  29
ENDBRANCH  21  26
ENDBRANCH  20  24
ENDBRANCH   1  20
TORSDOF 12
ENDMDL
MODEL 8
REMARK VINA RESULT:      -6.7      4.672      9.317
REMARK  Name = 
REMARK  17 active torsions:
REMARK  status: ('A' for Active; 'I' for Inactive)
REMARK    1  A    between atoms: C_1  and  C_2
REMARK    2  A    between atoms: C_2  and  N_3
REMARK    3  A    between atoms: N_3  and  C_4
REMARK    4  A    between atoms: C_4  and  C_5
REMARK    5  A    between atoms: C_6  and  C_8
REMARK    6  A    between atoms: C_8  and  C_9
REMARK    7  A    between atoms: C_8  and  C_10
REMARK    8  A    between atoms: C_13  and  C_14
REMARK    9  A    between atoms: C_14  and  C_15
REMARK   10  A    between atoms: C_15  and  C_16
REMARK   11  A    between atoms: C_15  and  N_17
REMARK   12  A    between atoms: C_19  and  C_20
REMARK   13  A    between atoms: C_21  and  C_22
REMARK   14  A    between atoms: C_22  and  O_23
REMARK   15  A    between atoms: O_23  and  C_24
REMARK   16  A    between atoms: C_27  and  O_28
REMARK   17  A    between atoms: O_28  and  C_29
REMARK                            x       y       z     vdW  Elec       q    Type
REMARK                         _______ _______ _______ _____ _____    ______ ____
ROOT
ATOM      1  C   UNL     1       2.602   7.381  19.240  0.00  0.00    +0.000 C 
ATOM      2  C   UNL     1       3.095   7.534  17.799  0.00  0.00    +0.000 C 
ENDROOT
BRANCH   1   3
ATOM      3  N   UNL     1       1.725   8.489  19.575  0.00  0.00    +0.000 N 
ATOM      4  C   UNL     1       1.147   8.751  20.774  0.00  0.00    +0.000 A 
ATOM      5  C   UNL     1       0.372   9.831  20.513  0.00  0.00    +0.000 A 
ATOM      6  N   UNL     1       0.440  10.181  19.201  0.00  0.00    +0.000 NA
ATOM      7  N   UNL     1       1.283   9.332  18.619  0.00  0.00    +0.000 NA
BRANCH   5   8
ATOM      8  C   UNL     1      -0.413  10.520  21.463  0.00  0.00    +0.000 C 
ATOM      9  C   UNL     1      -1.137  11.133  22.358  0.00  0.00    +0.000 C 
BRANCH   9  10
ATOM     10  C   UNL     1      -1.980  11.847  23.402  0.00  0.00    +0.000 C 
BRANCH  10  11
ATOM     11  O   UNL     1      -3.308  11.993  22.911  0.00  0.00    +0.000 OA
BRANCH  11  12
ATOM     12  C   UNL     1      -3.957  13.134  23.307  0.00  0.00    +0.000 A 
ATOM     13  C   UNL     1      -3.166  14.052  23.997  0.00  0.00    +0.000 A 
ATOM     14  C   UNL     1      -3.724  15.257  24.449  0.00  0.00    +0.000 A 
ATOM     15  C   UNL     1      -5.053  15.568  24.178  0.00  0.00    +0.000 A 
ATOM     16  C   UNL     1      -5.840  14.657  23.474  0.00  0.00    +0.000 A 
ATOM     17  C   UNL     1      -5.291  13.440  23.044  0.00  0.00    +0.000 A 
BRANCH  15  18
ATOM     18  O   UNL     1      -5.490  16.762  24.679  0.00  0.00    +0.000 OA
ATOM     19  C   UNL     1      -4.486  17.614  25.215  0.00  0.00    +0.000 C 
ENDBRANCH  15  18
ENDBRANCH  11  12
ENDBRANCH  10  11
ENDBRANCH   9  10
ENDBRANCH   5   8
ENDBRANCH   1   3
BRANCH   1  20
ATOM     20  C   UNL     1       2.002   6.000  19.611  0.00  0.00    +0.000 C 
BRANCH  20  24
ATOM     21  C   UNL     1       3.475   3.520  17.531  0.00  0.00    +0.000 C 
ATOM     22  C   UNL     1       2.254   2.699  17.928  0.00  0.00    +0.000 C 
ATOM     23  C   UNL     1       1.557   3.559  18.957  0.00  0.00    +0.000 C 
ATOM     24  C   UNL     1       1.878   4.966  18.484  0.00  0.00    +0.000 C 
ATOM     25  O   UNL     1       3.105   4.894  17.756  0.00  0.00    +0.000 OA
BRANCH  21  26
ATOM     26  C   UNL     1       4.745   3.223  18.351  0.00  0.00    +0.000 C 
ATOM     27  C   UNL     1       4.381   2.684  19.741  0.00  0.00    +0.000 C 
BRANCH  26  29
ATOM     28  N   UNL     1       6.485   4.869  17.590  0.00  0.00    +0.000 N 
ATOM     29  C   UNL     1       5.552   4.502  18.554  0.00  0.00    +0.000 C 
ATOM     30  O   UNL     1       5.426   5.142  19.598  0.00  0.00    +0.000 OA
BRANCH  28  32
ATOM     31  C   UNL     1       6.915   7.336  17.422  0.00  0.00    +0.000 C 
ATOM     32  C   UNL     1       7.391   5.977  17.915  0.00  0.00    +0.000 C 
ENDBRANCH  28  32
BRANCH  28  33
ATOM     33  C   UNL     1       6.620   4.254  16.264  0.00  0.00    +0.000 C 
ATOM     34  C   UNL     1       5.782   4.934  15.191  0.00  0.00    +0.000 C 
ENDBRANCH  28  33
ENDBRANCH  26  29
ENDBRANCH  21  26
ENDBRANCH  20  24
ENDBRANCH   1  20
TORSDOF 12
ENDMDL
MODEL 9
REMARK VINA RESULT:      -6.7      5.518      9.183
REMARK  Name = 
REMARK  17 active torsions:
REMARK  status: ('A' for Active; 'I' for Inactive)
REMARK    1  A    between atoms: C_1  and  C_2
REMARK    2  A    between atoms: C_2  and  N_3
REMARK    3  A    between atoms: N_3  and  C_4
REMARK    4  A    between atoms: C_4  and  C_5
REMARK    5  A    between atoms: C_6  and  C_8
REMARK    6  A    between atoms: C_8  and  C_9
REMARK    7  A    between atoms: C_8  and  C_10
REMARK    8  A    between atoms: C_13  and  C_14
REMARK    9  A    between atoms: C_14  and  C_15
REMARK   10  A    between atoms: C_15  and  C_16
REMARK   11  A    between atoms: C_15  and  N_17
REMARK   12  A    between atoms: C_19  and  C_20
REMARK   13  A    between atoms: C_21  and  C_22
REMARK   14  A    between atoms: C_22  and  O_23
REMARK   15  A    between atoms: O_23  and  C_24
REMARK   16  A    between atoms: C_27  and  O_28
REMARK   17  A    between atoms: O_28  and  C_29
REMARK                            x       y       z     vdW  Elec       q    Type
REMARK                         _______ _______ _______ _____ _____    ______ ____
ROOT
ATOM      1  C   UNL     1       2.738   7.093  19.376  0.00  0.00    +0.000 C 
ATOM      2  C   UNL     1       3.031   7.069  17.874  0.00  0.00    +0.000 C 
ENDROOT
BRANCH   1   3
ATOM      3  N   UNL     1       1.856   8.206  19.682  0.00  0.00    +0.000 N 
ATOM      4  C   UNL     1       1.281   8.499  20.875  0.00  0.00    +0.000 A 
ATOM      5  C   UNL     1       0.501   9.568  20.586  0.00  0.00    +0.000 A 
ATOM      6  N   UNL     1       0.563   9.881  19.264  0.00  0.00    +0.000 NA
ATOM      7  N   UNL     1       1.407   9.020  18.704  0.00  0.00    +0.000 NA
BRANCH   5   8
ATOM      8  C   UNL     1      -0.284  10.281  21.519  0.00  0.00    +0.000 C 
ATOM      9  C   UNL     1      -0.989  10.961  22.379  0.00  0.00    +0.000 C 
BRANCH   9  10
ATOM     10  C   UNL     1      -1.811  11.755  23.382  0.00  0.00    +0.000 C 
BRANCH  10  11
ATOM     11  O   UNL     1      -3.133  11.916  22.878  0.00  0.00    +0.000 OA
BRANCH  11  12
ATOM     12  C   UNL     1      -3.651  13.182  22.988  0.00  0.00    +0.000 A 
ATOM     13  C   UNL     1      -3.387  13.824  24.197  0.00  0.00    +0.000 A 
ATOM     14  C   UNL     1      -3.865  15.123  24.419  0.00  0.00    +0.000 A 
ATOM     15  C   UNL     1      -4.567  15.799  23.427  0.00  0.00    +0.000 A 
ATOM     16  C   UNL     1      -4.818  15.163  22.211  0.00  0.00    +0.000 A 
ATOM     17  C   UNL     1      -4.363  13.855  21.996  0.00  0.00    +0.000 A 
BRANCH  15  18
ATOM     18  O   UNL     1      -4.995  17.053  23.761  0.00  0.00    +0.000 OA
ATOM     19  C   UNL     1      -6.384  17.303  23.578  0.00  0.00    +0.000 C 
ENDBRANCH  15  18
ENDBRANCH  11  12
ENDBRANCH  10  11
ENDBRANCH   9  10
ENDBRANCH   5   8
ENDBRANCH   1   3
BRANCH   1  20
ATOM     20  C   UNL     1       2.259   5.754  19.997  0.00  0.00    +0.000 C 
BRANCH  20  24
ATOM     21  C   UNL     1       2.158   3.108  17.623  0.00  0.00    +0.000 C 
ATOM     22  C   UNL     1       1.094   2.538  18.551  0.00  0.00    +0.000 C 
ATOM     23  C   UNL     1       1.098   3.482  19.732  0.00  0.00    +0.000 C 
ATOM     24  C   UNL     1       1.457   4.811  19.092  0.00  0.00    +0.000 C 
ATOM     25  O   UNL     1       2.204   4.520  17.910  0.00  0.00    +0.000 OA
BRANCH  21  26
ATOM     26  C   UNL     1       3.571   2.529  17.828  0.00  0.00    +0.000 C 
ATOM     27  C   UNL     1       3.551   1.408  18.877  0.00  0.00    +0.000 C 
BRANCH  26  29
ATOM     28  N   UNL     1       5.320   4.287  17.423  0.00  0.00    +0.000 N 
ATOM     29  C   UNL     1       4.516   3.612  18.337  0.00  0.00    +0.000 C 
ATOM     30  O   UNL     1       4.614   3.817  19.547  0.00  0.00    +0.000 OA
BRANCH  28  32
ATOM     31  C   UNL     1       7.780   4.638  17.770  0.00  0.00    +0.000 C 
ATOM     32  C   UNL     1       6.366   5.164  17.963  0.00  0.00    +0.000 C 
ENDBRANCH  28  32
BRANCH  28  33
ATOM     33  C   UNL     1       5.190   4.211  15.963  0.00  0.00    +0.000 C 
ATOM     34  C   UNL     1       5.302   5.563  15.273  0.00  0.00    +0.000 C 
ENDBRANCH  28  33
ENDBRANCH  26  29
ENDBRANCH  21  26
ENDBRANCH  20  24
ENDBRANCH   1  20
TORSDOF 12
ENDMDL
