MODEL 1
REMARK VINA RESULT:      -7.5      0.000      0.000
REMARK  Name = 
REMARK  4 active torsions:
REMARK  status: ('A' for Active; 'I' for Inactive)
REMARK    1  A    between atoms: O_1  and  C_2
REMARK    2  A    between atoms: C_7  and  C_8
REMARK    3  A    between atoms: C_8  and  N_9
REMARK    4  A    between atoms: N_9  and  C_10
REMARK                            x       y       z     vdW  Elec       q    Type
REMARK                         _______ _______ _______ _____ _____    ______ ____
ROOT
ATOM      1  C   UNL     1       3.690   5.646  17.588  0.00  0.00    +0.000 A 
ATOM      2  C   UNL     1       2.898   5.771  18.733  0.00  0.00    +0.000 A 
ATOM      3  C   UNL     1       2.629   4.651  19.530  0.00  0.00    +0.000 A 
ATOM      4  C   UNL     1       3.189   3.418  19.181  0.00  0.00    +0.000 A 
ATOM      5  C   UNL     1       3.959   3.295  18.023  0.00  0.00    +0.000 A 
ATOM      6  C   UNL     1       4.235   4.413  17.217  0.00  0.00    +0.000 A 
ATOM      7  O   UNL     1       3.004   2.270  19.905  0.00  0.00    +0.000 OA
ATOM      8  C   UNL     1       2.504   2.475  21.230  0.00  0.00    +0.000 C 
ATOM      9  C   UNL     1       1.311   3.415  21.239  0.00  0.00    +0.000 C 
ATOM     10  C   UNL     1       1.766   4.784  20.752  0.00  0.00    +0.000 C 
ENDROOT
BRANCH   1  11
ATOM     11  O   UNL     1       3.940   6.740  16.810  0.00  0.00    +0.000 OA
ATOM     12  H   UNL     1       3.840   7.541  17.352  0.00  0.00    +0.000 HD
ENDBRANCH   1  11
BRANCH   6  13
ATOM     13  C   UNL     1       5.100   4.248  15.989  0.00  0.00    +0.000 C 
BRANCH  13  14
ATOM     14  N   UNL     1       6.502   4.094  16.371  0.00  0.00    +0.000 N 
ATOM     15  H   UNL     1       7.060   3.842  15.558  0.00  0.00    +0.000 HD
BRANCH  14  16
ATOM     16  C   UNL     1       7.106   5.128  17.104  0.00  0.00    +0.000 A 
ATOM     17  C   UNL     1       7.175   6.452  16.647  0.00  0.00    +0.000 A 
ATOM     18  C   UNL     1       7.715   7.469  17.443  0.00  0.00    +0.000 A 
ATOM     19  C   UNL     1       8.173   7.185  18.722  0.00  0.00    +0.000 A 
ATOM     20  C   UNL     1       8.072   5.887  19.214  0.00  0.00    +0.000 A 
ATOM     21  C   UNL     1       7.527   4.874  18.416  0.00  0.00    +0.000 A 
ENDBRANCH  14  16
ENDBRANCH  13  14
ENDBRANCH   6  13
TORSDOF 4
ENDMDL
MODEL 2
REMARK VINA RESULT:      -7.4      2.516      3.797
REMARK  Name = 
REMARK  4 active torsions:
REMARK  status: ('A' for Active; 'I' for Inactive)
REMARK    1  A    between atoms: O_1  and  C_2
REMARK    2  A    between atoms: C_7  and  C_8
REMARK    3  A    between atoms: C_8  and  N_9
REMARK    4  A    between atoms: N_9  and  C_10
REMARK                            x       y       z     vdW  Elec       q    Type
REMARK                         _______ _______ _______ _____ _____    ______ ____
ROOT
ATOM      1  C   UNL     1       5.952   4.668  18.423  0.00  0.00    +0.000 A 
ATOM      2  C   UNL     1       5.186   3.874  19.281  0.00  0.00    +0.000 A 
ATOM      3  C   UNL     1       3.796   3.802  19.121  0.00  0.00    +0.000 A 
ATOM      4  C   UNL     1       3.194   4.508  18.075  0.00  0.00    +0.000 A 
ATOM      5  C   UNL     1       3.962   5.317  17.236  0.00  0.00    +0.000 A 
ATOM      6  C   UNL     1       5.357   5.396  17.388  0.00  0.00    +0.000 A 
ATOM      7  O   UNL     1       1.848   4.486  17.822  0.00  0.00    +0.000 OA
ATOM      8  C   UNL     1       1.138   3.421  18.463  0.00  0.00    +0.000 C 
ATOM      9  C   UNL     1       1.497   3.317  19.935  0.00  0.00    +0.000 C 
ATOM     10  C   UNL     1       2.972   2.961  20.054  0.00  0.00    +0.000 C 
ENDROOT
BRANCH   1  11
ATOM     11  O   UNL     1       7.305   4.742  18.590  0.00  0.00    +0.000 OA
ATOM     12  H   UNL     1       7.693   3.869  18.409  0.00  0.00    +0.000 HD
ENDBRANCH   1  11
BRANCH   6  13
ATOM     13  C   UNL     1       6.160   6.258  16.441  0.00  0.00    +0.000 C 
BRANCH  13  14
ATOM     14  N   UNL     1       7.250   5.483  15.850  0.00  0.00    +0.000 N 
ATOM     15  H   UNL     1       7.611   4.815  16.528  0.00  0.00    +0.000 HD
BRANCH  14  16
ATOM     16  C   UNL     1       7.031   4.877  14.603  0.00  0.00    +0.000 A 
ATOM     17  C   UNL     1       5.995   3.961  14.368  0.00  0.00    +0.000 A 
ATOM     18  C   UNL     1       5.763   3.439  13.090  0.00  0.00    +0.000 A 
ATOM     19  C   UNL     1       6.546   3.844  12.017  0.00  0.00    +0.000 A 
ATOM     20  C   UNL     1       7.549   4.787  12.219  0.00  0.00    +0.000 A 
ATOM     21  C   UNL     1       7.776   5.309  13.498  0.00  0.00    +0.000 A 
ENDBRANCH  14  16
ENDBRANCH  13  14
ENDBRANCH   6  13
TORSDOF 4
ENDMDL
MODEL 3
REMARK VINA RESULT:      -7.4      2.517      3.744
REMARK  Name = 
REMARK  4 active torsions:
REMARK  status: ('A' for Active; 'I' for Inactive)
REMARK    1  A    between atoms: O_1  and  C_2
REMARK    2  A    between atoms: C_7  and  C_8
REMARK    3  A    between atoms: C_8  and  N_9
REMARK    4  A    between atoms: N_9  and  C_10
REMARK                            x       y       z     vdW  Elec       q    Type
REMARK                         _______ _______ _______ _____ _____    ______ ____
ROOT
ATOM      1  C   UNL     1       5.956   4.575  18.376  0.00  0.00    +0.000 A 
ATOM      2  C   UNL     1       5.182   3.763  19.209  0.00  0.00    +0.000 A 
ATOM      3  C   UNL     1       3.788   3.744  19.076  0.00  0.00    +0.000 A 
ATOM      4  C   UNL     1       3.189   4.521  18.079  0.00  0.00    +0.000 A 
ATOM      5  C   UNL     1       3.966   5.347  17.266  0.00  0.00    +0.000 A 
ATOM      6  C   UNL     1       5.365   5.374  17.392  0.00  0.00    +0.000 A 
ATOM      7  O   UNL     1       1.838   4.554  17.855  0.00  0.00    +0.000 OA
ATOM      8  C   UNL     1       1.106   3.481  18.456  0.00  0.00    +0.000 C 
ATOM      9  C   UNL     1       1.491   3.290  19.913  0.00  0.00    +0.000 C 
ATOM     10  C   UNL     1       2.956   2.882  19.982  0.00  0.00    +0.000 C 
ENDROOT
BRANCH   1  11
ATOM     11  O   UNL     1       7.315   4.598  18.518  0.00  0.00    +0.000 OA
ATOM     12  H   UNL     1       7.634   5.500  18.343  0.00  0.00    +0.000 HD
ENDBRANCH   1  11
BRANCH   6  13
ATOM     13  C   UNL     1       6.177   6.257  16.473  0.00  0.00    +0.000 C 
BRANCH  13  14
ATOM     14  N   UNL     1       7.226   5.479  15.816  0.00  0.00    +0.000 N 
ATOM     15  H   UNL     1       7.564   4.750  16.442  0.00  0.00    +0.000 HD
BRANCH  14  16
ATOM     16  C   UNL     1       6.966   4.968  14.534  0.00  0.00    +0.000 A 
ATOM     17  C   UNL     1       7.769   5.252  13.419  0.00  0.00    +0.000 A 
ATOM     18  C   UNL     1       7.521   4.659  12.176  0.00  0.00    +0.000 A 
ATOM     19  C   UNL     1       6.481   3.751  12.029  0.00  0.00    +0.000 A 
ATOM     20  C   UNL     1       5.700   3.420  13.133  0.00  0.00    +0.000 A 
ATOM     21  C   UNL     1       5.954   4.013  14.376  0.00  0.00    +0.000 A 
ENDBRANCH  14  16
ENDBRANCH  13  14
ENDBRANCH   6  13
TORSDOF 4
ENDMDL
MODEL 4
REMARK VINA RESULT:      -7.3      0.064      1.102
REMARK  Name = 
REMARK  4 active torsions:
REMARK  status: ('A' for Active; 'I' for Inactive)
REMARK    1  A    between atoms: O_1  and  C_2
REMARK    2  A    between atoms: C_7  and  C_8
REMARK    3  A    between atoms: C_8  and  N_9
REMARK    4  A    between atoms: N_9  and  C_10
REMARK                            x       y       z     vdW  Elec       q    Type
REMARK                         _______ _______ _______ _____ _____    ______ ____
ROOT
ATOM      1  C   UNL     1       3.682   5.602  17.586  0.00  0.00    +0.000 A 
ATOM      2  C   UNL     1       2.892   5.739  18.730  0.00  0.00    +0.000 A 
ATOM      3  C   UNL     1       2.641   4.631  19.550  0.00  0.00    +0.000 A 
ATOM      4  C   UNL     1       3.218   3.399  19.223  0.00  0.00    +0.000 A 
ATOM      5  C   UNL     1       3.987   3.264  18.067  0.00  0.00    +0.000 A 
ATOM      6  C   UNL     1       4.244   4.370  17.238  0.00  0.00    +0.000 A 
ATOM      7  O   UNL     1       3.051   2.263  19.971  0.00  0.00    +0.000 OA
ATOM      8  C   UNL     1       2.551   2.487  21.293  0.00  0.00    +0.000 C 
ATOM      9  C   UNL     1       1.345   3.411  21.286  0.00  0.00    +0.000 C 
ATOM     10  C   UNL     1       1.779   4.776  20.771  0.00  0.00    +0.000 C 
ENDROOT
BRANCH   1  11
ATOM     11  O   UNL     1       3.914   6.684  16.785  0.00  0.00    +0.000 OA
ATOM     12  H   UNL     1       3.062   7.087  16.547  0.00  0.00    +0.000 HD
ENDBRANCH   1  11
BRANCH   6  13
ATOM     13  C   UNL     1       5.108   4.193  16.010  0.00  0.00    +0.000 C 
BRANCH  13  14
ATOM     14  N   UNL     1       6.519   4.133  16.386  0.00  0.00    +0.000 N 
ATOM     15  H   UNL     1       7.096   4.007  15.558  0.00  0.00    +0.000 HD
BRANCH  14  16
ATOM     16  C   UNL     1       7.027   5.150  17.211  0.00  0.00    +0.000 A 
ATOM     17  C   UNL     1       7.566   4.907  18.483  0.00  0.00    +0.000 A 
ATOM     18  C   UNL     1       8.135   5.938  19.240  0.00  0.00    +0.000 A 
ATOM     19  C   UNL     1       8.199   7.227  18.728  0.00  0.00    +0.000 A 
ATOM     20  C   UNL     1       7.711   7.482  17.449  0.00  0.00    +0.000 A 
ATOM     21  C   UNL     1       7.147   6.447  16.694  0.00  0.00    +0.000 A 
ENDBRANCH  14  16
ENDBRANCH  13  14
ENDBRANCH   6  13
TORSDOF 4
ENDMDL
MODEL 5
REMARK VINA RESULT:      -7.3      2.509      3.654
REMARK  Name = 
REMARK  4 active torsions:
REMARK  status: ('A' for Active; 'I' for Inactive)
REMARK    1  A    between atoms: O_1  and  C_2
REMARK    2  A    between atoms: C_7  and  C_8
REMARK    3  A    between atoms: C_8  and  N_9
REMARK    4  A    between atoms: N_9  and  C_10
REMARK                            x       y       z     vdW  Elec       q    Type
REMARK                         _______ _______ _______ _____ _____    ______ ____
ROOT
ATOM      1  C   UNL     1       5.260   3.962  18.550  0.00  0.00    +0.000 A 
ATOM      2  C   UNL     1       4.691   3.449  19.719  0.00  0.00    +0.000 A 
ATOM      3  C   UNL     1       3.300   3.335  19.834  0.00  0.00    +0.000 A 
ATOM      4  C   UNL     1       2.495   3.711  18.754  0.00  0.00    +0.000 A 
ATOM      5  C   UNL     1       3.068   4.244  17.599  0.00  0.00    +0.000 A 
ATOM      6  C   UNL     1       4.463   4.362  17.474  0.00  0.00    +0.000 A 
ATOM      7  O   UNL     1       1.128   3.618  18.760  0.00  0.00    +0.000 OA
ATOM      8  C   UNL     1       0.592   2.783  19.792  0.00  0.00    +0.000 C 
ATOM      9  C   UNL     1       1.199   3.106  21.146  0.00  0.00    +0.000 C 
ATOM     10  C   UNL     1       2.689   2.798  21.098  0.00  0.00    +0.000 C 
ENDROOT
BRANCH   1  11
ATOM     11  O   UNL     1       6.617   4.080  18.447  0.00  0.00    +0.000 OA
ATOM     12  H   UNL     1       6.831   4.978  18.143  0.00  0.00    +0.000 HD
ENDBRANCH   1  11
BRANCH   6  13
ATOM     13  C   UNL     1       5.049   4.915  16.195  0.00  0.00    +0.000 C 
BRANCH  13  14
ATOM     14  N   UNL     1       5.897   3.913  15.551  0.00  0.00    +0.000 N 
ATOM     15  H   UNL     1       5.453   2.998  15.596  0.00  0.00    +0.000 HD
BRANCH  14  16
ATOM     16  C   UNL     1       6.377   4.183  14.259  0.00  0.00    +0.000 A 
ATOM     17  C   UNL     1       7.394   5.113  13.998  0.00  0.00    +0.000 A 
ATOM     18  C   UNL     1       7.898   5.294  12.705  0.00  0.00    +0.000 A 
ATOM     19  C   UNL     1       7.411   4.531  11.652  0.00  0.00    +0.000 A 
ATOM     20  C   UNL     1       6.434   3.570  11.896  0.00  0.00    +0.000 A 
ATOM     21  C   UNL     1       5.936   3.389  13.192  0.00  0.00    +0.000 A 
ENDBRANCH  14  16
ENDBRANCH  13  14
ENDBRANCH   6  13
TORSDOF 4
ENDMDL
MODEL 6
REMARK VINA RESULT:      -7.2      2.304      3.569
REMARK  Name = 
REMARK  4 active torsions:
REMARK  status: ('A' for Active; 'I' for Inactive)
REMARK    1  A    between atoms: O_1  and  C_2
REMARK    2  A    between atoms: C_7  and  C_8
REMARK    3  A    between atoms: C_8  and  N_9
REMARK    4  A    between atoms: N_9  and  C_10
REMARK                            x       y       z     vdW  Elec       q    Type
REMARK                         _______ _______ _______ _____ _____    ______ ____
ROOT
ATOM      1  C   UNL     1       4.953   5.909  17.535  0.00  0.00    +0.000 A 
ATOM      2  C   UNL     1       3.631   5.830  17.980  0.00  0.00    +0.000 A 
ATOM      3  C   UNL     1       3.048   4.582  18.237  0.00  0.00    +0.000 A 
ATOM      4  C   UNL     1       3.817   3.425  18.074  0.00  0.00    +0.000 A 
ATOM      5  C   UNL     1       5.130   3.511  17.607  0.00  0.00    +0.000 A 
ATOM      6  C   UNL     1       5.723   4.757  17.346  0.00  0.00    +0.000 A 
ATOM      7  O   UNL     1       3.347   2.162  18.320  0.00  0.00    +0.000 OA
ATOM      8  C   UNL     1       2.144   2.114  19.094  0.00  0.00    +0.000 C 
ATOM      9  C   UNL     1       1.096   3.075  18.561  0.00  0.00    +0.000 C 
ATOM     10  C   UNL     1       1.622   4.497  18.701  0.00  0.00    +0.000 C 
ENDROOT
BRANCH   1  11
ATOM     11  O   UNL     1       5.512   7.128  17.275  0.00  0.00    +0.000 OA
ATOM     12  H   UNL     1       4.809   7.747  17.016  0.00  0.00    +0.000 HD
ENDBRANCH   1  11
BRANCH   6  13
ATOM     13  C   UNL     1       7.157   4.813  16.872  0.00  0.00    +0.000 C 
BRANCH  13  14
ATOM     14  N   UNL     1       7.255   5.588  15.637  0.00  0.00    +0.000 N 
ATOM     15  H   UNL     1       8.124   6.117  15.624  0.00  0.00    +0.000 HD
BRANCH  14  16
ATOM     16  C   UNL     1       7.046   4.922  14.419  0.00  0.00    +0.000 A 
ATOM     17  C   UNL     1       6.018   3.989  14.221  0.00  0.00    +0.000 A 
ATOM     18  C   UNL     1       5.796   3.406  12.968  0.00  0.00    +0.000 A 
ATOM     19  C   UNL     1       6.582   3.765  11.882  0.00  0.00    +0.000 A 
ATOM     20  C   UNL     1       7.579   4.723  12.044  0.00  0.00    +0.000 A 
ATOM     21  C   UNL     1       7.795   5.306  13.298  0.00  0.00    +0.000 A 
ENDBRANCH  14  16
ENDBRANCH  13  14
ENDBRANCH   6  13
TORSDOF 4
ENDMDL
MODEL 7
REMARK VINA RESULT:      -7.2      2.302      3.447
REMARK  Name = 
REMARK  4 active torsions:
REMARK  status: ('A' for Active; 'I' for Inactive)
REMARK    1  A    between atoms: O_1  and  C_2
REMARK    2  A    between atoms: C_7  and  C_8
REMARK    3  A    between atoms: C_8  and  N_9
REMARK    4  A    between atoms: N_9  and  C_10
REMARK                            x       y       z     vdW  Elec       q    Type
REMARK                         _______ _______ _______ _____ _____    ______ ____
ROOT
ATOM      1  C   UNL     1       3.509   6.380  17.743  0.00  0.00    +0.000 A 
ATOM      2  C   UNL     1       2.474   5.868  18.531  0.00  0.00    +0.000 A 
ATOM      3  C   UNL     1       2.262   4.484  18.601  0.00  0.00    +0.000 A 
ATOM      4  C   UNL     1       3.118   3.628  17.901  0.00  0.00    +0.000 A 
ATOM      5  C   UNL     1       4.134   4.149  17.099  0.00  0.00    +0.000 A 
ATOM      6  C   UNL     1       4.355   5.534  17.021  0.00  0.00    +0.000 A 
ATOM      7  O   UNL     1       3.008   2.263  17.923  0.00  0.00    +0.000 OA
ATOM      8  C   UNL     1       2.196   1.747  18.983  0.00  0.00    +0.000 C 
ATOM      9  C   UNL     1       0.869   2.481  19.079  0.00  0.00    +0.000 C 
ATOM     10  C   UNL     1       1.140   3.935  19.436  0.00  0.00    +0.000 C 
ENDROOT
BRANCH   1  11
ATOM     11  O   UNL     1       3.704   7.730  17.670  0.00  0.00    +0.000 OA
ATOM     12  H   UNL     1       3.559   8.117  18.550  0.00  0.00    +0.000 HD
ENDBRANCH   1  11
BRANCH   6  13
ATOM     13  C   UNL     1       5.486   6.060  16.166  0.00  0.00    +0.000 C 
BRANCH  13  14
ATOM     14  N   UNL     1       6.446   4.994  15.883  0.00  0.00    +0.000 N 
ATOM     15  H   UNL     1       6.240   4.178  16.455  0.00  0.00    +0.000 HD
BRANCH  14  16
ATOM     16  C   UNL     1       6.662   4.637  14.543  0.00  0.00    +0.000 A 
ATOM     17  C   UNL     1       5.902   3.665  13.877  0.00  0.00    +0.000 A 
ATOM     18  C   UNL     1       6.097   3.395  12.517  0.00  0.00    +0.000 A 
ATOM     19  C   UNL     1       7.041   4.111  11.792  0.00  0.00    +0.000 A 
ATOM     20  C   UNL     1       7.775   5.112  12.422  0.00  0.00    +0.000 A 
ATOM     21  C   UNL     1       7.573   5.381  13.781  0.00  0.00    +0.000 A 
ENDBRANCH  14  16
ENDBRANCH  13  14
ENDBRANCH   6  13
TORSDOF 4
ENDMDL
MODEL 8
REMARK VINA RESULT:      -7.2      2.021      3.146
REMARK  Name = 
REMARK  4 active torsions:
REMARK  status: ('A' for Active; 'I' for Inactive)
REMARK    1  A    between atoms: O_1  and  C_2
REMARK    2  A    between atoms: C_7  and  C_8
REMARK    3  A    between atoms: C_8  and  N_9
REMARK    4  A    between atoms: N_9  and  C_10
REMARK                            x       y       z     vdW  Elec       q    Type
REMARK                         _______ _______ _______ _____ _____    ______ ____
ROOT
ATOM      1  C   UNL     1       4.127   5.869  17.913  0.00  0.00    +0.000 A 
ATOM      2  C   UNL     1       3.027   5.903  18.775  0.00  0.00    +0.000 A 
ATOM      3  C   UNL     1       2.741   4.803  19.595  0.00  0.00    +0.000 A 
ATOM      4  C   UNL     1       3.588   3.691  19.561  0.00  0.00    +0.000 A 
ATOM      5  C   UNL     1       4.671   3.655  18.681  0.00  0.00    +0.000 A 
ATOM      6  C   UNL     1       4.966   4.753  17.854  0.00  0.00    +0.000 A 
ATOM      7  O   UNL     1       3.407   2.577  20.338  0.00  0.00    +0.000 OA
ATOM      8  C   UNL     1       2.515   2.759  21.442  0.00  0.00    +0.000 C 
ATOM      9  C   UNL     1       1.224   3.436  21.013  0.00  0.00    +0.000 C 
ATOM     10  C   UNL     1       1.551   4.835  20.510  0.00  0.00    +0.000 C 
ENDROOT
BRANCH   1  11
ATOM     11  O   UNL     1       4.394   6.940  17.108  0.00  0.00    +0.000 OA
ATOM     12  H   UNL     1       4.734   7.668  17.657  0.00  0.00    +0.000 HD
ENDBRANCH   1  11
BRANCH   6  13
ATOM     13  C   UNL     1       6.165   4.691  16.936  0.00  0.00    +0.000 C 
BRANCH  13  14
ATOM     14  N   UNL     1       5.931   3.732  15.858  0.00  0.00    +0.000 N 
ATOM     15  H   UNL     1       4.956   3.440  15.857  0.00  0.00    +0.000 HD
BRANCH  14  16
ATOM     16  C   UNL     1       6.363   4.071  14.566  0.00  0.00    +0.000 A 
ATOM     17  C   UNL     1       7.371   5.014  14.317  0.00  0.00    +0.000 A 
ATOM     18  C   UNL     1       7.828   5.264  13.018  0.00  0.00    +0.000 A 
ATOM     19  C   UNL     1       7.301   4.558  11.945  0.00  0.00    +0.000 A 
ATOM     20  C   UNL     1       6.332   3.586  12.173  0.00  0.00    +0.000 A 
ATOM     21  C   UNL     1       5.882   3.336  13.475  0.00  0.00    +0.000 A 
ENDBRANCH  14  16
ENDBRANCH  13  14
ENDBRANCH   6  13
TORSDOF 4
ENDMDL
MODEL 9
REMARK VINA RESULT:      -7.1      2.455      3.562
REMARK  Name = 
REMARK  4 active torsions:
REMARK  status: ('A' for Active; 'I' for Inactive)
REMARK    1  A    between atoms: O_1  and  C_2
REMARK    2  A    between atoms: C_7  and  C_8
REMARK    3  A    between atoms: C_8  and  N_9
REMARK    4  A    between atoms: N_9  and  C_10
REMARK                            x       y       z     vdW  Elec       q    Type
REMARK                         _______ _______ _______ _____ _____    ______ ____
ROOT
ATOM      1  C   UNL     1       4.905   5.276  18.626  0.00  0.00    +0.000 A 
ATOM      2  C   UNL     1       4.207   4.737  19.710  0.00  0.00    +0.000 A 
ATOM      3  C   UNL     1       2.988   4.077  19.505  0.00  0.00    +0.000 A 
ATOM      4  C   UNL     1       2.501   3.939  18.201  0.00  0.00    +0.000 A 
ATOM      5  C   UNL     1       3.192   4.500  17.126  0.00  0.00    +0.000 A 
ATOM      6  C   UNL     1       4.415   5.164  17.321  0.00  0.00    +0.000 A 
ATOM      7  O   UNL     1       1.333   3.293  17.894  0.00  0.00    +0.000 OA
ATOM      8  C   UNL     1       0.820   2.459  18.938  0.00  0.00    +0.000 C 
ATOM      9  C   UNL     1       0.800   3.182  20.274  0.00  0.00    +0.000 C 
ATOM     10  C   UNL     1       2.231   3.512  20.672  0.00  0.00    +0.000 C 
ENDROOT
BRANCH   1  11
ATOM     11  O   UNL     1       6.088   5.928  18.833  0.00  0.00    +0.000 OA
ATOM     12  H   UNL     1       6.274   6.494  18.065  0.00  0.00    +0.000 HD
ENDBRANCH   1  11
BRANCH   6  13
ATOM     13  C   UNL     1       5.151   5.730  16.129  0.00  0.00    +0.000 C 
BRANCH  13  14
ATOM     14  N   UNL     1       6.339   4.929  15.838  0.00  0.00    +0.000 N 
ATOM     15  H   UNL     1       6.364   4.110  16.442  0.00  0.00    +0.000 HD
BRANCH  14  16
ATOM     16  C   UNL     1       6.592   4.584  14.500  0.00  0.00    +0.000 A 
ATOM     17  C   UNL     1       5.819   3.654  13.790  0.00  0.00    +0.000 A 
ATOM     18  C   UNL     1       6.056   3.397  12.434  0.00  0.00    +0.000 A 
ATOM     19  C   UNL     1       7.055   4.084  11.757  0.00  0.00    +0.000 A 
ATOM     20  C   UNL     1       7.804   5.045  12.432  0.00  0.00    +0.000 A 
ATOM     21  C   UNL     1       7.561   5.301  13.786  0.00  0.00    +0.000 A 
ENDBRANCH  14  16
ENDBRANCH  13  14
ENDBRANCH   6  13
TORSDOF 4
ENDMDL
