MODEL 1
REMARK VINA RESULT:      -6.2      0.000      0.000
REMARK  Name = 
REMARK  14 active torsions:
REMARK  status: ('A' for Active; 'I' for Inactive)
REMARK    1  A    between atoms: C_1  and  C_2
REMARK    2  A    between atoms: C_2  and  O_3
REMARK    3  A    between atoms: O_3  and  C_4
REMARK    4  A    between atoms: C_4  and  O_5
REMARK    5  A    between atoms: C_4  and  P_8
REMARK    6  A    between atoms: O_5  and  C_6
REMARK    7  A    between atoms: C_6  and  C_7
REMARK    8  A    between atoms: P_8  and  O_10
REMARK    9  A    between atoms: P_8  and  C_11
REMARK   10  A    between atoms: C_11  and  C_12
REMARK   11  A    between atoms: C_12  and  C_13
REMARK   12  A    between atoms: C_13  and  N_14
REMARK   13  A    between atoms: N_14  and  C_15
REMARK   14  A    between atoms: C_15  and  C_16
REMARK                            x       y       z     vdW  Elec       q    Type
REMARK                         _______ _______ _______ _____ _____    ______ ____
ROOT
ATOM      1  C   UNL     1       0.904   3.938  20.280  0.00  0.00    +0.000 C 
ENDROOT
BRANCH   1   2
ATOM      2  C   UNL     1       1.050   2.966  19.116  0.00  0.00    +0.000 C 
BRANCH   2   3
ATOM      3  P   UNL     1       2.732   3.042  18.402  0.00  0.00    +0.000 P 
ATOM      4  O   UNL     1       2.095   3.435  17.052  0.00  0.00    +0.000 OA
BRANCH   3   5
ATOM      5  O   UNL     1       2.701   1.375  18.313  0.00  0.00    +0.000 OA
ATOM      6  H   UNL     1       2.651   1.067  17.384  0.00  0.00    +0.000 HD
ENDBRANCH   3   5
BRANCH   3   7
ATOM      7  C   UNL     1       4.416   3.119  17.687  0.00  0.00    +0.000 C 
BRANCH   7   8
ATOM      8  O   UNL     1       4.361   4.124  16.661  0.00  0.00    +0.000 OA
BRANCH   8  10
ATOM      9  C   UNL     1       5.663   5.334  15.059  0.00  0.00    +0.000 C 
ATOM     10  C   UNL     1       5.381   3.976  15.681  0.00  0.00    +0.000 C 
ENDBRANCH   8  10
ENDBRANCH   7   8
BRANCH   7  11
ATOM     11  O   UNL     1       5.317   3.577  18.730  0.00  0.00    +0.000 OA
BRANCH  11  12
ATOM     12  C   UNL     1       5.266   4.980  18.993  0.00  0.00    +0.000 C 
ATOM     13  C   UNL     1       6.655   5.539  19.236  0.00  0.00    +0.000 C 
ENDBRANCH  11  12
ENDBRANCH   7  11
ENDBRANCH   3   7
ENDBRANCH   2   3
ENDBRANCH   1   2
BRANCH   1  14
ATOM     14  C   UNL     1       2.200   4.703  20.520  0.00  0.00    +0.000 C 
BRANCH  14  15
ATOM     15  N   UNL     1       1.878   6.048  20.983  0.00  0.00    +0.000 NA
ATOM     16  H   UNL     1       2.405   6.261  21.829  0.00  0.00    +0.000 HD
BRANCH  15  17
ATOM     17  C   UNL     1       2.193   7.047  19.965  0.00  0.00    +0.000 C 
BRANCH  17  18
ATOM     18  C   UNL     1       1.403   8.312  20.210  0.00  0.00    +0.000 A 
ATOM     19  C   UNL     1       1.263   9.264  19.190  0.00  0.00    +0.000 A 
ATOM     20  C   UNL     1       0.527  10.433  19.407  0.00  0.00    +0.000 A 
ATOM     21  C   UNL     1      -0.071  10.663  20.647  0.00  0.00    +0.000 A 
ATOM     22 CL   UNL     1      -0.979  12.126  20.843  0.00  0.00    +0.000 Cl
ATOM     23  C   UNL     1       0.061   9.726  21.670  0.00  0.00    +0.000 A 
ATOM     24 CL   UNL     1      -0.644   9.943  23.233  0.00  0.00    +0.000 Cl
ATOM     25  C   UNL     1       0.800   8.552  21.450  0.00  0.00    +0.000 A 
ENDBRANCH  17  18
ENDBRANCH  15  17
ENDBRANCH  14  15
ENDBRANCH   1  14
TORSDOF 12
ENDMDL
MODEL 2
REMARK VINA RESULT:      -6.1      1.275      2.627
REMARK  Name = 
REMARK  14 active torsions:
REMARK  status: ('A' for Active; 'I' for Inactive)
REMARK    1  A    between atoms: C_1  and  C_2
REMARK    2  A    between atoms: C_2  and  O_3
REMARK    3  A    between atoms: O_3  and  C_4
REMARK    4  A    between atoms: C_4  and  O_5
REMARK    5  A    between atoms: C_4  and  P_8
REMARK    6  A    between atoms: O_5  and  C_6
REMARK    7  A    between atoms: C_6  and  C_7
REMARK    8  A    between atoms: P_8  and  O_10
REMARK    9  A    between atoms: P_8  and  C_11
REMARK   10  A    between atoms: C_11  and  C_12
REMARK   11  A    between atoms: C_12  and  C_13
REMARK   12  A    between atoms: C_13  and  N_14
REMARK   13  A    between atoms: N_14  and  C_15
REMARK   14  A    between atoms: C_15  and  C_16
REMARK                            x       y       z     vdW  Elec       q    Type
REMARK                         _______ _______ _______ _____ _____    ______ ____
ROOT
ATOM      1  C   UNL     1       1.657   4.222  20.188  0.00  0.00    +0.000 C 
ENDROOT
BRANCH   1   2
ATOM      2  C   UNL     1       2.810   3.235  20.049  0.00  0.00    +0.000 C 
BRANCH   2   3
ATOM      3  P   UNL     1       4.107   3.891  18.938  0.00  0.00    +0.000 P 
ATOM      4  O   UNL     1       3.581   2.946  17.836  0.00  0.00    +0.000 OA
BRANCH   3   5
ATOM      5  O   UNL     1       5.195   2.905  19.732  0.00  0.00    +0.000 OA
ATOM      6  H   UNL     1       4.925   1.963  19.686  0.00  0.00    +0.000 HD
ENDBRANCH   3   5
BRANCH   3   7
ATOM      7  C   UNL     1       5.405   4.547  17.826  0.00  0.00    +0.000 C 
BRANCH   7   8
ATOM      8  O   UNL     1       6.658   4.144  18.405  0.00  0.00    +0.000 OA
BRANCH   8  10
ATOM      9  C   UNL     1       7.187   6.447  18.033  0.00  0.00    +0.000 C 
ATOM     10  C   UNL     1       7.726   5.027  18.088  0.00  0.00    +0.000 C 
ENDBRANCH   8  10
ENDBRANCH   7   8
BRANCH   7  11
ATOM     11  O   UNL     1       5.261   3.885  16.541  0.00  0.00    +0.000 OA
BRANCH  11  12
ATOM     12  C   UNL     1       5.310   4.755  15.410  0.00  0.00    +0.000 C 
ATOM     13  C   UNL     1       5.977   4.075  14.229  0.00  0.00    +0.000 C 
ENDBRANCH  11  12
ENDBRANCH   7  11
ENDBRANCH   3   7
ENDBRANCH   2   3
ENDBRANCH   1   2
BRANCH   1  14
ATOM     14  C   UNL     1       2.023   5.578  19.596  0.00  0.00    +0.000 C 
BRANCH  14  15
ATOM     15  N   UNL     1       1.885   6.599  20.629  0.00  0.00    +0.000 NA
ATOM     16  H   UNL     1       2.621   6.490  21.326  0.00  0.00    +0.000 HD
BRANCH  15  17
ATOM     17  C   UNL     1       1.966   7.940  20.060  0.00  0.00    +0.000 C 
BRANCH  17  18
ATOM     18  C   UNL     1       1.037   8.879  20.796  0.00  0.00    +0.000 A 
ATOM     19  C   UNL     1       0.941   8.826  22.193  0.00  0.00    +0.000 A 
ATOM     20  C   UNL     1       0.089   9.697  22.879  0.00  0.00    +0.000 A 
ATOM     21  C   UNL     1      -0.678  10.625  22.174  0.00  0.00    +0.000 A 
ATOM     22 CL   UNL     1      -1.703  11.681  23.089  0.00  0.00    +0.000 Cl
ATOM     23  C   UNL     1      -0.594  10.689  20.785  0.00  0.00    +0.000 A 
ATOM     24 CL   UNL     1      -1.517  11.806  19.843  0.00  0.00    +0.000 Cl
ATOM     25  C   UNL     1       0.263   9.814  20.097  0.00  0.00    +0.000 A 
ENDBRANCH  17  18
ENDBRANCH  15  17
ENDBRANCH  14  15
ENDBRANCH   1  14
TORSDOF 12
ENDMDL
MODEL 3
REMARK VINA RESULT:      -6.1      5.637      7.543
REMARK  Name = 
REMARK  14 active torsions:
REMARK  status: ('A' for Active; 'I' for Inactive)
REMARK    1  A    between atoms: C_1  and  C_2
REMARK    2  A    between atoms: C_2  and  O_3
REMARK    3  A    between atoms: O_3  and  C_4
REMARK    4  A    between atoms: C_4  and  O_5
REMARK    5  A    between atoms: C_4  and  P_8
REMARK    6  A    between atoms: O_5  and  C_6
REMARK    7  A    between atoms: C_6  and  C_7
REMARK    8  A    between atoms: P_8  and  O_10
REMARK    9  A    between atoms: P_8  and  C_11
REMARK   10  A    between atoms: C_11  and  C_12
REMARK   11  A    between atoms: C_12  and  C_13
REMARK   12  A    between atoms: C_13  and  N_14
REMARK   13  A    between atoms: N_14  and  C_15
REMARK   14  A    between atoms: C_15  and  C_16
REMARK                            x       y       z     vdW  Elec       q    Type
REMARK                         _______ _______ _______ _____ _____    ______ ____
ROOT
ATOM      1  C   UNL     1       8.058   6.653  18.576  0.00  0.00    +0.000 C 
ENDROOT
BRANCH   1   2
ATOM      2  C   UNL     1       6.995   5.839  19.304  0.00  0.00    +0.000 C 
BRANCH   2   3
ATOM      3  P   UNL     1       6.007   4.847  18.127  0.00  0.00    +0.000 P 
ATOM      4  O   UNL     1       4.832   5.821  18.358  0.00  0.00    +0.000 OA
BRANCH   3   5
ATOM      5  O   UNL     1       5.772   3.741  19.356  0.00  0.00    +0.000 OA
ATOM      6  H   UNL     1       5.504   2.866  19.004  0.00  0.00    +0.000 HD
ENDBRANCH   3   5
BRANCH   3   7
ATOM      7  C   UNL     1       5.018   3.854  16.949  0.00  0.00    +0.000 C 
BRANCH   7   8
ATOM      8  O   UNL     1       3.896   3.359  17.699  0.00  0.00    +0.000 OA
BRANCH   8  10
ATOM      9  C   UNL     1       1.634   4.121  17.860  0.00  0.00    +0.000 C 
ATOM     10  C   UNL     1       2.670   3.437  16.982  0.00  0.00    +0.000 C 
ENDBRANCH   8  10
ENDBRANCH   7   8
BRANCH   7  11
ATOM     11  O   UNL     1       4.522   4.753  15.922  0.00  0.00    +0.000 OA
BRANCH  11  12
ATOM     12  C   UNL     1       5.484   5.127  14.935  0.00  0.00    +0.000 C 
ATOM     13  C   UNL     1       6.129   3.903  14.314  0.00  0.00    +0.000 C 
ENDBRANCH  11  12
ENDBRANCH   7  11
ENDBRANCH   3   7
ENDBRANCH   2   3
ENDBRANCH   1   2
BRANCH   1  14
ATOM     14  C   UNL     1       7.424   7.612  17.576  0.00  0.00    +0.000 C 
BRANCH  14  15
ATOM     15  N   UNL     1       7.901   8.964  17.847  0.00  0.00    +0.000 NA
ATOM     16  H   UNL     1       7.118   9.564  18.103  0.00  0.00    +0.000 HD
BRANCH  15  17
ATOM     17  C   UNL     1       8.878   8.972  18.932  0.00  0.00    +0.000 C 
BRANCH  17  18
ATOM     18  C   UNL     1       9.422  10.367  19.137  0.00  0.00    +0.000 A 
ATOM     19  C   UNL     1       9.444  10.934  20.418  0.00  0.00    +0.000 A 
ATOM     20  C   UNL     1       9.954  12.221  20.616  0.00  0.00    +0.000 A 
ATOM     21  C   UNL     1      10.442  12.954  19.534  0.00  0.00    +0.000 A 
ATOM     22 CL   UNL     1      11.070  14.537  19.853  0.00  0.00    +0.000 Cl
ATOM     23  C   UNL     1      10.426  12.403  18.254  0.00  0.00    +0.000 A 
ATOM     24 CL   UNL     1      11.006  13.251  16.864  0.00  0.00    +0.000 Cl
ATOM     25  C   UNL     1       9.914  11.110  18.057  0.00  0.00    +0.000 A 
ENDBRANCH  17  18
ENDBRANCH  15  17
ENDBRANCH  14  15
ENDBRANCH   1  14
TORSDOF 12
ENDMDL
MODEL 4
REMARK VINA RESULT:      -6.0      0.933      1.895
REMARK  Name = 
REMARK  14 active torsions:
REMARK  status: ('A' for Active; 'I' for Inactive)
REMARK    1  A    between atoms: C_1  and  C_2
REMARK    2  A    between atoms: C_2  and  O_3
REMARK    3  A    between atoms: O_3  and  C_4
REMARK    4  A    between atoms: C_4  and  O_5
REMARK    5  A    between atoms: C_4  and  P_8
REMARK    6  A    between atoms: O_5  and  C_6
REMARK    7  A    between atoms: C_6  and  C_7
REMARK    8  A    between atoms: P_8  and  O_10
REMARK    9  A    between atoms: P_8  and  C_11
REMARK   10  A    between atoms: C_11  and  C_12
REMARK   11  A    between atoms: C_12  and  C_13
REMARK   12  A    between atoms: C_13  and  N_14
REMARK   13  A    between atoms: N_14  and  C_15
REMARK   14  A    between atoms: C_15  and  C_16
REMARK                            x       y       z     vdW  Elec       q    Type
REMARK                         _______ _______ _______ _____ _____    ______ ____
ROOT
ATOM      1  C   UNL     1       1.749   3.306  20.679  0.00  0.00    +0.000 C 
ENDROOT
BRANCH   1   2
ATOM      2  C   UNL     1       2.656   2.482  19.772  0.00  0.00    +0.000 C 
BRANCH   2   3
ATOM      3  P   UNL     1       3.428   3.531  18.487  0.00  0.00    +0.000 P 
ATOM      4  O   UNL     1       2.044   3.656  17.817  0.00  0.00    +0.000 OA
BRANCH   3   5
ATOM      5  O   UNL     1       4.013   2.132  17.789  0.00  0.00    +0.000 OA
ATOM      6  H   UNL     1       4.973   2.022  17.957  0.00  0.00    +0.000 HD
ENDBRANCH   3   5
BRANCH   3   7
ATOM      7  C   UNL     1       4.202   4.580  17.202  0.00  0.00    +0.000 C 
BRANCH   7   8
ATOM      8  O   UNL     1       4.903   5.616  17.910  0.00  0.00    +0.000 OA
BRANCH   8  10
ATOM      9  C   UNL     1       7.054   5.584  18.955  0.00  0.00    +0.000 C 
ATOM     10  C   UNL     1       5.605   5.135  19.049  0.00  0.00    +0.000 C 
ENDBRANCH   8  10
ENDBRANCH   7   8
BRANCH   7  11
ATOM     11  O   UNL     1       5.177   3.767  16.497  0.00  0.00    +0.000 OA
BRANCH  11  12
ATOM     12  C   UNL     1       5.582   4.281  15.228  0.00  0.00    +0.000 C 
ATOM     13  C   UNL     1       7.036   4.712  15.253  0.00  0.00    +0.000 C 
ENDBRANCH  11  12
ENDBRANCH   7  11
ENDBRANCH   3   7
ENDBRANCH   2   3
ENDBRANCH   1   2
BRANCH   1  14
ATOM     14  C   UNL     1       2.366   4.665  20.982  0.00  0.00    +0.000 C 
BRANCH  14  15
ATOM     15  N   UNL     1       1.521   5.708  20.408  0.00  0.00    +0.000 NA
ATOM     16  H   UNL     1       0.822   6.002  21.089  0.00  0.00    +0.000 HD
BRANCH  15  17
ATOM     17  C   UNL     1       2.311   6.868  20.009  0.00  0.00    +0.000 C 
BRANCH  17  18
ATOM     18  C   UNL     1       1.528   8.140  20.236  0.00  0.00    +0.000 A 
ATOM     19  C   UNL     1       1.362   9.063  19.194  0.00  0.00    +0.000 A 
ATOM     20  C   UNL     1       0.631  10.237  19.395  0.00  0.00    +0.000 A 
ATOM     21  C   UNL     1       0.064  10.503  20.642  0.00  0.00    +0.000 A 
ATOM     22 CL   UNL     1      -0.839  11.972  20.818  0.00  0.00    +0.000 Cl
ATOM     23  C   UNL     1       0.220   9.595  21.688  0.00  0.00    +0.000 A 
ATOM     24 CL   UNL     1      -0.446   9.857  23.261  0.00  0.00    +0.000 Cl
ATOM     25  C   UNL     1       0.954   8.415  21.483  0.00  0.00    +0.000 A 
ENDBRANCH  17  18
ENDBRANCH  15  17
ENDBRANCH  14  15
ENDBRANCH   1  14
TORSDOF 12
ENDMDL
MODEL 5
REMARK VINA RESULT:      -6.0      2.011      2.813
REMARK  Name = 
REMARK  14 active torsions:
REMARK  status: ('A' for Active; 'I' for Inactive)
REMARK    1  A    between atoms: C_1  and  C_2
REMARK    2  A    between atoms: C_2  and  O_3
REMARK    3  A    between atoms: O_3  and  C_4
REMARK    4  A    between atoms: C_4  and  O_5
REMARK    5  A    between atoms: C_4  and  P_8
REMARK    6  A    between atoms: O_5  and  C_6
REMARK    7  A    between atoms: C_6  and  C_7
REMARK    8  A    between atoms: P_8  and  O_10
REMARK    9  A    between atoms: P_8  and  C_11
REMARK   10  A    between atoms: C_11  and  C_12
REMARK   11  A    between atoms: C_12  and  C_13
REMARK   12  A    between atoms: C_13  and  N_14
REMARK   13  A    between atoms: N_14  and  C_15
REMARK   14  A    between atoms: C_15  and  C_16
REMARK                            x       y       z     vdW  Elec       q    Type
REMARK                         _______ _______ _______ _____ _____    ______ ____
ROOT
ATOM      1  C   UNL     1       3.950   4.089  18.909  0.00  0.00    +0.000 C 
ENDROOT
BRANCH   1   2
ATOM      2  C   UNL     1       5.363   4.549  19.246  0.00  0.00    +0.000 C 
BRANCH   2   3
ATOM      3  P   UNL     1       6.288   4.995  17.732  0.00  0.00    +0.000 P 
ATOM      4  O   UNL     1       5.513   3.889  16.984  0.00  0.00    +0.000 OA
BRANCH   3   5
ATOM      5  O   UNL     1       7.582   4.137  18.348  0.00  0.00    +0.000 OA
ATOM      6  H   UNL     1       8.076   3.676  17.638  0.00  0.00    +0.000 HD
ENDBRANCH   3   5
BRANCH   3   7
ATOM      7  C   UNL     1       7.214   5.441  16.218  0.00  0.00    +0.000 C 
BRANCH   7   8
ATOM      8  O   UNL     1       6.281   5.305  15.132  0.00  0.00    +0.000 OA
BRANCH   8  10
ATOM      9  C   UNL     1       5.839   3.782  13.342  0.00  0.00    +0.000 C 
ATOM     10  C   UNL     1       6.858   4.717  13.973  0.00  0.00    +0.000 C 
ENDBRANCH   8  10
ENDBRANCH   7   8
BRANCH   7  11
ATOM     11  O   UNL     1       7.590   6.840  16.326  0.00  0.00    +0.000 OA
BRANCH  11  12
ATOM     12  C   UNL     1       7.212   7.469  17.551  0.00  0.00    +0.000 C 
ATOM     13  C   UNL     1       8.199   8.556  17.933  0.00  0.00    +0.000 C 
ENDBRANCH  11  12
ENDBRANCH   7  11
ENDBRANCH   3   7
ENDBRANCH   2   3
ENDBRANCH   1   2
BRANCH   1  14
ATOM     14  C   UNL     1       2.963   4.521  19.986  0.00  0.00    +0.000 C 
BRANCH  14  15
ATOM     15  N   UNL     1       2.113   5.581  19.453  0.00  0.00    +0.000 NA
ATOM     16  H   UNL     1       1.268   5.666  20.016  0.00  0.00    +0.000 HD
BRANCH  15  17
ATOM     17  C   UNL     1       2.809   6.864  19.447  0.00  0.00    +0.000 C 
BRANCH  17  18
ATOM     18  C   UNL     1       1.839   7.988  19.724  0.00  0.00    +0.000 A 
ATOM     19  C   UNL     1       1.485   8.883  18.705  0.00  0.00    +0.000 A 
ATOM     20  C   UNL     1       0.582   9.921  18.953  0.00  0.00    +0.000 A 
ATOM     21  C   UNL     1       0.027  10.077  20.224  0.00  0.00    +0.000 A 
ATOM     22 CL   UNL     1      -1.094  11.377  20.458  0.00  0.00    +0.000 Cl
ATOM     23  C   UNL     1       0.370   9.195  21.248  0.00  0.00    +0.000 A 
ATOM     24 CL   UNL     1      -0.269   9.328  22.848  0.00  0.00    +0.000 Cl
ATOM     25  C   UNL     1       1.277   8.153  20.996  0.00  0.00    +0.000 A 
ENDBRANCH  17  18
ENDBRANCH  15  17
ENDBRANCH  14  15
ENDBRANCH   1  14
TORSDOF 12
ENDMDL
MODEL 6
REMARK VINA RESULT:      -5.9      2.129      3.164
REMARK  Name = 
REMARK  14 active torsions:
REMARK  status: ('A' for Active; 'I' for Inactive)
REMARK    1  A    between atoms: C_1  and  C_2
REMARK    2  A    between atoms: C_2  and  O_3
REMARK    3  A    between atoms: O_3  and  C_4
REMARK    4  A    between atoms: C_4  and  O_5
REMARK    5  A    between atoms: C_4  and  P_8
REMARK    6  A    between atoms: O_5  and  C_6
REMARK    7  A    between atoms: C_6  and  C_7
REMARK    8  A    between atoms: P_8  and  O_10
REMARK    9  A    between atoms: P_8  and  C_11
REMARK   10  A    between atoms: C_11  and  C_12
REMARK   11  A    between atoms: C_12  and  C_13
REMARK   12  A    between atoms: C_13  and  N_14
REMARK   13  A    between atoms: N_14  and  C_15
REMARK   14  A    between atoms: C_15  and  C_16
REMARK                            x       y       z     vdW  Elec       q    Type
REMARK                         _______ _______ _______ _____ _____    ______ ____
ROOT
ATOM      1  C   UNL     1       3.371   2.727  17.953  0.00  0.00    +0.000 C 
ENDROOT
BRANCH   1   2
ATOM      2  C   UNL     1       3.396   3.837  16.908  0.00  0.00    +0.000 C 
BRANCH   2   3
ATOM      3  P   UNL     1       5.067   4.568  16.766  0.00  0.00    +0.000 P 
ATOM      4  O   UNL     1       5.380   4.023  18.176  0.00  0.00    +0.000 OA
BRANCH   3   5
ATOM      5  O   UNL     1       4.380   6.047  17.124  0.00  0.00    +0.000 OA
ATOM      6  H   UNL     1       4.501   6.279  18.069  0.00  0.00    +0.000 HD
ENDBRANCH   3   5
BRANCH   3   7
ATOM      7  C   UNL     1       6.739   5.300  16.623  0.00  0.00    +0.000 C 
BRANCH   7   8
ATOM      8  O   UNL     1       7.209   4.952  15.310  0.00  0.00    +0.000 OA
BRANCH   8  10
ATOM      9  C   UNL     1       6.613   4.159  13.134  0.00  0.00    +0.000 C 
ATOM     10  C   UNL     1       6.339   4.059  14.626  0.00  0.00    +0.000 C 
ENDBRANCH   8  10
ENDBRANCH   7   8
BRANCH   7  11
ATOM     11  O   UNL     1       6.596   6.744  16.690  0.00  0.00    +0.000 OA
BRANCH  11  12
ATOM     12  C   UNL     1       7.571   7.407  17.495  0.00  0.00    +0.000 C 
ATOM     13  C   UNL     1       7.975   6.548  18.678  0.00  0.00    +0.000 C 
ENDBRANCH  11  12
ENDBRANCH   7  11
ENDBRANCH   3   7
ENDBRANCH   2   3
ENDBRANCH   1   2
BRANCH   1  14
ATOM     14  C   UNL     1       2.625   3.171  19.205  0.00  0.00    +0.000 C 
BRANCH  14  15
ATOM     15  N   UNL     1       2.232   4.568  19.052  0.00  0.00    +0.000 NA
ATOM     16  H   UNL     1       1.216   4.642  19.016  0.00  0.00    +0.000 HD
BRANCH  15  17
ATOM     17  C   UNL     1       2.728   5.380  20.158  0.00  0.00    +0.000 C 
BRANCH  17  18
ATOM     18  C   UNL     1       2.078   6.745  20.140  0.00  0.00    +0.000 A 
ATOM     19  C   UNL     1       1.261   7.151  21.203  0.00  0.00    +0.000 A 
ATOM     20  C   UNL     1       0.663   8.415  21.197  0.00  0.00    +0.000 A 
ATOM     21  C   UNL     1       0.875   9.283  20.124  0.00  0.00    +0.000 A 
ATOM     22 CL   UNL     1       0.113  10.838  20.186  0.00  0.00    +0.000 Cl
ATOM     23  C   UNL     1       1.685   8.892  19.059  0.00  0.00    +0.000 A 
ATOM     24 CL   UNL     1       1.987   9.907  17.694  0.00  0.00    +0.000 Cl
ATOM     25  C   UNL     1       2.284   7.622  19.069  0.00  0.00    +0.000 A 
ENDBRANCH  17  18
ENDBRANCH  15  17
ENDBRANCH  14  15
ENDBRANCH   1  14
TORSDOF 12
ENDMDL
MODEL 7
REMARK VINA RESULT:      -5.9      1.309      1.509
REMARK  Name = 
REMARK  14 active torsions:
REMARK  status: ('A' for Active; 'I' for Inactive)
REMARK    1  A    between atoms: C_1  and  C_2
REMARK    2  A    between atoms: C_2  and  O_3
REMARK    3  A    between atoms: O_3  and  C_4
REMARK    4  A    between atoms: C_4  and  O_5
REMARK    5  A    between atoms: C_4  and  P_8
REMARK    6  A    between atoms: O_5  and  C_6
REMARK    7  A    between atoms: C_6  and  C_7
REMARK    8  A    between atoms: P_8  and  O_10
REMARK    9  A    between atoms: P_8  and  C_11
REMARK   10  A    between atoms: C_11  and  C_12
REMARK   11  A    between atoms: C_12  and  C_13
REMARK   12  A    between atoms: C_13  and  N_14
REMARK   13  A    between atoms: N_14  and  C_15
REMARK   14  A    between atoms: C_15  and  C_16
REMARK                            x       y       z     vdW  Elec       q    Type
REMARK                         _______ _______ _______ _____ _____    ______ ____
ROOT
ATOM      1  C   UNL     1       2.655   3.402  20.662  0.00  0.00    +0.000 C 
ENDROOT
BRANCH   1   2
ATOM      2  C   UNL     1       2.682   2.750  19.285  0.00  0.00    +0.000 C 
BRANCH   2   3
ATOM      3  P   UNL     1       4.077   3.383  18.285  0.00  0.00    +0.000 P 
ATOM      4  O   UNL     1       3.047   3.968  17.296  0.00  0.00    +0.000 OA
BRANCH   3   5
ATOM      5  O   UNL     1       4.269   1.835  17.690  0.00  0.00    +0.000 OA
ATOM      6  H   UNL     1       5.188   1.515  17.812  0.00  0.00    +0.000 HD
ENDBRANCH   3   5
BRANCH   3   7
ATOM      7  C   UNL     1       5.473   4.016  17.284  0.00  0.00    +0.000 C 
BRANCH   7   8
ATOM      8  O   UNL     1       5.050   5.297  16.786  0.00  0.00    +0.000 OA
BRANCH   8  10
ATOM      9  C   UNL     1       5.788   4.214  14.786  0.00  0.00    +0.000 C 
ATOM     10  C   UNL     1       5.476   5.543  15.452  0.00  0.00    +0.000 C 
ENDBRANCH   8  10
ENDBRANCH   7   8
BRANCH   7  11
ATOM     11  O   UNL     1       6.599   4.222  18.178  0.00  0.00    +0.000 OA
BRANCH  11  12
ATOM     12  C   UNL     1       6.532   5.413  18.962  0.00  0.00    +0.000 C 
ATOM     13  C   UNL     1       7.806   6.226  18.828  0.00  0.00    +0.000 C 
ENDBRANCH  11  12
ENDBRANCH   7  11
ENDBRANCH   3   7
ENDBRANCH   2   3
ENDBRANCH   1   2
BRANCH   1  14
ATOM     14  C   UNL     1       1.542   4.437  20.756  0.00  0.00    +0.000 C 
BRANCH  14  15
ATOM     15  N   UNL     1       1.638   5.340  19.614  0.00  0.00    +0.000 NA
ATOM     16  H   UNL     1       0.730   5.765  19.429  0.00  0.00    +0.000 HD
BRANCH  15  17
ATOM     17  C   UNL     1       2.614   6.397  19.856  0.00  0.00    +0.000 C 
BRANCH  17  18
ATOM     18  C   UNL     1       1.998   7.752  19.594  0.00  0.00    +0.000 A 
ATOM     19  C   UNL     1       2.114   8.348  18.331  0.00  0.00    +0.000 A 
ATOM     20  C   UNL     1       1.539   9.598  18.080  0.00  0.00    +0.000 A 
ATOM     21  C   UNL     1       0.846  10.264  19.091  0.00  0.00    +0.000 A 
ATOM     22 CL   UNL     1       0.148  11.803  18.708  0.00  0.00    +0.000 Cl
ATOM     23  C   UNL     1       0.722   9.684  20.353  0.00  0.00    +0.000 A 
ATOM     24 CL   UNL     1      -0.114  10.452  21.656  0.00  0.00    +0.000 Cl
ATOM     25  C   UNL     1       1.301   8.429  20.602  0.00  0.00    +0.000 A 
ENDBRANCH  17  18
ENDBRANCH  15  17
ENDBRANCH  14  15
ENDBRANCH   1  14
TORSDOF 12
ENDMDL
MODEL 8
REMARK VINA RESULT:      -5.9      1.226      2.167
REMARK  Name = 
REMARK  14 active torsions:
REMARK  status: ('A' for Active; 'I' for Inactive)
REMARK    1  A    between atoms: C_1  and  C_2
REMARK    2  A    between atoms: C_2  and  O_3
REMARK    3  A    between atoms: O_3  and  C_4
REMARK    4  A    between atoms: C_4  and  O_5
REMARK    5  A    between atoms: C_4  and  P_8
REMARK    6  A    between atoms: O_5  and  C_6
REMARK    7  A    between atoms: C_6  and  C_7
REMARK    8  A    between atoms: P_8  and  O_10
REMARK    9  A    between atoms: P_8  and  C_11
REMARK   10  A    between atoms: C_11  and  C_12
REMARK   11  A    between atoms: C_12  and  C_13
REMARK   12  A    between atoms: C_13  and  N_14
REMARK   13  A    between atoms: N_14  and  C_15
REMARK   14  A    between atoms: C_15  and  C_16
REMARK                            x       y       z     vdW  Elec       q    Type
REMARK                         _______ _______ _______ _____ _____    ______ ____
ROOT
ATOM      1  C   UNL     1       2.566   4.303  20.843  0.00  0.00    +0.000 C 
ENDROOT
BRANCH   1   2
ATOM      2  C   UNL     1       2.935   3.300  19.756  0.00  0.00    +0.000 C 
BRANCH   2   3
ATOM      3  P   UNL     1       4.315   3.922  18.728  0.00  0.00    +0.000 P 
ATOM      4  O   UNL     1       3.832   2.994  17.594  0.00  0.00    +0.000 OA
BRANCH   3   5
ATOM      5  O   UNL     1       5.326   2.906  19.585  0.00  0.00    +0.000 OA
ATOM      6  H   UNL     1       6.235   3.267  19.639  0.00  0.00    +0.000 HD
ENDBRANCH   3   5
BRANCH   3   7
ATOM      7  C   UNL     1       5.696   4.544  17.701  0.00  0.00    +0.000 C 
BRANCH   7   8
ATOM      8  O   UNL     1       6.885   4.358  18.487  0.00  0.00    +0.000 OA
BRANCH   8  10
ATOM      9  C   UNL     1       7.126   6.685  17.986  0.00  0.00    +0.000 C 
ATOM     10  C   UNL     1       7.851   5.383  18.286  0.00  0.00    +0.000 C 
ENDBRANCH   8  10
ENDBRANCH   7   8
BRANCH   7  11
ATOM     11  O   UNL     1       5.788   3.696  16.524  0.00  0.00    +0.000 OA
BRANCH  11  12
ATOM     12  C   UNL     1       6.169   4.372  15.326  0.00  0.00    +0.000 C 
ATOM     13  C   UNL     1       5.443   5.697  15.192  0.00  0.00    +0.000 C 
ENDBRANCH  11  12
ENDBRANCH   7  11
ENDBRANCH   3   7
ENDBRANCH   2   3
ENDBRANCH   1   2
BRANCH   1  14
ATOM     14  C   UNL     1       1.566   5.329  20.323  0.00  0.00    +0.000 C 
BRANCH  14  15
ATOM     15  N   UNL     1       1.824   6.612  20.970  0.00  0.00    +0.000 NA
ATOM     16  H   UNL     1       2.636   6.536  21.581  0.00  0.00    +0.000 HD
BRANCH  15  17
ATOM     17  C   UNL     1       2.070   7.660  19.984  0.00  0.00    +0.000 C 
BRANCH  17  18
ATOM     18  C   UNL     1       1.127   8.820  20.206  0.00  0.00    +0.000 A 
ATOM     19  C   UNL     1       0.802   9.678  19.146  0.00  0.00    +0.000 A 
ATOM     20  C   UNL     1      -0.076  10.748  19.343  0.00  0.00    +0.000 A 
ATOM     21  C   UNL     1      -0.633  10.973  20.603  0.00  0.00    +0.000 A 
ATOM     22 CL   UNL     1      -1.723  12.310  20.773  0.00  0.00    +0.000 Cl
ATOM     23  C   UNL     1      -0.319  10.129  21.666  0.00  0.00    +0.000 A 
ATOM     24 CL   UNL     1      -0.962  10.348  23.255  0.00  0.00    +0.000 Cl
ATOM     25  C   UNL     1       0.563   9.055  21.466  0.00  0.00    +0.000 A 
ENDBRANCH  17  18
ENDBRANCH  15  17
ENDBRANCH  14  15
ENDBRANCH   1  14
TORSDOF 12
ENDMDL
MODEL 9
REMARK VINA RESULT:      -5.9      2.276      3.068
REMARK  Name = 
REMARK  14 active torsions:
REMARK  status: ('A' for Active; 'I' for Inactive)
REMARK    1  A    between atoms: C_1  and  C_2
REMARK    2  A    between atoms: C_2  and  O_3
REMARK    3  A    between atoms: O_3  and  C_4
REMARK    4  A    between atoms: C_4  and  O_5
REMARK    5  A    between atoms: C_4  and  P_8
REMARK    6  A    between atoms: O_5  and  C_6
REMARK    7  A    between atoms: C_6  and  C_7
REMARK    8  A    between atoms: P_8  and  O_10
REMARK    9  A    between atoms: P_8  and  C_11
REMARK   10  A    between atoms: C_11  and  C_12
REMARK   11  A    between atoms: C_12  and  C_13
REMARK   12  A    between atoms: C_13  and  N_14
REMARK   13  A    between atoms: N_14  and  C_15
REMARK   14  A    between atoms: C_15  and  C_16
REMARK                            x       y       z     vdW  Elec       q    Type
REMARK                         _______ _______ _______ _____ _____    ______ ____
ROOT
ATOM      1  C   UNL     1       3.486   4.045  18.472  0.00  0.00    +0.000 C 
ENDROOT
BRANCH   1   2
ATOM      2  C   UNL     1       4.854   3.779  19.089  0.00  0.00    +0.000 C 
BRANCH   2   3
ATOM      3  P   UNL     1       6.136   4.838  18.327  0.00  0.00    +0.000 P 
ATOM      4  O   UNL     1       6.567   5.264  19.747  0.00  0.00    +0.000 OA
BRANCH   3   5
ATOM      5  O   UNL     1       4.932   5.947  17.997  0.00  0.00    +0.000 OA
ATOM      6  H   UNL     1       4.892   6.158  17.040  0.00  0.00    +0.000 HD
ENDBRANCH   3   5
BRANCH   3   7
ATOM      7  C   UNL     1       7.419   5.898  17.564  0.00  0.00    +0.000 C 
BRANCH   7   8
ATOM      8  O   UNL     1       7.154   5.879  16.151  0.00  0.00    +0.000 OA
BRANCH   8  10
ATOM      9  C   UNL     1       6.511   4.655  14.200  0.00  0.00    +0.000 C 
ATOM     10  C   UNL     1       7.029   4.564  15.626  0.00  0.00    +0.000 C 
ENDBRANCH   8  10
ENDBRANCH   7   8
BRANCH   7  11
ATOM     11  O   UNL     1       7.217   7.253  18.049  0.00  0.00    +0.000 OA
BRANCH  11  12
ATOM     12  C   UNL     1       7.915   8.262  17.318  0.00  0.00    +0.000 C 
ATOM     13  C   UNL     1       8.465   9.326  18.248  0.00  0.00    +0.000 C 
ENDBRANCH  11  12
ENDBRANCH   7  11
ENDBRANCH   3   7
ENDBRANCH   2   3
ENDBRANCH   1   2
BRANCH   1  14
ATOM     14  C   UNL     1       2.369   3.704  19.450  0.00  0.00    +0.000 C 
BRANCH  14  15
ATOM     15  N   UNL     1       1.565   4.898  19.686  0.00  0.00    +0.000 NA
ATOM     16  H   UNL     1       0.726   4.655  20.212  0.00  0.00    +0.000 HD
BRANCH  15  17
ATOM     17  C   UNL     1       2.316   5.902  20.433  0.00  0.00    +0.000 C 
BRANCH  17  18
ATOM     18  C   UNL     1       1.855   7.291  20.055  0.00  0.00    +0.000 A 
ATOM     19  C   UNL     1       2.218   7.844  18.819  0.00  0.00    +0.000 A 
ATOM     20  C   UNL     1       1.788   9.125  18.460  0.00  0.00    +0.000 A 
ATOM     21  C   UNL     1       0.995   9.867  19.336  0.00  0.00    +0.000 A 
ATOM     22 CL   UNL     1       0.488  11.442  18.823  0.00  0.00    +0.000 Cl
ATOM     23  C   UNL     1       0.627   9.331  20.569  0.00  0.00    +0.000 A 
ATOM     24 CL   UNL     1      -0.347  10.192  21.709  0.00  0.00    +0.000 Cl
ATOM     25  C   UNL     1       1.060   8.044  20.927  0.00  0.00    +0.000 A 
ENDBRANCH  17  18
ENDBRANCH  15  17
ENDBRANCH  14  15
ENDBRANCH   1  14
TORSDOF 12
ENDMDL
