MODEL 1
REMARK VINA RESULT:      -7.8      0.000      0.000
REMARK  Name = 
REMARK  5 active torsions:
REMARK  status: ('A' for Active; 'I' for Inactive)
REMARK    1  A    between atoms: C_2  and  C_3
REMARK    2  A    between atoms: C_9  and  S_10
REMARK    3  A    between atoms: S_10  and  C_13
REMARK    4  A    between atoms: C_18  and  C_19
REMARK    5  A    between atoms: C_25  and  C_26
REMARK                            x       y       z     vdW  Elec       q    Type
REMARK                         _______ _______ _______ _____ _____    ______ ____
ROOT
ATOM      1  C   UNL     1       4.743   4.987  18.829  0.00  0.00    +0.000 A 
ATOM      2  N   UNL     1       4.232   6.158  18.401  0.00  0.00    +0.000 NA
ATOM      3  C   UNL     1       2.975   6.457  18.765  0.00  0.00    +0.000 A 
ATOM      4  N   UNL     1       2.439   7.651  18.363  0.00  0.00    +0.000 N 
ATOM      5  C   UNL     1       3.179   8.624  17.582  0.00  0.00    +0.000 C 
ATOM      6  C   UNL     1       2.411   9.913  17.887  0.00  0.00    +0.000 C 
ATOM      7  C   UNL     1       0.952   9.457  17.934  0.00  0.00    +0.000 C 
ATOM      8  C   UNL     1       1.017   7.995  18.402  0.00  0.00    +0.000 C 
ATOM      9  C   UNL     1       2.255   5.585  19.565  0.00  0.00    +0.000 A 
ATOM     10  C   UNL     1       2.842   4.391  19.951  0.00  0.00    +0.000 A 
ATOM     11  N   UNL     1       4.106   4.076  19.582  0.00  0.00    +0.000 NA
ENDROOT
BRANCH  10  12
ATOM     12  C   UNL     1       2.027   3.413  20.788  0.00  0.00    +0.000 C 
ATOM     13  F   UNL     1       0.699   3.731  20.844  0.00  0.00    +0.000 F 
ATOM     14  F   UNL     1       2.070   2.141  20.301  0.00  0.00    +0.000 F 
ATOM     15  F   UNL     1       2.437   3.341  22.085  0.00  0.00    +0.000 F 
ENDBRANCH  10  12
BRANCH   7  16
ATOM     16  S   UNL     1      -0.092  10.365  19.053  0.00  0.00    +0.000 S 
ATOM     17  O   UNL     1      -0.337   9.563  20.236  0.00  0.00    +0.000 OA
ATOM     18  O   UNL     1       0.499  11.682  19.209  0.00  0.00    +0.000 OA
BRANCH  16  19
ATOM     19  C   UNL     1      -1.688  10.601  18.277  0.00  0.00    +0.000 A 
ATOM     20  C   UNL     1      -1.894   9.912  17.063  0.00  0.00    +0.000 A 
ATOM     21  C   UNL     1      -3.076  10.068  16.338  0.00  0.00    +0.000 A 
ATOM     22  C   UNL     1      -4.078  10.894  16.824  0.00  0.00    +0.000 A 
ATOM     23  C   UNL     1      -3.874  11.600  18.009  0.00  0.00    +0.000 A 
ATOM     24  C   UNL     1      -2.665  11.501  18.741  0.00  0.00    +0.000 A 
BRANCH  24  25
ATOM     25  C   UNL     1      -2.548  12.439  19.920  0.00  0.00    +0.000 C 
ATOM     26  F   UNL     1      -2.081  11.904  21.071  0.00  0.00    +0.000 F 
ATOM     27  F   UNL     1      -1.752  13.508  19.646  0.00  0.00    +0.000 F 
ATOM     28  F   UNL     1      -3.764  12.962  20.250  0.00  0.00    +0.000 F 
ENDBRANCH  24  25
ENDBRANCH  16  19
ENDBRANCH   7  16
BRANCH   1  30
ATOM     29  N   UNL     1       7.192   4.437  18.126  0.00  0.00    +0.000 NA
ATOM     30  C   UNL     1       6.099   4.680  18.437  0.00  0.00    +0.000 C 
ENDBRANCH   1  30
TORSDOF 5
ENDMDL
MODEL 2
REMARK VINA RESULT:      -7.2      2.683      3.775
REMARK  Name = 
REMARK  5 active torsions:
REMARK  status: ('A' for Active; 'I' for Inactive)
REMARK    1  A    between atoms: C_2  and  C_3
REMARK    2  A    between atoms: C_9  and  S_10
REMARK    3  A    between atoms: S_10  and  C_13
REMARK    4  A    between atoms: C_18  and  C_19
REMARK    5  A    between atoms: C_25  and  C_26
REMARK                            x       y       z     vdW  Elec       q    Type
REMARK                         _______ _______ _______ _____ _____    ______ ____
ROOT
ATOM      1  C   UNL     1       2.743   4.550  20.349  0.00  0.00    +0.000 A 
ATOM      2  N   UNL     1       2.090   5.679  20.688  0.00  0.00    +0.000 NA
ATOM      3  C   UNL     1       2.183   6.724  19.851  0.00  0.00    +0.000 A 
ATOM      4  N   UNL     1       1.512   7.877  20.157  0.00  0.00    +0.000 N 
ATOM      5  C   UNL     1       0.677   8.011  21.336  0.00  0.00    +0.000 C 
ATOM      6  C   UNL     1      -0.239   9.171  20.934  0.00  0.00    +0.000 C 
ATOM      7  C   UNL     1       0.689  10.108  20.161  0.00  0.00    +0.000 C 
ATOM      8  C   UNL     1       1.746   9.182  19.540  0.00  0.00    +0.000 C 
ATOM      9  C   UNL     1       2.918   6.617  18.681  0.00  0.00    +0.000 A 
ATOM     10  C   UNL     1       3.577   5.429  18.410  0.00  0.00    +0.000 A 
ATOM     11  N   UNL     1       3.496   4.371  19.252  0.00  0.00    +0.000 NA
ENDROOT
BRANCH  10  12
ATOM     12  C   UNL     1       4.425   5.334  17.148  0.00  0.00    +0.000 C 
ATOM     13  F   UNL     1       5.746   5.099  17.405  0.00  0.00    +0.000 F 
ATOM     14  F   UNL     1       4.033   4.320  16.326  0.00  0.00    +0.000 F 
ATOM     15  F   UNL     1       4.399   6.469  16.395  0.00  0.00    +0.000 F 
ENDBRANCH  10  12
BRANCH   7  16
ATOM     16  S   UNL     1      -0.087  11.039  18.858  0.00  0.00    +0.000 S 
ATOM     17  O   UNL     1       0.759  12.161  18.502  0.00  0.00    +0.000 OA
ATOM     18  O   UNL     1      -0.464  10.091  17.825  0.00  0.00    +0.000 OA
BRANCH  16  19
ATOM     19  C   UNL     1      -1.605  11.747  19.492  0.00  0.00    +0.000 A 
ATOM     20  C   UNL     1      -1.556  12.235  20.814  0.00  0.00    +0.000 A 
ATOM     21  C   UNL     1      -2.694  12.752  21.433  0.00  0.00    +0.000 A 
ATOM     22  C   UNL     1      -3.891  12.812  20.737  0.00  0.00    +0.000 A 
ATOM     23  C   UNL     1      -3.956  12.308  19.438  0.00  0.00    +0.000 A 
ATOM     24  C   UNL     1      -2.831  11.731  18.800  0.00  0.00    +0.000 A 
BRANCH  24  25
ATOM     25  C   UNL     1      -3.105  11.103  17.454  0.00  0.00    +0.000 C 
ATOM     26  F   UNL     1      -2.310  11.494  16.433  0.00  0.00    +0.000 F 
ATOM     27  F   UNL     1      -3.030   9.745  17.497  0.00  0.00    +0.000 F 
ATOM     28  F   UNL     1      -4.372  11.386  17.032  0.00  0.00    +0.000 F 
ENDBRANCH  24  25
ENDBRANCH  16  19
ENDBRANCH   7  16
BRANCH   1  30
ATOM     29  N   UNL     1       2.536   2.532  21.986  0.00  0.00    +0.000 NA
ATOM     30  C   UNL     1       2.628   3.429  21.254  0.00  0.00    +0.000 C 
ENDBRANCH   1  30
TORSDOF 5
ENDMDL
MODEL 3
REMARK VINA RESULT:      -7.2      1.613      1.933
REMARK  Name = 
REMARK  5 active torsions:
REMARK  status: ('A' for Active; 'I' for Inactive)
REMARK    1  A    between atoms: C_2  and  C_3
REMARK    2  A    between atoms: C_9  and  S_10
REMARK    3  A    between atoms: S_10  and  C_13
REMARK    4  A    between atoms: C_18  and  C_19
REMARK    5  A    between atoms: C_25  and  C_26
REMARK                            x       y       z     vdW  Elec       q    Type
REMARK                         _______ _______ _______ _____ _____    ______ ____
ROOT
ATOM      1  C   UNL     1       3.983   4.981  17.924  0.00  0.00    +0.000 A 
ATOM      2  N   UNL     1       3.516   6.237  17.783  0.00  0.00    +0.000 NA
ATOM      3  C   UNL     1       2.583   6.653  18.654  0.00  0.00    +0.000 A 
ATOM      4  N   UNL     1       2.106   7.932  18.549  0.00  0.00    +0.000 N 
ATOM      5  C   UNL     1       2.586   8.871  17.552  0.00  0.00    +0.000 C 
ATOM      6  C   UNL     1       2.209  10.213  18.187  0.00  0.00    +0.000 C 
ATOM      7  C   UNL     1       0.854   9.933  18.837  0.00  0.00    +0.000 C 
ATOM      8  C   UNL     1       0.897   8.440  19.196  0.00  0.00    +0.000 C 
ATOM      9  C   UNL     1       2.145   5.810  19.661  0.00  0.00    +0.000 A 
ATOM     10  C   UNL     1       2.660   4.526  19.732  0.00  0.00    +0.000 A 
ATOM     11  N   UNL     1       3.594   4.093  18.853  0.00  0.00    +0.000 NA
ENDROOT
BRANCH  10  12
ATOM     12  C   UNL     1       2.135   3.586  20.810  0.00  0.00    +0.000 C 
ATOM     13  F   UNL     1       0.771   3.506  20.837  0.00  0.00    +0.000 F 
ATOM     14  F   UNL     1       2.566   2.304  20.645  0.00  0.00    +0.000 F 
ATOM     15  F   UNL     1       2.501   3.953  22.070  0.00  0.00    +0.000 F 
ENDBRANCH  10  12
BRANCH   7  16
ATOM     16  S   UNL     1       0.516  10.863  20.316  0.00  0.00    +0.000 S 
ATOM     17  O   UNL     1       0.544   9.971  21.459  0.00  0.00    +0.000 OA
ATOM     18  O   UNL     1       1.399  12.015  20.305  0.00  0.00    +0.000 OA
BRANCH  16  19
ATOM     19  C   UNL     1      -1.158  11.492  20.222  0.00  0.00    +0.000 A 
ATOM     20  C   UNL     1      -1.795  11.372  18.969  0.00  0.00    +0.000 A 
ATOM     21  C   UNL     1      -3.077  11.881  18.761  0.00  0.00    +0.000 A 
ATOM     22  C   UNL     1      -3.752  12.497  19.804  0.00  0.00    +0.000 A 
ATOM     23  C   UNL     1      -3.121  12.644  21.039  0.00  0.00    +0.000 A 
ATOM     24  C   UNL     1      -1.801  12.182  21.266  0.00  0.00    +0.000 A 
BRANCH  24  25
ATOM     25  C   UNL     1      -1.213  12.549  22.609  0.00  0.00    +0.000 C 
ATOM     26  F   UNL     1      -0.946  11.524  23.449  0.00  0.00    +0.000 F 
ATOM     27  F   UNL     1      -0.055  13.252  22.486  0.00  0.00    +0.000 F 
ATOM     28  F   UNL     1      -2.061  13.358  23.309  0.00  0.00    +0.000 F 
ENDBRANCH  24  25
ENDBRANCH  16  19
ENDBRANCH   7  16
BRANCH   1  30
ATOM     29  N   UNL     1       5.807   4.196  16.236  0.00  0.00    +0.000 NA
ATOM     30  C   UNL     1       4.992   4.547  16.986  0.00  0.00    +0.000 C 
ENDBRANCH   1  30
TORSDOF 5
ENDMDL
MODEL 4
REMARK VINA RESULT:      -7.2      2.524      3.480
REMARK  Name = 
REMARK  5 active torsions:
REMARK  status: ('A' for Active; 'I' for Inactive)
REMARK    1  A    between atoms: C_2  and  C_3
REMARK    2  A    between atoms: C_9  and  S_10
REMARK    3  A    between atoms: S_10  and  C_13
REMARK    4  A    between atoms: C_18  and  C_19
REMARK    5  A    between atoms: C_25  and  C_26
REMARK                            x       y       z     vdW  Elec       q    Type
REMARK                         _______ _______ _______ _____ _____    ______ ____
ROOT
ATOM      1  C   UNL     1       2.660   4.633  20.457  0.00  0.00    +0.000 A 
ATOM      2  N   UNL     1       2.005   5.768  20.772  0.00  0.00    +0.000 NA
ATOM      3  C   UNL     1       2.122   6.806  19.930  0.00  0.00    +0.000 A 
ATOM      4  N   UNL     1       1.450   7.965  20.213  0.00  0.00    +0.000 N 
ATOM      5  C   UNL     1       0.590   8.113  21.371  0.00  0.00    +0.000 C 
ATOM      6  C   UNL     1      -0.311   9.273  20.940  0.00  0.00    +0.000 C 
ATOM      7  C   UNL     1       0.639  10.200  20.181  0.00  0.00    +0.000 C 
ATOM      8  C   UNL     1       1.704   9.264  19.590  0.00  0.00    +0.000 C 
ATOM      9  C   UNL     1       2.882   6.686  18.778  0.00  0.00    +0.000 A 
ATOM     10  C   UNL     1       3.540   5.492  18.530  0.00  0.00    +0.000 A 
ATOM     11  N   UNL     1       3.436   4.442  19.379  0.00  0.00    +0.000 NA
ENDROOT
BRANCH  10  12
ATOM     12  C   UNL     1       4.416   5.384  17.288  0.00  0.00    +0.000 C 
ATOM     13  F   UNL     1       4.061   4.348  16.470  0.00  0.00    +0.000 F 
ATOM     14  F   UNL     1       4.356   6.497  16.504  0.00  0.00    +0.000 F 
ATOM     15  F   UNL     1       5.734   5.186  17.572  0.00  0.00    +0.000 F 
ENDBRANCH  10  12
BRANCH   7  16
ATOM     16  S   UNL     1      -0.104  11.125  18.853  0.00  0.00    +0.000 S 
ATOM     17  O   UNL     1       0.715  12.286  18.563  0.00  0.00    +0.000 OA
ATOM     18  O   UNL     1      -0.386  10.182  17.786  0.00  0.00    +0.000 OA
BRANCH  16  19
ATOM     19  C   UNL     1      -1.680  11.760  19.416  0.00  0.00    +0.000 A 
ATOM     20  C   UNL     1      -2.796  11.453  18.610  0.00  0.00    +0.000 A 
ATOM     21  C   UNL     1      -4.064  11.945  18.916  0.00  0.00    +0.000 A 
ATOM     22  C   UNL     1      -4.244  12.732  20.043  0.00  0.00    +0.000 A 
ATOM     23  C   UNL     1      -3.143  13.063  20.833  0.00  0.00    +0.000 A 
ATOM     24  C   UNL     1      -1.835  12.620  20.519  0.00  0.00    +0.000 A 
BRANCH  24  25
ATOM     25  C   UNL     1      -0.737  13.186  21.390  0.00  0.00    +0.000 C 
ATOM     26  F   UNL     1      -0.033  12.296  22.125  0.00  0.00    +0.000 F 
ATOM     27  F   UNL     1       0.175  13.892  20.669  0.00  0.00    +0.000 F 
ATOM     28  F   UNL     1      -1.243  14.066  22.303  0.00  0.00    +0.000 F 
ENDBRANCH  24  25
ENDBRANCH  16  19
ENDBRANCH   7  16
BRANCH   1  30
ATOM     29  N   UNL     1       2.412   2.625  22.101  0.00  0.00    +0.000 NA
ATOM     30  C   UNL     1       2.519   3.520  21.368  0.00  0.00    +0.000 C 
ENDBRANCH   1  30
TORSDOF 5
ENDMDL
MODEL 5
REMARK VINA RESULT:      -7.1      2.086      2.520
REMARK  Name = 
REMARK  5 active torsions:
REMARK  status: ('A' for Active; 'I' for Inactive)
REMARK    1  A    between atoms: C_2  and  C_3
REMARK    2  A    between atoms: C_9  and  S_10
REMARK    3  A    between atoms: S_10  and  C_13
REMARK    4  A    between atoms: C_18  and  C_19
REMARK    5  A    between atoms: C_25  and  C_26
REMARK                            x       y       z     vdW  Elec       q    Type
REMARK                         _______ _______ _______ _____ _____    ______ ____
ROOT
ATOM      1  C   UNL     1       4.118   6.517  17.632  0.00  0.00    +0.000 A 
ATOM      2  N   UNL     1       3.490   7.709  17.664  0.00  0.00    +0.000 NA
ATOM      3  C   UNL     1       2.509   7.870  18.565  0.00  0.00    +0.000 A 
ATOM      4  N   UNL     1       1.869   9.077  18.635  0.00  0.00    +0.000 N 
ATOM      5  C   UNL     1       2.224  10.206  17.796  0.00  0.00    +0.000 C 
ATOM      6  C   UNL     1       1.674  11.381  18.610  0.00  0.00    +0.000 C 
ATOM      7  C   UNL     1       0.365  10.836  19.183  0.00  0.00    +0.000 C 
ATOM      8  C   UNL     1       0.602   9.325  19.323  0.00  0.00    +0.000 C 
ATOM      9  C   UNL     1       2.182   6.839  19.430  0.00  0.00    +0.000 A 
ATOM     10  C   UNL     1       2.860   5.635  19.326  0.00  0.00    +0.000 A 
ATOM     11  N   UNL     1       3.846   5.460  18.414  0.00  0.00    +0.000 NA
ENDROOT
BRANCH  10  12
ATOM     12  C   UNL     1       2.461   4.488  20.245  0.00  0.00    +0.000 C 
ATOM     13  F   UNL     1       1.233   3.965  19.950  0.00  0.00    +0.000 F 
ATOM     14  F   UNL     1       3.324   3.436  20.179  0.00  0.00    +0.000 F 
ATOM     15  F   UNL     1       2.395   4.847  21.558  0.00  0.00    +0.000 F 
ENDBRANCH  10  12
BRANCH   7  16
ATOM     16  S   UNL     1      -0.096  11.489  20.774  0.00  0.00    +0.000 S 
ATOM     17  O   UNL     1      -0.007  10.436  21.767  0.00  0.00    +0.000 OA
ATOM     18  O   UNL     1       0.671  12.705  20.972  0.00  0.00    +0.000 OA
BRANCH  16  19
ATOM     19  C   UNL     1      -1.821  11.966  20.713  0.00  0.00    +0.000 A 
ATOM     20  C   UNL     1      -2.419  11.970  19.436  0.00  0.00    +0.000 A 
ATOM     21  C   UNL     1      -3.739  12.382  19.260  0.00  0.00    +0.000 A 
ATOM     22  C   UNL     1      -4.491  12.775  20.357  0.00  0.00    +0.000 A 
ATOM     23  C   UNL     1      -3.901  12.800  21.621  0.00  0.00    +0.000 A 
ATOM     24  C   UNL     1      -2.548  12.435  21.824  0.00  0.00    +0.000 A 
BRANCH  24  25
ATOM     25  C   UNL     1      -2.025  12.656  23.224  0.00  0.00    +0.000 C 
ATOM     26  F   UNL     1      -1.502  11.577  23.849  0.00  0.00    +0.000 F 
ATOM     27  F   UNL     1      -1.067  13.622  23.266  0.00  0.00    +0.000 F 
ATOM     28  F   UNL     1      -3.018  13.089  24.054  0.00  0.00    +0.000 F 
ENDBRANCH  24  25
ENDBRANCH  16  19
ENDBRANCH   7  16
BRANCH   1  30
ATOM     29  N   UNL     1       6.026   6.227  15.881  0.00  0.00    +0.000 NA
ATOM     30  C   UNL     1       5.177   6.359  16.663  0.00  0.00    +0.000 C 
ENDBRANCH   1  30
TORSDOF 5
ENDMDL
MODEL 6
REMARK VINA RESULT:      -7.1      2.081      2.647
REMARK  Name = 
REMARK  5 active torsions:
REMARK  status: ('A' for Active; 'I' for Inactive)
REMARK    1  A    between atoms: C_2  and  C_3
REMARK    2  A    between atoms: C_9  and  S_10
REMARK    3  A    between atoms: S_10  and  C_13
REMARK    4  A    between atoms: C_18  and  C_19
REMARK    5  A    between atoms: C_25  and  C_26
REMARK                            x       y       z     vdW  Elec       q    Type
REMARK                         _______ _______ _______ _____ _____    ______ ____
ROOT
ATOM      1  C   UNL     1       4.074   6.459  17.543  0.00  0.00    +0.000 A 
ATOM      2  N   UNL     1       3.472   7.664  17.571  0.00  0.00    +0.000 NA
ATOM      3  C   UNL     1       2.507   7.855  18.484  0.00  0.00    +0.000 A 
ATOM      4  N   UNL     1       1.892   9.076  18.550  0.00  0.00    +0.000 N 
ATOM      5  C   UNL     1       2.258  10.188  17.693  0.00  0.00    +0.000 C 
ATOM      6  C   UNL     1       1.743  11.383  18.501  0.00  0.00    +0.000 C 
ATOM      7  C   UNL     1       0.432  10.871  19.099  0.00  0.00    +0.000 C 
ATOM      8  C   UNL     1       0.641   9.357  19.253  0.00  0.00    +0.000 C 
ATOM      9  C   UNL     1       2.172   6.840  19.366  0.00  0.00    +0.000 A 
ATOM     10  C   UNL     1       2.824   5.622  19.265  0.00  0.00    +0.000 A 
ATOM     11  N   UNL     1       3.792   5.417  18.341  0.00  0.00    +0.000 NA
ENDROOT
BRANCH  10  12
ATOM     12  C   UNL     1       2.415   4.494  20.203  0.00  0.00    +0.000 C 
ATOM     13  F   UNL     1       2.484   4.841  21.523  0.00  0.00    +0.000 F 
ATOM     14  F   UNL     1       1.130   4.085  20.006  0.00  0.00    +0.000 F 
ATOM     15  F   UNL     1       3.193   3.382  20.081  0.00  0.00    +0.000 F 
ENDBRANCH  10  12
BRANCH   7  16
ATOM     16  S   UNL     1       0.008  11.550  20.689  0.00  0.00    +0.000 S 
ATOM     17  O   UNL     1       0.152  10.523  21.702  0.00  0.00    +0.000 OA
ATOM     18  O   UNL     1       0.753  12.787  20.834  0.00  0.00    +0.000 OA
BRANCH  16  19
ATOM     19  C   UNL     1      -1.728  11.988  20.674  0.00  0.00    +0.000 A 
ATOM     20  C   UNL     1      -2.361  11.973  19.413  0.00  0.00    +0.000 A 
ATOM     21  C   UNL     1      -3.695  12.355  19.271  0.00  0.00    +0.000 A 
ATOM     22  C   UNL     1      -4.425  12.736  20.386  0.00  0.00    +0.000 A 
ATOM     23  C   UNL     1      -3.802  12.780  21.633  0.00  0.00    +0.000 A 
ATOM     24  C   UNL     1      -2.435  12.447  21.801  0.00  0.00    +0.000 A 
BRANCH  24  25
ATOM     25  C   UNL     1      -1.879  12.686  23.185  0.00  0.00    +0.000 C 
ATOM     26  F   UNL     1      -2.709  13.279  24.074  0.00  0.00    +0.000 F 
ATOM     27  F   UNL     1      -1.453  11.535  23.772  0.00  0.00    +0.000 F 
ATOM     28  F   UNL     1      -0.785  13.500  23.138  0.00  0.00    +0.000 F 
ENDBRANCH  24  25
ENDBRANCH  16  19
ENDBRANCH   7  16
BRANCH   1  30
ATOM     29  N   UNL     1       5.951   6.112  15.768  0.00  0.00    +0.000 NA
ATOM     30  C   UNL     1       5.116   6.269  16.561  0.00  0.00    +0.000 C 
ENDBRANCH   1  30
TORSDOF 5
ENDMDL
MODEL 7
REMARK VINA RESULT:      -7.1      2.223      3.113
REMARK  Name = 
REMARK  5 active torsions:
REMARK  status: ('A' for Active; 'I' for Inactive)
REMARK    1  A    between atoms: C_2  and  C_3
REMARK    2  A    between atoms: C_9  and  S_10
REMARK    3  A    between atoms: S_10  and  C_13
REMARK    4  A    between atoms: C_18  and  C_19
REMARK    5  A    between atoms: C_25  and  C_26
REMARK                            x       y       z     vdW  Elec       q    Type
REMARK                         _______ _______ _______ _____ _____    ______ ____
ROOT
ATOM      1  C   UNL     1       2.241   4.185  20.695  0.00  0.00    +0.000 A 
ATOM      2  N   UNL     1       1.718   5.410  20.898  0.00  0.00    +0.000 NA
ATOM      3  C   UNL     1       2.094   6.392  20.063  0.00  0.00    +0.000 A 
ATOM      4  N   UNL     1       1.562   7.642  20.232  0.00  0.00    +0.000 N 
ATOM      5  C   UNL     1       0.583   7.949  21.258  0.00  0.00    +0.000 C 
ATOM      6  C   UNL     1      -0.077   9.207  20.688  0.00  0.00    +0.000 C 
ATOM      7  C   UNL     1       1.089   9.965  20.052  0.00  0.00    +0.000 C 
ATOM      8  C   UNL     1       2.080   8.870  19.630  0.00  0.00    +0.000 C 
ATOM      9  C   UNL     1       2.977   6.127  19.030  0.00  0.00    +0.000 A 
ATOM     10  C   UNL     1       3.487   4.845  18.895  0.00  0.00    +0.000 A 
ATOM     11  N   UNL     1       3.120   3.851  19.737  0.00  0.00    +0.000 NA
ENDROOT
BRANCH  10  12
ATOM     12  C   UNL     1       4.497   4.572  17.788  0.00  0.00    +0.000 C 
ATOM     13  F   UNL     1       5.732   4.228  18.261  0.00  0.00    +0.000 F 
ATOM     14  F   UNL     1       4.123   3.543  16.977  0.00  0.00    +0.000 F 
ATOM     15  F   UNL     1       4.708   5.645  16.974  0.00  0.00    +0.000 F 
ENDBRANCH  10  12
BRANCH   7  16
ATOM     16  S   UNL     1       0.671  10.937  18.620  0.00  0.00    +0.000 S 
ATOM     17  O   UNL     1       0.976  12.330  18.882  0.00  0.00    +0.000 OA
ATOM     18  O   UNL     1       1.285  10.289  17.475  0.00  0.00    +0.000 OA
BRANCH  16  19
ATOM     19  C   UNL     1      -1.100  10.855  18.375  0.00  0.00    +0.000 A 
ATOM     20  C   UNL     1      -1.547   9.981  17.363  0.00  0.00    +0.000 A 
ATOM     21  C   UNL     1      -2.901   9.881  17.042  0.00  0.00    +0.000 A 
ATOM     22  C   UNL     1      -3.832  10.634  17.741  0.00  0.00    +0.000 A 
ATOM     23  C   UNL     1      -3.398  11.521  18.726  0.00  0.00    +0.000 A 
ATOM     24  C   UNL     1      -2.026  11.682  19.039  0.00  0.00    +0.000 A 
BRANCH  24  25
ATOM     25  C   UNL     1      -1.715  12.785  20.024  0.00  0.00    +0.000 C 
ATOM     26  F   UNL     1      -0.902  12.461  21.054  0.00  0.00    +0.000 F 
ATOM     27  F   UNL     1      -1.153  13.867  19.420  0.00  0.00    +0.000 F 
ATOM     28  F   UNL     1      -2.855  13.247  20.615  0.00  0.00    +0.000 F 
ENDBRANCH  24  25
ENDBRANCH  16  19
ENDBRANCH   7  16
BRANCH   1  30
ATOM     29  N   UNL     1       1.489   2.288  22.316  0.00  0.00    +0.000 NA
ATOM     30  C   UNL     1       1.822   3.136  21.595  0.00  0.00    +0.000 C 
ENDBRANCH   1  30
TORSDOF 5
ENDMDL
MODEL 8
REMARK VINA RESULT:      -7.0      2.643      3.762
REMARK  Name = 
REMARK  5 active torsions:
REMARK  status: ('A' for Active; 'I' for Inactive)
REMARK    1  A    between atoms: C_2  and  C_3
REMARK    2  A    between atoms: C_9  and  S_10
REMARK    3  A    between atoms: S_10  and  C_13
REMARK    4  A    between atoms: C_18  and  C_19
REMARK    5  A    between atoms: C_25  and  C_26
REMARK                            x       y       z     vdW  Elec       q    Type
REMARK                         _______ _______ _______ _____ _____    ______ ____
ROOT
ATOM      1  C   UNL     1       2.442   4.389  20.575  0.00  0.00    +0.000 A 
ATOM      2  N   UNL     1       1.845   5.560  20.875  0.00  0.00    +0.000 NA
ATOM      3  C   UNL     1       2.003   6.576  20.012  0.00  0.00    +0.000 A 
ATOM      4  N   UNL     1       1.390   7.770  20.280  0.00  0.00    +0.000 N 
ATOM      5  C   UNL     1       0.550   7.980  21.444  0.00  0.00    +0.000 C 
ATOM      6  C   UNL     1      -0.299   9.174  21.000  0.00  0.00    +0.000 C 
ATOM      7  C   UNL     1       0.686  10.041  20.214  0.00  0.00    +0.000 C 
ATOM      8  C   UNL     1       1.699   9.044  19.631  0.00  0.00    +0.000 C 
ATOM      9  C   UNL     1       2.744   6.399  18.855  0.00  0.00    +0.000 A 
ATOM     10  C   UNL     1       3.343   5.171  18.624  0.00  0.00    +0.000 A 
ATOM     11  N   UNL     1       3.197   4.142  19.492  0.00  0.00    +0.000 NA
ENDROOT
BRANCH  10  12
ATOM     12  C   UNL     1       4.199   4.998  17.376  0.00  0.00    +0.000 C 
ATOM     13  F   UNL     1       4.290   6.137  16.625  0.00  0.00    +0.000 F 
ATOM     14  F   UNL     1       5.486   4.655  17.664  0.00  0.00    +0.000 F 
ATOM     15  F   UNL     1       3.728   4.042  16.527  0.00  0.00    +0.000 F 
ENDBRANCH  10  12
BRANCH   7  16
ATOM     16  S   UNL     1      -0.025  10.976  18.877  0.00  0.00    +0.000 S 
ATOM     17  O   UNL     1       0.849  12.086  18.552  0.00  0.00    +0.000 OA
ATOM     18  O   UNL     1      -0.371  10.028  17.834  0.00  0.00    +0.000 OA
BRANCH  16  19
ATOM     19  C   UNL     1      -1.558  11.705  19.446  0.00  0.00    +0.000 A 
ATOM     20  C   UNL     1      -1.541  12.248  20.747  0.00  0.00    +0.000 A 
ATOM     21  C   UNL     1      -2.693  12.788  21.319  0.00  0.00    +0.000 A 
ATOM     22  C   UNL     1      -3.875  12.814  20.593  0.00  0.00    +0.000 A 
ATOM     23  C   UNL     1      -3.909  12.256  19.316  0.00  0.00    +0.000 A 
ATOM     24  C   UNL     1      -2.768  11.655  18.729  0.00  0.00    +0.000 A 
BRANCH  24  25
ATOM     25  C   UNL     1      -3.011  10.970  17.404  0.00  0.00    +0.000 C 
ATOM     26  F   UNL     1      -4.259  11.070  16.894  0.00  0.00    +0.000 F 
ATOM     27  F   UNL     1      -2.166  11.416  16.435  0.00  0.00    +0.000 F 
ATOM     28  F   UNL     1      -2.783   9.628  17.500  0.00  0.00    +0.000 F 
ENDBRANCH  24  25
ENDBRANCH  16  19
ENDBRANCH   7  16
BRANCH   1  30
ATOM     29  N   UNL     1       2.104   2.427  22.257  0.00  0.00    +0.000 NA
ATOM     30  C   UNL     1       2.258   3.301  21.507  0.00  0.00    +0.000 C 
ENDBRANCH   1  30
TORSDOF 5
ENDMDL
MODEL 9
REMARK VINA RESULT:      -6.9      1.940      2.802
REMARK  Name = 
REMARK  5 active torsions:
REMARK  status: ('A' for Active; 'I' for Inactive)
REMARK    1  A    between atoms: C_2  and  C_3
REMARK    2  A    between atoms: C_9  and  S_10
REMARK    3  A    between atoms: S_10  and  C_13
REMARK    4  A    between atoms: C_18  and  C_19
REMARK    5  A    between atoms: C_25  and  C_26
REMARK                            x       y       z     vdW  Elec       q    Type
REMARK                         _______ _______ _______ _____ _____    ______ ____
ROOT
ATOM      1  C   UNL     1       3.589   5.188  17.933  0.00  0.00    +0.000 A 
ATOM      2  N   UNL     1       3.135   6.457  17.911  0.00  0.00    +0.000 NA
ATOM      3  C   UNL     1       2.419   6.878  18.965  0.00  0.00    +0.000 A 
ATOM      4  N   UNL     1       1.963   8.169  18.980  0.00  0.00    +0.000 N 
ATOM      5  C   UNL     1       2.246   9.115  17.917  0.00  0.00    +0.000 C 
ATOM      6  C   UNL     1       2.047  10.453  18.635  0.00  0.00    +0.000 C 
ATOM      7  C   UNL     1       0.853  10.192  19.553  0.00  0.00    +0.000 C 
ATOM      8  C   UNL     1       0.932   8.692  19.875  0.00  0.00    +0.000 C 
ATOM      9  C   UNL     1       2.181   6.027  20.031  0.00  0.00    +0.000 A 
ATOM     10  C   UNL     1       2.666   4.730  19.974  0.00  0.00    +0.000 A 
ATOM     11  N   UNL     1       3.382   4.292  18.911  0.00  0.00    +0.000 NA
ENDROOT
BRANCH  10  12
ATOM     12  C   UNL     1       2.357   3.782  21.126  0.00  0.00    +0.000 C 
ATOM     13  F   UNL     1       3.126   2.653  21.114  0.00  0.00    +0.000 F 
ATOM     14  F   UNL     1       2.573   4.350  22.346  0.00  0.00    +0.000 F 
ATOM     15  F   UNL     1       1.068   3.341  21.132  0.00  0.00    +0.000 F 
ENDBRANCH  10  12
BRANCH   7  16
ATOM     16  S   UNL     1       0.859  11.102  21.083  0.00  0.00    +0.000 S 
ATOM     17  O   UNL     1       1.173  10.201  22.175  0.00  0.00    +0.000 OA
ATOM     18  O   UNL     1       1.694  12.271  20.877  0.00  0.00    +0.000 OA
BRANCH  16  19
ATOM     19  C   UNL     1      -0.800  11.698  21.396  0.00  0.00    +0.000 A 
ATOM     20  C   UNL     1      -1.236  11.643  22.736  0.00  0.00    +0.000 A 
ATOM     21  C   UNL     1      -2.531  12.023  23.089  0.00  0.00    +0.000 A 
ATOM     22  C   UNL     1      -3.403  12.485  22.115  0.00  0.00    +0.000 A 
ATOM     23  C   UNL     1      -2.991  12.519  20.783  0.00  0.00    +0.000 A 
ATOM     24  C   UNL     1      -1.700  12.091  20.387  0.00  0.00    +0.000 A 
BRANCH  24  25
ATOM     25  C   UNL     1      -1.463  12.054  18.895  0.00  0.00    +0.000 C 
ATOM     26  F   UNL     1      -0.407  12.762  18.434  0.00  0.00    +0.000 F 
ATOM     27  F   UNL     1      -1.301  10.784  18.434  0.00  0.00    +0.000 F 
ATOM     28  F   UNL     1      -2.537  12.555  18.218  0.00  0.00    +0.000 F 
ENDBRANCH  24  25
ENDBRANCH  16  19
ENDBRANCH   7  16
BRANCH   1  30
ATOM     29  N   UNL     1       4.994   4.393  15.887  0.00  0.00    +0.000 NA
ATOM     30  C   UNL     1       4.366   4.749  16.797  0.00  0.00    +0.000 C 
ENDBRANCH   1  30
TORSDOF 5
ENDMDL
