MODEL 1
REMARK VINA RESULT:      -7.3      0.000      0.000
REMARK  Name = 
REMARK  6 active torsions:
REMARK  status: ('A' for Active; 'I' for Inactive)
REMARK    1  A    between atoms: C_1  and  O_2
REMARK    2  A    between atoms: O_2  and  C_3
REMARK    3  A    between atoms: C_6  and  C_7
REMARK    4  A    between atoms: C_8  and  C_9
REMARK    5  A    between atoms: C_9  and  O_10
REMARK    6  A    between atoms: N_11  and  C_12
REMARK                            x       y       z     vdW  Elec       q    Type
REMARK                         _______ _______ _______ _____ _____    ______ ____
ROOT
ATOM      1  C   UNL     1       3.986   4.582  18.700  0.00  0.00    +0.000 A 
ATOM      2  C   UNL     1       3.665   3.435  19.426  0.00  0.00    +0.000 A 
ATOM      3  N   UNL     1       2.742   3.809  20.386  0.00  0.00    +0.000 N 
ATOM      4  C   UNL     1       2.180   2.963  21.422  0.00  0.00    +0.000 C 
ATOM      5  C   UNL     1       2.411   5.144  20.255  0.00  0.00    +0.000 A 
ATOM      6  C   UNL     1       1.512   5.941  20.987  0.00  0.00    +0.000 A 
ATOM      7  C   UNL     1       1.363   7.280  20.623  0.00  0.00    +0.000 A 
ATOM      8  C   UNL     1       2.095   7.815  19.571  0.00  0.00    +0.000 A 
ATOM      9  C   UNL     1       3.005   7.020  18.866  0.00  0.00    +0.000 A 
ATOM     10  C   UNL     1       3.166   5.653  19.200  0.00  0.00    +0.000 A 
ENDROOT
BRANCH   1  14
ATOM     11  C   UNL     1       6.919   4.799  15.680  0.00  0.00    +0.000 A 
ATOM     12  C   UNL     1       5.598   4.659  15.288  0.00  0.00    +0.000 A 
ATOM     13  C   UNL     1       4.617   4.561  16.278  0.00  0.00    +0.000 A 
ATOM     14  C   UNL     1       4.976   4.637  17.627  0.00  0.00    +0.000 A 
ATOM     15  C   UNL     1       6.329   4.822  17.898  0.00  0.00    +0.000 A 
ATOM     16  N   UNL     1       7.307   4.885  16.967  0.00  0.00    +0.000 NA
BRANCH  11  18
ATOM     17  C   UNL     1       7.283   4.821  13.378  0.00  0.00    +0.000 C 
ATOM     18  O   UNL     1       7.867   4.854  14.679  0.00  0.00    +0.000 OA
ENDBRANCH  11  18
ENDBRANCH   1  14
BRANCH   2  19
ATOM     19  C   UNL     1       4.108   2.015  19.280  0.00  0.00    +0.000 C 
BRANCH  19  20
ATOM     20  O   UNL     1       5.265   1.848  20.086  0.00  0.00    +0.000 OA
ATOM     21  H   UNL     1       5.759   2.684  20.058  0.00  0.00    +0.000 HD
ENDBRANCH  19  20
ENDBRANCH   2  19
TORSDOF 4
ENDMDL
MODEL 2
REMARK VINA RESULT:      -7.2      1.043      1.247
REMARK  Name = 
REMARK  6 active torsions:
REMARK  status: ('A' for Active; 'I' for Inactive)
REMARK    1  A    between atoms: C_1  and  O_2
REMARK    2  A    between atoms: O_2  and  C_3
REMARK    3  A    between atoms: C_6  and  C_7
REMARK    4  A    between atoms: C_8  and  C_9
REMARK    5  A    between atoms: C_9  and  O_10
REMARK    6  A    between atoms: N_11  and  C_12
REMARK                            x       y       z     vdW  Elec       q    Type
REMARK                         _______ _______ _______ _____ _____    ______ ____
ROOT
ATOM      1  C   UNL     1       4.021   5.531  18.066  0.00  0.00    +0.000 A 
ATOM      2  C   UNL     1       3.692   4.525  18.975  0.00  0.00    +0.000 A 
ATOM      3  N   UNL     1       2.789   5.068  19.870  0.00  0.00    +0.000 N 
ATOM      4  C   UNL     1       2.229   4.414  21.038  0.00  0.00    +0.000 C 
ATOM      5  C   UNL     1       2.477   6.369  19.524  0.00  0.00    +0.000 A 
ATOM      6  C   UNL     1       1.602   7.291  20.126  0.00  0.00    +0.000 A 
ATOM      7  C   UNL     1       1.468   8.555  19.547  0.00  0.00    +0.000 A 
ATOM      8  C   UNL     1       2.194   8.896  18.413  0.00  0.00    +0.000 A 
ATOM      9  C   UNL     1       3.080   7.979  17.839  0.00  0.00    +0.000 A 
ATOM     10  C   UNL     1       3.225   6.684  18.391  0.00  0.00    +0.000 A 
ENDROOT
BRANCH   1  14
ATOM     11  C   UNL     1       6.882   5.235  14.984  0.00  0.00    +0.000 A 
ATOM     12  C   UNL     1       5.709   4.510  14.848  0.00  0.00    +0.000 A 
ATOM     13  C   UNL     1       4.762   4.579  15.873  0.00  0.00    +0.000 A 
ATOM     14  C   UNL     1       4.996   5.390  16.987  0.00  0.00    +0.000 A 
ATOM     15  C   UNL     1       6.191   6.105  16.993  0.00  0.00    +0.000 A 
ATOM     16  N   UNL     1       7.144   6.034  16.035  0.00  0.00    +0.000 NA
BRANCH  11  18
ATOM     17  C   UNL     1       7.244   4.604  12.770  0.00  0.00    +0.000 C 
ATOM     18  O   UNL     1       7.813   5.115  13.973  0.00  0.00    +0.000 OA
ENDBRANCH  11  18
ENDBRANCH   1  14
BRANCH   2  19
ATOM     19  C   UNL     1       4.111   3.092  19.059  0.00  0.00    +0.000 C 
BRANCH  19  20
ATOM     20  O   UNL     1       5.404   3.064  19.644  0.00  0.00    +0.000 OA
ATOM     21  H   UNL     1       6.024   2.765  18.958  0.00  0.00    +0.000 HD
ENDBRANCH  19  20
ENDBRANCH   2  19
TORSDOF 4
ENDMDL
MODEL 3
REMARK VINA RESULT:      -7.0      0.622      1.076
REMARK  Name = 
REMARK  6 active torsions:
REMARK  status: ('A' for Active; 'I' for Inactive)
REMARK    1  A    between atoms: C_1  and  O_2
REMARK    2  A    between atoms: O_2  and  C_3
REMARK    3  A    between atoms: C_6  and  C_7
REMARK    4  A    between atoms: C_8  and  C_9
REMARK    5  A    between atoms: C_9  and  O_10
REMARK    6  A    between atoms: N_11  and  C_12
REMARK                            x       y       z     vdW  Elec       q    Type
REMARK                         _______ _______ _______ _____ _____    ______ ____
ROOT
ATOM      1  C   UNL     1       3.968   4.540  18.814  0.00  0.00    +0.000 A 
ATOM      2  C   UNL     1       3.627   3.386  19.520  0.00  0.00    +0.000 A 
ATOM      3  N   UNL     1       2.675   3.751  20.454  0.00  0.00    +0.000 N 
ATOM      4  C   UNL     1       2.084   2.895  21.466  0.00  0.00    +0.000 C 
ATOM      5  C   UNL     1       2.346   5.086  20.325  0.00  0.00    +0.000 A 
ATOM      6  C   UNL     1       1.425   5.875  21.037  0.00  0.00    +0.000 A 
ATOM      7  C   UNL     1       1.284   7.218  20.680  0.00  0.00    +0.000 A 
ATOM      8  C   UNL     1       2.047   7.763  19.655  0.00  0.00    +0.000 A 
ATOM      9  C   UNL     1       2.978   6.975  18.972  0.00  0.00    +0.000 A 
ATOM     10  C   UNL     1       3.132   5.606  19.298  0.00  0.00    +0.000 A 
ENDROOT
BRANCH   1  14
ATOM     11  C   UNL     1       6.837   4.672  15.728  0.00  0.00    +0.000 A 
ATOM     12  C   UNL     1       7.293   4.716  17.035  0.00  0.00    +0.000 A 
ATOM     13  C   UNL     1       6.352   4.698  18.068  0.00  0.00    +0.000 A 
ATOM     14  C   UNL     1       4.990   4.605  17.772  0.00  0.00    +0.000 A 
ATOM     15  C   UNL     1       4.654   4.524  16.422  0.00  0.00    +0.000 A 
ATOM     16  N   UNL     1       5.535   4.574  15.398  0.00  0.00    +0.000 NA
BRANCH  11  18
ATOM     17  C   UNL     1       7.207   4.791  13.430  0.00  0.00    +0.000 C 
ATOM     18  O   UNL     1       7.788   4.731  14.731  0.00  0.00    +0.000 OA
ENDBRANCH  11  18
ENDBRANCH   1  14
BRANCH   2  19
ATOM     19  C   UNL     1       4.077   1.968  19.374  0.00  0.00    +0.000 C 
BRANCH  19  20
ATOM     20  O   UNL     1       5.234   1.807  20.181  0.00  0.00    +0.000 OA
ATOM     21  H   UNL     1       5.963   2.267  19.733  0.00  0.00    +0.000 HD
ENDBRANCH  19  20
ENDBRANCH   2  19
TORSDOF 4
ENDMDL
MODEL 4
REMARK VINA RESULT:      -7.0      3.238      6.077
REMARK  Name = 
REMARK  6 active torsions:
REMARK  status: ('A' for Active; 'I' for Inactive)
REMARK    1  A    between atoms: C_1  and  O_2
REMARK    2  A    between atoms: O_2  and  C_3
REMARK    3  A    between atoms: C_6  and  C_7
REMARK    4  A    between atoms: C_8  and  C_9
REMARK    5  A    between atoms: C_9  and  O_10
REMARK    6  A    between atoms: N_11  and  C_12
REMARK                            x       y       z     vdW  Elec       q    Type
REMARK                         _______ _______ _______ _____ _____    ______ ____
ROOT
ATOM      1  C   UNL     1       3.088   5.972  18.070  0.00  0.00    +0.000 A 
ATOM      2  C   UNL     1       4.324   5.896  17.427  0.00  0.00    +0.000 A 
ATOM      3  N   UNL     1       4.606   4.554  17.250  0.00  0.00    +0.000 N 
ATOM      4  C   UNL     1       5.823   3.992  16.694  0.00  0.00    +0.000 C 
ATOM      5  C   UNL     1       3.561   3.769  17.698  0.00  0.00    +0.000 A 
ATOM      6  C   UNL     1       3.400   2.372  17.700  0.00  0.00    +0.000 A 
ATOM      7  C   UNL     1       2.215   1.840  18.211  0.00  0.00    +0.000 A 
ATOM      8  C   UNL     1       1.225   2.671  18.719  0.00  0.00    +0.000 A 
ATOM      9  C   UNL     1       1.407   4.058  18.735  0.00  0.00    +0.000 A 
ATOM     10  C   UNL     1       2.589   4.629  18.207  0.00  0.00    +0.000 A 
ENDROOT
BRANCH   1  14
ATOM     11  C   UNL     1       1.200   9.496  19.407  0.00  0.00    +0.000 A 
ATOM     12  C   UNL     1       1.463   9.378  18.051  0.00  0.00    +0.000 A 
ATOM     13  C   UNL     1       2.110   8.226  17.597  0.00  0.00    +0.000 A 
ATOM     14  C   UNL     1       2.449   7.214  18.498  0.00  0.00    +0.000 A 
ATOM     15  C   UNL     1       2.097   7.426  19.829  0.00  0.00    +0.000 A 
ATOM     16  N   UNL     1       1.502   8.542  20.308  0.00  0.00    +0.000 NA
BRANCH  11  18
ATOM     17  C   UNL     1      -0.466  11.064  18.966  0.00  0.00    +0.000 C 
ATOM     18  O   UNL     1       0.595  10.662  19.829  0.00  0.00    +0.000 OA
ENDBRANCH  11  18
ENDBRANCH   1  14
BRANCH   2  19
ATOM     19  C   UNL     1       5.245   6.961  16.925  0.00  0.00    +0.000 C 
BRANCH  19  20
ATOM     20  O   UNL     1       5.098   7.015  15.513  0.00  0.00    +0.000 OA
ATOM     21  H   UNL     1       5.340   7.913  15.232  0.00  0.00    +0.000 HD
ENDBRANCH  19  20
ENDBRANCH   2  19
TORSDOF 4
ENDMDL
MODEL 5
REMARK VINA RESULT:      -6.8      3.319      6.154
REMARK  Name = 
REMARK  6 active torsions:
REMARK  status: ('A' for Active; 'I' for Inactive)
REMARK    1  A    between atoms: C_1  and  O_2
REMARK    2  A    between atoms: O_2  and  C_3
REMARK    3  A    between atoms: C_6  and  C_7
REMARK    4  A    between atoms: C_8  and  C_9
REMARK    5  A    between atoms: C_9  and  O_10
REMARK    6  A    between atoms: N_11  and  C_12
REMARK                            x       y       z     vdW  Elec       q    Type
REMARK                         _______ _______ _______ _____ _____    ______ ____
ROOT
ATOM      1  C   UNL     1       3.077   5.951  18.093  0.00  0.00    +0.000 A 
ATOM      2  C   UNL     1       4.310   5.898  17.443  0.00  0.00    +0.000 A 
ATOM      3  N   UNL     1       4.609   4.561  17.252  0.00  0.00    +0.000 N 
ATOM      4  C   UNL     1       5.830   4.020  16.685  0.00  0.00    +0.000 C 
ATOM      5  C   UNL     1       3.576   3.758  17.698  0.00  0.00    +0.000 A 
ATOM      6  C   UNL     1       3.434   2.359  17.688  0.00  0.00    +0.000 A 
ATOM      7  C   UNL     1       2.259   1.807  18.200  0.00  0.00    +0.000 A 
ATOM      8  C   UNL     1       1.261   2.620  18.720  0.00  0.00    +0.000 A 
ATOM      9  C   UNL     1       1.424   4.009  18.748  0.00  0.00    +0.000 A 
ATOM     10  C   UNL     1       2.596   4.601  18.220  0.00  0.00    +0.000 A 
ENDROOT
BRANCH   1  14
ATOM     11  C   UNL     1       1.238   9.557  19.272  0.00  0.00    +0.000 A 
ATOM     12  C   UNL     1       1.498   8.613  20.253  0.00  0.00    +0.000 A 
ATOM     13  C   UNL     1       2.084   7.403  19.873  0.00  0.00    +0.000 A 
ATOM     14  C   UNL     1       2.423   7.180  18.536  0.00  0.00    +0.000 A 
ATOM     15  C   UNL     1       2.154   8.219  17.648  0.00  0.00    +0.000 A 
ATOM     16  N   UNL     1       1.556   9.386  17.975  0.00  0.00    +0.000 NA
BRANCH  11  18
ATOM     17  C   UNL     1      -0.787  10.694  19.461  0.00  0.00    +0.000 C 
ATOM     18  O   UNL     1       0.622  10.724  19.674  0.00  0.00    +0.000 OA
ENDBRANCH  11  18
ENDBRANCH   1  14
BRANCH   2  19
ATOM     19  C   UNL     1       5.214   6.980  16.946  0.00  0.00    +0.000 C 
BRANCH  19  20
ATOM     20  O   UNL     1       5.083   7.024  15.533  0.00  0.00    +0.000 OA
ATOM     21  H   UNL     1       5.262   7.937  15.255  0.00  0.00    +0.000 HD
ENDBRANCH  19  20
ENDBRANCH   2  19
TORSDOF 4
ENDMDL
MODEL 6
REMARK VINA RESULT:      -6.7      3.124      5.941
REMARK  Name = 
REMARK  6 active torsions:
REMARK  status: ('A' for Active; 'I' for Inactive)
REMARK    1  A    between atoms: C_1  and  O_2
REMARK    2  A    between atoms: O_2  and  C_3
REMARK    3  A    between atoms: C_6  and  C_7
REMARK    4  A    between atoms: C_8  and  C_9
REMARK    5  A    between atoms: C_9  and  O_10
REMARK    6  A    between atoms: N_11  and  C_12
REMARK                            x       y       z     vdW  Elec       q    Type
REMARK                         _______ _______ _______ _____ _____    ______ ____
ROOT
ATOM      1  C   UNL     1       2.858   5.905  18.259  0.00  0.00    +0.000 A 
ATOM      2  C   UNL     1       2.411   4.654  18.684  0.00  0.00    +0.000 A 
ATOM      3  N   UNL     1       3.160   3.707  18.009  0.00  0.00    +0.000 N 
ATOM      4  C   UNL     1       2.993   2.267  18.072  0.00  0.00    +0.000 C 
ATOM      5  C   UNL     1       4.117   4.311  17.216  0.00  0.00    +0.000 A 
ATOM      6  C   UNL     1       5.100   3.751  16.380  0.00  0.00    +0.000 A 
ATOM      7  C   UNL     1       5.958   4.613  15.694  0.00  0.00    +0.000 A 
ATOM      8  C   UNL     1       5.832   5.990  15.823  0.00  0.00    +0.000 A 
ATOM      9  C   UNL     1       4.834   6.535  16.637  0.00  0.00    +0.000 A 
ATOM     10  C   UNL     1       3.960   5.688  17.360  0.00  0.00    +0.000 A 
ENDROOT
BRANCH   1  14
ATOM     11  C   UNL     1       1.168   9.530  19.593  0.00  0.00    +0.000 A 
ATOM     12  C   UNL     1       1.374   9.375  18.231  0.00  0.00    +0.000 A 
ATOM     13  C   UNL     1       1.956   8.189  17.777  0.00  0.00    +0.000 A 
ATOM     14  C   UNL     1       2.287   7.180  18.686  0.00  0.00    +0.000 A 
ATOM     15  C   UNL     1       1.994   7.431  20.024  0.00  0.00    +0.000 A 
ATOM     16  N   UNL     1       1.464   8.580  20.501  0.00  0.00    +0.000 NA
BRANCH  11  18
ATOM     17  C   UNL     1      -0.772  10.811  19.751  0.00  0.00    +0.000 C 
ATOM     18  O   UNL     1       0.627  10.727  20.013  0.00  0.00    +0.000 OA
ENDBRANCH  11  18
ENDBRANCH   1  14
BRANCH   2  19
ATOM     19  C   UNL     1       1.380   4.261  19.693  0.00  0.00    +0.000 C 
BRANCH  19  20
ATOM     20  O   UNL     1       2.046   4.100  20.936  0.00  0.00    +0.000 OA
ATOM     21  H   UNL     1       2.944   3.781  20.743  0.00  0.00    +0.000 HD
ENDBRANCH  19  20
ENDBRANCH   2  19
TORSDOF 4
ENDMDL
MODEL 7
REMARK VINA RESULT:      -6.7      1.253      1.579
REMARK  Name = 
REMARK  6 active torsions:
REMARK  status: ('A' for Active; 'I' for Inactive)
REMARK    1  A    between atoms: C_1  and  O_2
REMARK    2  A    between atoms: O_2  and  C_3
REMARK    3  A    between atoms: C_6  and  C_7
REMARK    4  A    between atoms: C_8  and  C_9
REMARK    5  A    between atoms: C_9  and  O_10
REMARK    6  A    between atoms: N_11  and  C_12
REMARK                            x       y       z     vdW  Elec       q    Type
REMARK                         _______ _______ _______ _____ _____    ______ ____
ROOT
ATOM      1  C   UNL     1       3.865   5.451  18.152  0.00  0.00    +0.000 A 
ATOM      2  C   UNL     1       3.594   4.489  19.125  0.00  0.00    +0.000 A 
ATOM      3  N   UNL     1       2.759   5.080  20.056  0.00  0.00    +0.000 N 
ATOM      4  C   UNL     1       2.277   4.483  21.287  0.00  0.00    +0.000 C 
ATOM      5  C   UNL     1       2.432   6.367  19.676  0.00  0.00    +0.000 A 
ATOM      6  C   UNL     1       1.608   7.324  20.296  0.00  0.00    +0.000 A 
ATOM      7  C   UNL     1       1.443   8.563  19.673  0.00  0.00    +0.000 A 
ATOM      8  C   UNL     1       2.090   8.847  18.477  0.00  0.00    +0.000 A 
ATOM      9  C   UNL     1       2.928   7.897  17.884  0.00  0.00    +0.000 A 
ATOM     10  C   UNL     1       3.102   6.626  18.481  0.00  0.00    +0.000 A 
ENDROOT
BRANCH   1  14
ATOM     11  C   UNL     1       6.398   4.772  14.851  0.00  0.00    +0.000 A 
ATOM     12  C   UNL     1       6.833   5.652  15.829  0.00  0.00    +0.000 A 
ATOM     13  C   UNL     1       5.993   5.906  16.916  0.00  0.00    +0.000 A 
ATOM     14  C   UNL     1       4.761   5.254  17.016  0.00  0.00    +0.000 A 
ATOM     15  C   UNL     1       4.451   4.359  15.995  0.00  0.00    +0.000 A 
ATOM     16  N   UNL     1       5.223   4.116  14.912  0.00  0.00    +0.000 NA
BRANCH  11  18
ATOM     17  C   UNL     1       6.609   3.816  12.737  0.00  0.00    +0.000 C 
ATOM     18  O   UNL     1       7.233   4.573  13.771  0.00  0.00    +0.000 OA
ENDBRANCH  11  18
ENDBRANCH   1  14
BRANCH   2  19
ATOM     19  C   UNL     1       4.007   3.057  19.243  0.00  0.00    +0.000 C 
BRANCH  19  20
ATOM     20  O   UNL     1       5.399   3.041  19.522  0.00  0.00    +0.000 OA
ATOM     21  H   UNL     1       5.663   2.111  19.617  0.00  0.00    +0.000 HD
ENDBRANCH  19  20
ENDBRANCH   2  19
TORSDOF 4
ENDMDL
MODEL 8
REMARK VINA RESULT:      -6.5      3.347      6.041
REMARK  Name = 
REMARK  6 active torsions:
REMARK  status: ('A' for Active; 'I' for Inactive)
REMARK    1  A    between atoms: C_1  and  O_2
REMARK    2  A    between atoms: O_2  and  C_3
REMARK    3  A    between atoms: C_6  and  C_7
REMARK    4  A    between atoms: C_8  and  C_9
REMARK    5  A    between atoms: C_9  and  O_10
REMARK    6  A    between atoms: N_11  and  C_12
REMARK                            x       y       z     vdW  Elec       q    Type
REMARK                         _______ _______ _______ _____ _____    ______ ____
ROOT
ATOM      1  C   UNL     1       2.897   6.348  19.006  0.00  0.00    +0.000 A 
ATOM      2  C   UNL     1       4.116   6.094  18.376  0.00  0.00    +0.000 A 
ATOM      3  N   UNL     1       4.452   4.783  18.660  0.00  0.00    +0.000 N 
ATOM      4  C   UNL     1       5.675   4.102  18.280  0.00  0.00    +0.000 C 
ATOM      5  C   UNL     1       3.456   4.168  19.395  0.00  0.00    +0.000 A 
ATOM      6  C   UNL     1       3.358   2.854  19.884  0.00  0.00    +0.000 A 
ATOM      7  C   UNL     1       2.213   2.494  20.598  0.00  0.00    +0.000 A 
ATOM      8  C   UNL     1       1.202   3.418  20.830  0.00  0.00    +0.000 A 
ATOM      9  C   UNL     1       1.323   4.730  20.360  0.00  0.00    +0.000 A 
ATOM     10  C   UNL     1       2.463   5.121  19.618  0.00  0.00    +0.000 A 
ENDROOT
BRANCH   1  14
ATOM     11  C   UNL     1       0.880  10.048  19.120  0.00  0.00    +0.000 A 
ATOM     12  C   UNL     1       1.268   9.562  17.882  0.00  0.00    +0.000 A 
ATOM     13  C   UNL     1       1.959   8.349  17.831  0.00  0.00    +0.000 A 
ATOM     14  C   UNL     1       2.216   7.640  19.008  0.00  0.00    +0.000 A 
ATOM     15  C   UNL     1       1.740   8.207  20.188  0.00  0.00    +0.000 A 
ATOM     16  N   UNL     1       1.099   9.394  20.277  0.00  0.00    +0.000 NA
BRANCH  11  18
ATOM     17  C   UNL     1      -0.957  11.236  19.925  0.00  0.00    +0.000 C 
ATOM     18  O   UNL     1       0.234  11.267  19.140  0.00  0.00    +0.000 OA
ENDBRANCH  11  18
ENDBRANCH   1  14
BRANCH   2  19
ATOM     19  C   UNL     1       4.974   6.948  17.499  0.00  0.00    +0.000 C 
BRANCH  19  20
ATOM     20  O   UNL     1       4.665   6.615  16.153  0.00  0.00    +0.000 OA
ATOM     21  H   UNL     1       4.541   5.652  16.117  0.00  0.00    +0.000 HD
ENDBRANCH  19  20
ENDBRANCH   2  19
TORSDOF 4
ENDMDL
MODEL 9
REMARK VINA RESULT:      -6.5      1.201      1.245
REMARK  Name = 
REMARK  6 active torsions:
REMARK  status: ('A' for Active; 'I' for Inactive)
REMARK    1  A    between atoms: C_1  and  O_2
REMARK    2  A    between atoms: O_2  and  C_3
REMARK    3  A    between atoms: C_6  and  C_7
REMARK    4  A    between atoms: C_8  and  C_9
REMARK    5  A    between atoms: C_9  and  O_10
REMARK    6  A    between atoms: N_11  and  C_12
REMARK                            x       y       z     vdW  Elec       q    Type
REMARK                         _______ _______ _______ _____ _____    ______ ____
ROOT
ATOM      1  C   UNL     1       3.718   4.830  18.265  0.00  0.00    +0.000 A 
ATOM      2  C   UNL     1       3.433   3.688  19.013  0.00  0.00    +0.000 A 
ATOM      3  N   UNL     1       2.629   4.084  20.066  0.00  0.00    +0.000 N 
ATOM      4  C   UNL     1       2.148   3.249  21.150  0.00  0.00    +0.000 C 
ATOM      5  C   UNL     1       2.334   5.432  19.978  0.00  0.00    +0.000 A 
ATOM      6  C   UNL     1       1.546   6.252  20.806  0.00  0.00    +0.000 A 
ATOM      7  C   UNL     1       1.408   7.600  20.467  0.00  0.00    +0.000 A 
ATOM      8  C   UNL     1       2.045   8.119  19.348  0.00  0.00    +0.000 A 
ATOM      9  C   UNL     1       2.847   7.299  18.547  0.00  0.00    +0.000 A 
ATOM     10  C   UNL     1       2.993   5.925  18.854  0.00  0.00    +0.000 A 
ENDROOT
BRANCH   1  14
ATOM     11  C   UNL     1       6.195   5.030  14.859  0.00  0.00    +0.000 A 
ATOM     12  C   UNL     1       5.862   3.775  15.343  0.00  0.00    +0.000 A 
ATOM     13  C   UNL     1       5.061   3.693  16.485  0.00  0.00    +0.000 A 
ATOM     14  C   UNL     1       4.592   4.860  17.094  0.00  0.00    +0.000 A 
ATOM     15  C   UNL     1       4.957   6.062  16.494  0.00  0.00    +0.000 A 
ATOM     16  N   UNL     1       5.758   6.178  15.410  0.00  0.00    +0.000 NA
BRANCH  11  18
ATOM     17  C   UNL     1       6.728   4.040  12.818  0.00  0.00    +0.000 C 
ATOM     18  O   UNL     1       7.018   5.077  13.754  0.00  0.00    +0.000 OA
ENDBRANCH  11  18
ENDBRANCH   1  14
BRANCH   2  19
ATOM     19  C   UNL     1       3.807   2.254  18.813  0.00  0.00    +0.000 C 
BRANCH  19  20
ATOM     20  O   UNL     1       2.746   1.637  18.098  0.00  0.00    +0.000 OA
ATOM     21  H   UNL     1       2.858   1.869  17.161  0.00  0.00    +0.000 HD
ENDBRANCH  19  20
ENDBRANCH   2  19
TORSDOF 4
ENDMDL
