MODEL 1
REMARK VINA RESULT:      -7.3      0.000      0.000
REMARK  Name = 
REMARK  6 active torsions:
REMARK  status: ('A' for Active; 'I' for Inactive)
REMARK    1  A    between atoms: C_1  and  N_2
REMARK    2  A    between atoms: N_2  and  C_3
REMARK    3  A    between atoms: C_7  and  O_8
REMARK    4  A    between atoms: O_8  and  C_9
REMARK    5  A    between atoms: C_13  and  C_15
REMARK    6  A    between atoms: C_18  and  C_19
REMARK                            x       y       z     vdW  Elec       q    Type
REMARK                         _______ _______ _______ _____ _____    ______ ____
ROOT
ATOM      1  C   UNL     1       4.975   4.101  18.462  0.00  0.00    +0.000 C 
ATOM      2  C   UNL     1       4.743   3.293  19.734  0.00  0.00    +0.000 C 
ATOM      3  C   UNL     1       3.240   3.455  19.892  0.00  0.00    +0.000 C 
ATOM      4  N   UNL     1       3.007   4.851  19.532  0.00  0.00    +0.000 N 
ATOM      5  C   UNL     1       1.924   5.530  20.069  0.00  0.00    +0.000 C 
ATOM      6  O   UNL     1       1.093   4.975  20.787  0.00  0.00    +0.000 OA
ATOM      7  C   UNL     1       4.146   5.352  18.752  0.00  0.00    +0.000 C 
ENDROOT
BRANCH   5   8
ATOM      8  C   UNL     1       1.780   6.996  19.851  0.00  0.00    +0.000 A 
ATOM      9  C   UNL     1       1.362   7.873  20.853  0.00  0.00    +0.000 A 
ATOM     10  C   UNL     1       1.089   9.210  20.564  0.00  0.00    +0.000 A 
ATOM     11  C   UNL     1       1.338   9.712  19.284  0.00  0.00    +0.000 A 
ATOM     12  C   UNL     1       1.870   8.869  18.304  0.00  0.00    +0.000 A 
ATOM     13  C   UNL     1       2.085   7.514  18.584  0.00  0.00    +0.000 A 
BRANCH  11  14
ATOM     14  C   UNL     1       1.048  11.078  18.986  0.00  0.00    +0.000 C 
ATOM     15  N   UNL     1       0.833  12.192  18.742  0.00  0.00    +0.000 NA
ENDBRANCH  11  14
ENDBRANCH   5   8
BRANCH   1  16
ATOM     16  O   UNL     1       6.348   4.374  18.203  0.00  0.00    +0.000 OA
BRANCH  16  23
ATOM     17  C   UNL     1       6.705   4.403  11.799  0.00  0.00    +0.000 C 
ATOM     18  N   UNL     1       7.608   4.831  12.852  0.00  0.00    +0.000 N 
ATOM     19  C   UNL     1       8.529   5.926  12.556  0.00  0.00    +0.000 C 
ATOM     20  C   UNL     1       7.175   4.757  14.176  0.00  0.00    +0.000 A 
ATOM     21  C   UNL     1       6.303   3.760  14.620  0.00  0.00    +0.000 A 
ATOM     22  C   UNL     1       5.971   3.651  15.973  0.00  0.00    +0.000 A 
ATOM     23  C   UNL     1       6.539   4.555  16.842  0.00  0.00    +0.000 A 
ATOM     24  N   UNL     1       7.317   5.554  16.407  0.00  0.00    +0.000 NA
ATOM     25  N   UNL     1       7.651   5.639  15.082  0.00  0.00    +0.000 NA
ENDBRANCH  16  23
ENDBRANCH   1  16
TORSDOF 4
ENDMDL
MODEL 2
REMARK VINA RESULT:      -7.3      1.831      8.315
REMARK  Name = 
REMARK  6 active torsions:
REMARK  status: ('A' for Active; 'I' for Inactive)
REMARK    1  A    between atoms: C_1  and  N_2
REMARK    2  A    between atoms: N_2  and  C_3
REMARK    3  A    between atoms: C_7  and  O_8
REMARK    4  A    between atoms: O_8  and  C_9
REMARK    5  A    between atoms: C_13  and  C_15
REMARK    6  A    between atoms: C_18  and  C_19
REMARK                            x       y       z     vdW  Elec       q    Type
REMARK                         _______ _______ _______ _____ _____    ______ ____
ROOT
ATOM      1  C   UNL     1       2.723   7.511  18.625  0.00  0.00    +0.000 C 
ATOM      2  C   UNL     1       2.188   6.420  19.546  0.00  0.00    +0.000 C 
ATOM      3  C   UNL     1       3.471   5.668  19.857  0.00  0.00    +0.000 C 
ATOM      4  N   UNL     1       4.175   5.648  18.578  0.00  0.00    +0.000 N 
ATOM      5  C   UNL     1       5.061   4.620  18.296  0.00  0.00    +0.000 C 
ATOM      6  O   UNL     1       5.344   3.753  19.122  0.00  0.00    +0.000 OA
ATOM      7  C   UNL     1       3.636   6.700  17.706  0.00  0.00    +0.000 C 
ENDROOT
BRANCH   5   8
ATOM      8  C   UNL     1       5.646   4.492  16.932  0.00  0.00    +0.000 A 
ATOM      9  C   UNL     1       6.937   4.919  16.619  0.00  0.00    +0.000 A 
ATOM     10  C   UNL     1       7.386   4.926  15.299  0.00  0.00    +0.000 A 
ATOM     11  C   UNL     1       6.582   4.399  14.285  0.00  0.00    +0.000 A 
ATOM     12  C   UNL     1       5.334   3.858  14.606  0.00  0.00    +0.000 A 
ATOM     13  C   UNL     1       4.864   3.909  15.924  0.00  0.00    +0.000 A 
BRANCH  11  14
ATOM     14  C   UNL     1       7.039   4.416  12.932  0.00  0.00    +0.000 C 
ATOM     15  N   UNL     1       7.417   4.409  11.835  0.00  0.00    +0.000 NA
ENDBRANCH  11  14
ENDBRANCH   5   8
BRANCH   1  16
ATOM     16  O   UNL     1       1.705   8.223  17.933  0.00  0.00    +0.000 OA
BRANCH  16  23
ATOM     17  C   UNL     1       0.676  13.854  20.826  0.00  0.00    +0.000 C 
ATOM     18  N   UNL     1       1.014  13.477  19.466  0.00  0.00    +0.000 N 
ATOM     19  C   UNL     1       1.780  14.429  18.666  0.00  0.00    +0.000 C 
ATOM     20  C   UNL     1       1.253  12.132  19.184  0.00  0.00    +0.000 A 
ATOM     21  C   UNL     1       0.589  11.101  19.854  0.00  0.00    +0.000 A 
ATOM     22  C   UNL     1       0.774   9.768  19.477  0.00  0.00    +0.000 A 
ATOM     23  C   UNL     1       1.624   9.517  18.424  0.00  0.00    +0.000 A 
ATOM     24  N   UNL     1       2.314  10.499  17.829  0.00  0.00    +0.000 NA
ATOM     25  N   UNL     1       2.110  11.802  18.194  0.00  0.00    +0.000 NA
ENDBRANCH  16  23
ENDBRANCH   1  16
TORSDOF 4
ENDMDL
MODEL 3
REMARK VINA RESULT:      -7.1      1.809      8.288
REMARK  Name = 
REMARK  6 active torsions:
REMARK  status: ('A' for Active; 'I' for Inactive)
REMARK    1  A    between atoms: C_1  and  N_2
REMARK    2  A    between atoms: N_2  and  C_3
REMARK    3  A    between atoms: C_7  and  O_8
REMARK    4  A    between atoms: O_8  and  C_9
REMARK    5  A    between atoms: C_13  and  C_15
REMARK    6  A    between atoms: C_18  and  C_19
REMARK                            x       y       z     vdW  Elec       q    Type
REMARK                         _______ _______ _______ _____ _____    ______ ____
ROOT
ATOM      1  C   UNL     1       2.519   7.311  18.798  0.00  0.00    +0.000 C 
ATOM      2  C   UNL     1       2.066   6.183  19.717  0.00  0.00    +0.000 C 
ATOM      3  C   UNL     1       3.403   5.535  20.036  0.00  0.00    +0.000 C 
ATOM      4  N   UNL     1       4.112   5.568  18.760  0.00  0.00    +0.000 N 
ATOM      5  C   UNL     1       5.078   4.612  18.483  0.00  0.00    +0.000 C 
ATOM      6  O   UNL     1       5.424   3.771  19.312  0.00  0.00    +0.000 OA
ATOM      7  C   UNL     1       3.497   6.574  17.884  0.00  0.00    +0.000 C 
ENDROOT
BRANCH   5   8
ATOM      8  C   UNL     1       5.677   4.530  17.122  0.00  0.00    +0.000 A 
ATOM      9  C   UNL     1       6.974   4.961  16.839  0.00  0.00    +0.000 A 
ATOM     10  C   UNL     1       7.438   5.012  15.525  0.00  0.00    +0.000 A 
ATOM     11  C   UNL     1       6.642   4.525  14.484  0.00  0.00    +0.000 A 
ATOM     12  C   UNL     1       5.388   3.979  14.773  0.00  0.00    +0.000 A 
ATOM     13  C   UNL     1       4.904   3.986  16.086  0.00  0.00    +0.000 A 
BRANCH  11  14
ATOM     14  C   UNL     1       7.115   4.586  13.138  0.00  0.00    +0.000 C 
ATOM     15  N   UNL     1       7.506   4.655  12.047  0.00  0.00    +0.000 NA
ENDBRANCH  11  14
ENDBRANCH   5   8
BRANCH   1  16
ATOM     16  O   UNL     1       1.451   7.941  18.100  0.00  0.00    +0.000 OA
BRANCH  16  23
ATOM     17  C   UNL     1       1.593  14.244  19.283  0.00  0.00    +0.000 C 
ATOM     18  N   UNL     1       1.402  13.074  20.121  0.00  0.00    +0.000 N 
ATOM     19  C   UNL     1       0.588  13.225  21.325  0.00  0.00    +0.000 C 
ATOM     20  C   UNL     1       1.345  11.818  19.515  0.00  0.00    +0.000 A 
ATOM     21  C   UNL     1       2.075  11.513  18.363  0.00  0.00    +0.000 A 
ATOM     22  C   UNL     1       2.077  10.217  17.842  0.00  0.00    +0.000 A 
ATOM     23  C   UNL     1       1.342   9.262  18.507  0.00  0.00    +0.000 A 
ATOM     24  N   UNL     1       0.586   9.571  19.568  0.00  0.00    +0.000 NA
ATOM     25  N   UNL     1       0.607  10.840  20.081  0.00  0.00    +0.000 NA
ENDBRANCH  16  23
ENDBRANCH   1  16
TORSDOF 4
ENDMDL
MODEL 4
REMARK VINA RESULT:      -7.0      4.646      7.432
REMARK  Name = 
REMARK  6 active torsions:
REMARK  status: ('A' for Active; 'I' for Inactive)
REMARK    1  A    between atoms: C_1  and  N_2
REMARK    2  A    between atoms: N_2  and  C_3
REMARK    3  A    between atoms: C_7  and  O_8
REMARK    4  A    between atoms: O_8  and  C_9
REMARK    5  A    between atoms: C_13  and  C_15
REMARK    6  A    between atoms: C_18  and  C_19
REMARK                            x       y       z     vdW  Elec       q    Type
REMARK                         _______ _______ _______ _____ _____    ______ ____
ROOT
ATOM      1  C   UNL     1       0.885   9.448  19.888  0.00  0.00    +0.000 C 
ATOM      2  C   UNL     1       0.969  10.840  20.504  0.00  0.00    +0.000 C 
ATOM      3  C   UNL     1      -0.508  11.174  20.631  0.00  0.00    +0.000 C 
ATOM      4  N   UNL     1      -1.084  10.656  19.393  0.00  0.00    +0.000 N 
ATOM      5  C   UNL     1      -2.232  11.232  18.873  0.00  0.00    +0.000 C 
ATOM      6  O   UNL     1      -2.841  12.126  19.460  0.00  0.00    +0.000 OA
ATOM      7  C   UNL     1      -0.170   9.667  18.805  0.00  0.00    +0.000 C 
ENDROOT
BRANCH   5   8
ATOM      8  C   UNL     1      -2.724  10.831  17.525  0.00  0.00    +0.000 A 
ATOM      9  C   UNL     1      -2.092   9.859  16.748  0.00  0.00    +0.000 A 
ATOM     10  C   UNL     1      -2.491   9.628  15.432  0.00  0.00    +0.000 A 
ATOM     11  C   UNL     1      -3.604  10.294  14.913  0.00  0.00    +0.000 A 
ATOM     12  C   UNL     1      -4.317  11.182  15.724  0.00  0.00    +0.000 A 
ATOM     13  C   UNL     1      -3.875  11.454  17.024  0.00  0.00    +0.000 A 
BRANCH  11  14
ATOM     14  C   UNL     1      -4.006  10.063  13.561  0.00  0.00    +0.000 C 
ATOM     15  N   UNL     1      -4.343   9.894  12.464  0.00  0.00    +0.000 NA
ENDBRANCH  11  14
ENDBRANCH   5   8
BRANCH   1  16
ATOM     16  O   UNL     1       2.128   8.972  19.385  0.00  0.00    +0.000 OA
BRANCH  16  23
ATOM     17  C   UNL     1       2.532   2.597  18.807  0.00  0.00    +0.000 C 
ATOM     18  N   UNL     1       1.709   3.477  19.617  0.00  0.00    +0.000 N 
ATOM     19  C   UNL     1       1.243   2.976  20.908  0.00  0.00    +0.000 C 
ATOM     20  C   UNL     1       1.939   4.852  19.558  0.00  0.00    +0.000 A 
ATOM     21  C   UNL     1       2.375   5.484  18.390  0.00  0.00    +0.000 A 
ATOM     22  C   UNL     1       2.495   6.875  18.334  0.00  0.00    +0.000 A 
ATOM     23  C   UNL     1       2.165   7.588  19.464  0.00  0.00    +0.000 A 
ATOM     24  N   UNL     1       1.816   6.978  20.603  0.00  0.00    +0.000 NA
ATOM     25  N   UNL     1       1.682   5.616  20.641  0.00  0.00    +0.000 NA
ENDBRANCH  16  23
ENDBRANCH   1  16
TORSDOF 4
ENDMDL
MODEL 5
REMARK VINA RESULT:      -7.0      5.300      8.429
REMARK  Name = 
REMARK  6 active torsions:
REMARK  status: ('A' for Active; 'I' for Inactive)
REMARK    1  A    between atoms: C_1  and  N_2
REMARK    2  A    between atoms: N_2  and  C_3
REMARK    3  A    between atoms: C_7  and  O_8
REMARK    4  A    between atoms: O_8  and  C_9
REMARK    5  A    between atoms: C_13  and  C_15
REMARK    6  A    between atoms: C_18  and  C_19
REMARK                            x       y       z     vdW  Elec       q    Type
REMARK                         _______ _______ _______ _____ _____    ______ ____
ROOT
ATOM      1  C   UNL     1       0.314  11.014  20.344  0.00  0.00    +0.000 C 
ATOM      2  C   UNL     1       1.029  12.330  20.064  0.00  0.00    +0.000 C 
ATOM      3  C   UNL     1       0.842  13.033  21.398  0.00  0.00    +0.000 C 
ATOM      4  N   UNL     1      -0.527  12.694  21.775  0.00  0.00    +0.000 N 
ATOM      5  C   UNL     1      -1.253  13.553  22.586  0.00  0.00    +0.000 C 
ATOM      6  O   UNL     1      -0.756  14.568  23.075  0.00  0.00    +0.000 OA
ATOM      7  C   UNL     1      -0.962  11.509  21.024  0.00  0.00    +0.000 C 
ENDROOT
BRANCH   5   8
ATOM      8  C   UNL     1      -2.701  13.307  22.828  0.00  0.00    +0.000 A 
ATOM      9  C   UNL     1      -3.696  13.704  21.933  0.00  0.00    +0.000 A 
ATOM     10  C   UNL     1      -5.045  13.595  22.271  0.00  0.00    +0.000 A 
ATOM     11  C   UNL     1      -5.416  12.983  23.471  0.00  0.00    +0.000 A 
ATOM     12  C   UNL     1      -4.429  12.473  24.319  0.00  0.00    +0.000 A 
ATOM     13  C   UNL     1      -3.076  12.639  24.002  0.00  0.00    +0.000 A 
BRANCH  11  14
ATOM     14  C   UNL     1      -6.798  12.881  23.821  0.00  0.00    +0.000 C 
ATOM     15  N   UNL     1      -7.917  12.778  24.110  0.00  0.00    +0.000 NA
ENDBRANCH  11  14
ENDBRANCH   5   8
BRANCH   1  16
ATOM     16  O   UNL     1       0.073  10.237  19.176  0.00  0.00    +0.000 OA
BRANCH  16  23
ATOM     17  C   UNL     1       4.738   6.114  17.633  0.00  0.00    +0.000 C 
ATOM     18  N   UNL     1       3.602   6.046  18.534  0.00  0.00    +0.000 N 
ATOM     19  C   UNL     1       3.717   5.188  19.711  0.00  0.00    +0.000 C 
ATOM     20  C   UNL     1       2.809   7.182  18.699  0.00  0.00    +0.000 A 
ATOM     21  C   UNL     1       2.591   8.094  17.663  0.00  0.00    +0.000 A 
ATOM     22  C   UNL     1       1.708   9.165  17.829  0.00  0.00    +0.000 A 
ATOM     23  C   UNL     1       1.065   9.278  19.040  0.00  0.00    +0.000 A 
ATOM     24  N   UNL     1       1.328   8.445  20.056  0.00  0.00    +0.000 NA
ATOM     25  N   UNL     1       2.180   7.388  19.875  0.00  0.00    +0.000 NA
ENDBRANCH  16  23
ENDBRANCH   1  16
TORSDOF 4
ENDMDL
MODEL 6
REMARK VINA RESULT:      -6.9      1.190      1.675
REMARK  Name = 
REMARK  6 active torsions:
REMARK  status: ('A' for Active; 'I' for Inactive)
REMARK    1  A    between atoms: C_1  and  N_2
REMARK    2  A    between atoms: N_2  and  C_3
REMARK    3  A    between atoms: C_7  and  O_8
REMARK    4  A    between atoms: O_8  and  C_9
REMARK    5  A    between atoms: C_13  and  C_15
REMARK    6  A    between atoms: C_18  and  C_19
REMARK                            x       y       z     vdW  Elec       q    Type
REMARK                         _______ _______ _______ _____ _____    ______ ____
ROOT
ATOM      1  C   UNL     1       4.882   5.384  18.071  0.00  0.00    +0.000 C 
ATOM      2  C   UNL     1       5.051   4.832  19.481  0.00  0.00    +0.000 C 
ATOM      3  C   UNL     1       3.613   4.879  19.970  0.00  0.00    +0.000 C 
ATOM      4  N   UNL     1       3.112   6.143  19.439  0.00  0.00    +0.000 N 
ATOM      5  C   UNL     1       2.090   6.811  20.096  0.00  0.00    +0.000 C 
ATOM      6  O   UNL     1       1.524   6.336  21.080  0.00  0.00    +0.000 OA
ATOM      7  C   UNL     1       3.969   6.582  18.329  0.00  0.00    +0.000 C 
ENDROOT
BRANCH   5   8
ATOM      8  C   UNL     1       1.696   8.181  19.666  0.00  0.00    +0.000 A 
ATOM      9  C   UNL     1       1.927   8.666  18.378  0.00  0.00    +0.000 A 
ATOM     10  C   UNL     1       1.686  10.003  18.065  0.00  0.00    +0.000 A 
ATOM     11  C   UNL     1       1.105  10.849  19.013  0.00  0.00    +0.000 A 
ATOM     12  C   UNL     1       0.758  10.341  20.269  0.00  0.00    +0.000 A 
ATOM     13  C   UNL     1       1.058   9.013  20.597  0.00  0.00    +0.000 A 
BRANCH  11  14
ATOM     14  C   UNL     1       0.868  12.221  18.695  0.00  0.00    +0.000 C 
ATOM     15  N   UNL     1       0.662  13.329  18.421  0.00  0.00    +0.000 NA
ENDBRANCH  11  14
ENDBRANCH   5   8
BRANCH   1  16
ATOM     16  O   UNL     1       6.111   5.728  17.442  0.00  0.00    +0.000 OA
BRANCH  16  23
ATOM     17  C   UNL     1       5.390   3.019  11.673  0.00  0.00    +0.000 C 
ATOM     18  N   UNL     1       6.533   3.559  12.387  0.00  0.00    +0.000 N 
ATOM     19  C   UNL     1       7.630   4.114  11.598  0.00  0.00    +0.000 C 
ATOM     20  C   UNL     1       6.322   4.165  13.626  0.00  0.00    +0.000 A 
ATOM     21  C   UNL     1       5.320   3.740  14.503  0.00  0.00    +0.000 A 
ATOM     22  C   UNL     1       5.202   4.298  15.778  0.00  0.00    +0.000 A 
ATOM     23  C   UNL     1       6.110   5.270  16.133  0.00  0.00    +0.000 A 
ATOM     24  N   UNL     1       7.025   5.727  15.268  0.00  0.00    +0.000 NA
ATOM     25  N   UNL     1       7.143   5.159  14.028  0.00  0.00    +0.000 NA
ENDBRANCH  16  23
ENDBRANCH   1  16
TORSDOF 4
ENDMDL
MODEL 7
REMARK VINA RESULT:      -6.9      4.174      7.265
REMARK  Name = 
REMARK  6 active torsions:
REMARK  status: ('A' for Active; 'I' for Inactive)
REMARK    1  A    between atoms: C_1  and  N_2
REMARK    2  A    between atoms: N_2  and  C_3
REMARK    3  A    between atoms: C_7  and  O_8
REMARK    4  A    between atoms: O_8  and  C_9
REMARK    5  A    between atoms: C_13  and  C_15
REMARK    6  A    between atoms: C_18  and  C_19
REMARK                            x       y       z     vdW  Elec       q    Type
REMARK                         _______ _______ _______ _____ _____    ______ ____
ROOT
ATOM      1  C   UNL     1       0.843   9.479  20.186  0.00  0.00    +0.000 C 
ATOM      2  C   UNL     1       0.929  10.878  20.786  0.00  0.00    +0.000 C 
ATOM      3  C   UNL     1      -0.547  11.231  20.872  0.00  0.00    +0.000 C 
ATOM      4  N   UNL     1      -1.098  10.704  19.627  0.00  0.00    +0.000 N 
ATOM      5  C   UNL     1      -2.226  11.287  19.071  0.00  0.00    +0.000 C 
ATOM      6  O   UNL     1      -2.838  12.195  19.632  0.00  0.00    +0.000 OA
ATOM      7  C   UNL     1      -0.183   9.697  19.074  0.00  0.00    +0.000 C 
ENDROOT
BRANCH   5   8
ATOM      8  C   UNL     1      -2.689  10.875  17.716  0.00  0.00    +0.000 A 
ATOM      9  C   UNL     1      -2.021   9.922  16.946  0.00  0.00    +0.000 A 
ATOM     10  C   UNL     1      -2.396   9.682  15.625  0.00  0.00    +0.000 A 
ATOM     11  C   UNL     1      -3.520  10.318  15.092  0.00  0.00    +0.000 A 
ATOM     12  C   UNL     1      -4.268  11.184  15.895  0.00  0.00    +0.000 A 
ATOM     13  C   UNL     1      -3.851  11.467  17.201  0.00  0.00    +0.000 A 
BRANCH  11  14
ATOM     14  C   UNL     1      -3.898  10.079  13.735  0.00  0.00    +0.000 C 
ATOM     15  N   UNL     1      -4.202   9.905  12.629  0.00  0.00    +0.000 NA
ENDBRANCH  11  14
ENDBRANCH   5   8
BRANCH   1  16
ATOM     16  O   UNL     1       2.092   8.982  19.720  0.00  0.00    +0.000 OA
BRANCH  16  23
ATOM     17  C   UNL     1       1.526   2.596  19.925  0.00  0.00    +0.000 C 
ATOM     18  N   UNL     1       2.356   3.501  19.151  0.00  0.00    +0.000 N 
ATOM     19  C   UNL     1       2.782   3.067  17.823  0.00  0.00    +0.000 C 
ATOM     20  C   UNL     1       2.165   4.875  19.298  0.00  0.00    +0.000 A 
ATOM     21  C   UNL     1       1.771   5.448  20.510  0.00  0.00    +0.000 A 
ATOM     22  C   UNL     1       1.689   6.835  20.652  0.00  0.00    +0.000 A 
ATOM     23  C   UNL     1       2.017   7.607  19.560  0.00  0.00    +0.000 A 
ATOM     24  N   UNL     1       2.325   7.057  18.378  0.00  0.00    +0.000 NA
ATOM     25  N   UNL     1       2.420   5.696  18.257  0.00  0.00    +0.000 NA
ENDBRANCH  16  23
ENDBRANCH   1  16
TORSDOF 4
ENDMDL
MODEL 8
REMARK VINA RESULT:      -6.9      0.350      1.026
REMARK  Name = 
REMARK  6 active torsions:
REMARK  status: ('A' for Active; 'I' for Inactive)
REMARK    1  A    between atoms: C_1  and  N_2
REMARK    2  A    between atoms: N_2  and  C_3
REMARK    3  A    between atoms: C_7  and  O_8
REMARK    4  A    between atoms: O_8  and  C_9
REMARK    5  A    between atoms: C_13  and  C_15
REMARK    6  A    between atoms: C_18  and  C_19
REMARK                            x       y       z     vdW  Elec       q    Type
REMARK                         _______ _______ _______ _____ _____    ______ ____
ROOT
ATOM      1  C   UNL     1       5.046   4.295  18.457  0.00  0.00    +0.000 C 
ATOM      2  C   UNL     1       4.856   3.629  19.814  0.00  0.00    +0.000 C 
ATOM      3  C   UNL     1       3.353   3.770  19.982  0.00  0.00    +0.000 C 
ATOM      4  N   UNL     1       3.076   5.110  19.474  0.00  0.00    +0.000 N 
ATOM      5  C   UNL     1       1.984   5.818  19.953  0.00  0.00    +0.000 C 
ATOM      6  O   UNL     1       1.180   5.325  20.744  0.00  0.00    +0.000 OA
ATOM      7  C   UNL     1       4.188   5.550  18.621  0.00  0.00    +0.000 C 
ENDROOT
BRANCH   5   8
ATOM      8  C   UNL     1       1.796   7.246  19.576  0.00  0.00    +0.000 A 
ATOM      9  C   UNL     1       2.091   7.738  18.303  0.00  0.00    +0.000 A 
ATOM     10  C   UNL     1       2.051   9.107  18.040  0.00  0.00    +0.000 A 
ATOM     11  C   UNL     1       1.606   9.994  19.024  0.00  0.00    +0.000 A 
ATOM     12  C   UNL     1       1.194   9.498  20.264  0.00  0.00    +0.000 A 
ATOM     13  C   UNL     1       1.294   8.130  20.542  0.00  0.00    +0.000 A 
BRANCH  11  14
ATOM     14  C   UNL     1       1.575  11.397  18.756  0.00  0.00    +0.000 C 
ATOM     15  N   UNL     1       1.546  12.532  18.519  0.00  0.00    +0.000 NA
ENDBRANCH  11  14
ENDBRANCH   5   8
BRANCH   1  16
ATOM     16  O   UNL     1       6.406   4.572  18.143  0.00  0.00    +0.000 OA
BRANCH  16  23
ATOM     17  C   UNL     1       6.580   4.233  11.740  0.00  0.00    +0.000 C 
ATOM     18  N   UNL     1       7.508   4.730  12.740  0.00  0.00    +0.000 N 
ATOM     19  C   UNL     1       8.409   5.813  12.354  0.00  0.00    +0.000 C 
ATOM     20  C   UNL     1       7.114   4.729  14.078  0.00  0.00    +0.000 A 
ATOM     21  C   UNL     1       6.265   3.751  14.604  0.00  0.00    +0.000 A 
ATOM     22  C   UNL     1       5.973   3.718  15.970  0.00  0.00    +0.000 A 
ATOM     23  C   UNL     1       6.556   4.676  16.768  0.00  0.00    +0.000 A 
ATOM     24  N   UNL     1       7.312   5.654  16.254  0.00  0.00    +0.000 NA
ATOM     25  N   UNL     1       7.607   5.665  14.917  0.00  0.00    +0.000 NA
ENDBRANCH  16  23
ENDBRANCH   1  16
TORSDOF 4
ENDMDL
MODEL 9
REMARK VINA RESULT:      -6.8      1.129      1.304
REMARK  Name = 
REMARK  6 active torsions:
REMARK  status: ('A' for Active; 'I' for Inactive)
REMARK    1  A    between atoms: C_1  and  N_2
REMARK    2  A    between atoms: N_2  and  C_3
REMARK    3  A    between atoms: C_7  and  O_8
REMARK    4  A    between atoms: O_8  and  C_9
REMARK    5  A    between atoms: C_13  and  C_15
REMARK    6  A    between atoms: C_18  and  C_19
REMARK                            x       y       z     vdW  Elec       q    Type
REMARK                         _______ _______ _______ _____ _____    ______ ____
ROOT
ATOM      1  C   UNL     1       4.629   5.314  18.237  0.00  0.00    +0.000 C 
ATOM      2  C   UNL     1       4.690   4.655  19.610  0.00  0.00    +0.000 C 
ATOM      3  C   UNL     1       3.238   4.777  20.039  0.00  0.00    +0.000 C 
ATOM      4  N   UNL     1       2.857   6.110  19.581  0.00  0.00    +0.000 N 
ATOM      5  C   UNL     1       1.856   6.807  20.241  0.00  0.00    +0.000 C 
ATOM      6  O   UNL     1       1.211   6.309  21.163  0.00  0.00    +0.000 OA
ATOM      7  C   UNL     1       3.796   6.559  18.543  0.00  0.00    +0.000 C 
ENDROOT
BRANCH   5   8
ATOM      8  C   UNL     1       1.585   8.230  19.896  0.00  0.00    +0.000 A 
ATOM      9  C   UNL     1       1.149   9.166  20.835  0.00  0.00    +0.000 A 
ATOM     10  C   UNL     1       0.756  10.444  20.439  0.00  0.00    +0.000 A 
ATOM     11  C   UNL     1       0.900  10.837  19.106  0.00  0.00    +0.000 A 
ATOM     12  C   UNL     1       1.449   9.945  18.180  0.00  0.00    +0.000 A 
ATOM     13  C   UNL     1       1.785   8.644  18.572  0.00  0.00    +0.000 A 
BRANCH  11  14
ATOM     14  C   UNL     1       0.488  12.143  18.700  0.00  0.00    +0.000 C 
ATOM     15  N   UNL     1       0.140  13.204  18.385  0.00  0.00    +0.000 NA
ENDBRANCH  11  14
ENDBRANCH   5   8
BRANCH   1  16
ATOM     16  O   UNL     1       5.909   5.607  17.687  0.00  0.00    +0.000 OA
BRANCH  16  23
ATOM     17  C   UNL     1       5.497   3.011  11.837  0.00  0.00    +0.000 C 
ATOM     18  N   UNL     1       6.559   3.692  12.555  0.00  0.00    +0.000 N 
ATOM     19  C   UNL     1       7.546   4.431  11.772  0.00  0.00    +0.000 C 
ATOM     20  C   UNL     1       6.282   4.218  13.817  0.00  0.00    +0.000 A 
ATOM     21  C   UNL     1       5.371   3.619  14.691  0.00  0.00    +0.000 A 
ATOM     22  C   UNL     1       5.194   4.112  15.987  0.00  0.00    +0.000 A 
ATOM     23  C   UNL     1       5.953   5.197  16.363  0.00  0.00    +0.000 A 
ATOM     24  N   UNL     1       6.773   5.814  15.503  0.00  0.00    +0.000 NA
ATOM     25  N   UNL     1       6.952   5.311  14.243  0.00  0.00    +0.000 NA
ENDBRANCH  16  23
ENDBRANCH   1  16
TORSDOF 4
ENDMDL
