MODEL 1
REMARK VINA RESULT:      -7.9      0.000      0.000
REMARK  Name = 
REMARK  3 active torsions:
REMARK  status: ('A' for Active; 'I' for Inactive)
REMARK    1  A    between atoms: C_2  and  C_13
REMARK    2  A    between atoms: N_3  and  C_4
REMARK    3  A    between atoms: C_19  and  O_20
REMARK                            x       y       z     vdW  Elec       q    Type
REMARK                         _______ _______ _______ _____ _____    ______ ____
ROOT
ATOM      1  O   UNL     1       5.245   5.633  16.575  0.00  0.00    +0.000 OA
ATOM      2  C   UNL     1       5.229   4.528  16.041  0.00  0.00    +0.000 C 
ATOM      3  N   UNL     1       4.627   3.395  16.555  0.00  0.00    +0.000 N 
ATOM      4  H   UNL     1       4.802   2.533  16.041  0.00  0.00    +0.000 HD
ENDROOT
BRANCH   3   5
ATOM      5  C   UNL     1       3.997   3.290  17.811  0.00  0.00    +0.000 A 
ATOM      6  C   UNL     1       4.609   2.723  18.932  0.00  0.00    +0.000 A 
ATOM      7  C   UNL     1       3.891   2.541  20.113  0.00  0.00    +0.000 A 
ATOM      8  F   UNL     1       4.511   1.964  21.155  0.00  0.00    +0.000 F 
ATOM      9  C   UNL     1       2.564   2.935  20.206  0.00  0.00    +0.000 A 
ATOM     10 BR   UNL     1       1.579   2.614  21.786  0.00  0.00    +0.000 Br
ATOM     11  C   UNL     1       1.970   3.552  19.110  0.00  0.00    +0.000 A 
ATOM     12  F   UNL     1       0.692   3.961  19.161  0.00  0.00    +0.000 F 
ATOM     13  C   UNL     1       2.679   3.742  17.922  0.00  0.00    +0.000 A 
ENDBRANCH   3   5
BRANCH   2  14
ATOM     14  C   UNL     1       5.943   4.385  14.740  0.00  0.00    +0.000 A 
ATOM     15  C   UNL     1       5.337   3.557  13.782  0.00  0.00    +0.000 A 
ATOM     16  C   UNL     1       5.891   3.430  12.513  0.00  0.00    +0.000 A 
ATOM     17 CL   UNL     1       5.137   2.416  11.348  0.00  0.00    +0.000 Cl
ATOM     18  C   UNL     1       7.049   4.129  12.179  0.00  0.00    +0.000 A 
ATOM     19  C   UNL     1       7.670   4.948  13.127  0.00  0.00    +0.000 A 
ATOM     20  C   UNL     1       7.120   5.071  14.407  0.00  0.00    +0.000 A 
BRANCH  20  21
ATOM     21  O   UNL     1       7.744   5.879  15.321  0.00  0.00    +0.000 OA
ATOM     22  H   UNL     1       8.708   5.821  15.185  0.00  0.00    +0.000 HD
ENDBRANCH  20  21
ENDBRANCH   2  14
TORSDOF 3
ENDMDL
MODEL 2
REMARK VINA RESULT:      -7.7      1.335      1.554
REMARK  Name = 
REMARK  3 active torsions:
REMARK  status: ('A' for Active; 'I' for Inactive)
REMARK    1  A    between atoms: C_2  and  C_13
REMARK    2  A    between atoms: N_3  and  C_4
REMARK    3  A    between atoms: C_19  and  O_20
REMARK                            x       y       z     vdW  Elec       q    Type
REMARK                         _______ _______ _______ _____ _____    ______ ____
ROOT
ATOM      1  O   UNL     1       6.349   4.269  17.076  0.00  0.00    +0.000 OA
ATOM      2  C   UNL     1       5.568   4.174  16.134  0.00  0.00    +0.000 C 
ATOM      3  N   UNL     1       4.199   4.017  16.236  0.00  0.00    +0.000 N 
ATOM      4  H   UNL     1       3.710   3.840  15.361  0.00  0.00    +0.000 HD
ENDROOT
BRANCH   3   5
ATOM      5  C   UNL     1       3.471   3.860  17.434  0.00  0.00    +0.000 A 
ATOM      6  C   UNL     1       3.317   4.880  18.377  0.00  0.00    +0.000 A 
ATOM      7  C   UNL     1       2.686   4.627  19.594  0.00  0.00    +0.000 A 
ATOM      8  F   UNL     1       2.588   5.628  20.482  0.00  0.00    +0.000 F 
ATOM      9  C   UNL     1       2.184   3.367  19.886  0.00  0.00    +0.000 A 
ATOM     10 BR   UNL     1       1.399   3.016  21.568  0.00  0.00    +0.000 Br
ATOM     11  C   UNL     1       2.284   2.367  18.925  0.00  0.00    +0.000 A 
ATOM     12  F   UNL     1       1.800   1.136  19.160  0.00  0.00    +0.000 F 
ATOM     13  C   UNL     1       2.912   2.608  17.701  0.00  0.00    +0.000 A 
ENDBRANCH   3   5
BRANCH   2  14
ATOM     14  C   UNL     1       6.146   4.202  14.760  0.00  0.00    +0.000 A 
ATOM     15  C   UNL     1       5.537   3.368  13.809  0.00  0.00    +0.000 A 
ATOM     16  C   UNL     1       5.958   3.390  12.484  0.00  0.00    +0.000 A 
ATOM     17 CL   UNL     1       5.200   2.369  11.328  0.00  0.00    +0.000 Cl
ATOM     18  C   UNL     1       6.985   4.244  12.087  0.00  0.00    +0.000 A 
ATOM     19  C   UNL     1       7.610   5.070  13.027  0.00  0.00    +0.000 A 
ATOM     20  C   UNL     1       7.194   5.045  14.362  0.00  0.00    +0.000 A 
BRANCH  20  21
ATOM     21  O   UNL     1       7.818   5.861  15.267  0.00  0.00    +0.000 OA
ATOM     22  H   UNL     1       8.578   6.290  14.830  0.00  0.00    +0.000 HD
ENDBRANCH  20  21
ENDBRANCH   2  14
TORSDOF 3
ENDMDL
MODEL 3
REMARK VINA RESULT:      -7.6      0.192      1.853
REMARK  Name = 
REMARK  3 active torsions:
REMARK  status: ('A' for Active; 'I' for Inactive)
REMARK    1  A    between atoms: C_2  and  C_13
REMARK    2  A    between atoms: N_3  and  C_4
REMARK    3  A    between atoms: C_19  and  O_20
REMARK                            x       y       z     vdW  Elec       q    Type
REMARK                         _______ _______ _______ _____ _____    ______ ____
ROOT
ATOM      1  O   UNL     1       5.277   5.495  16.736  0.00  0.00    +0.000 OA
ATOM      2  C   UNL     1       5.186   4.456  16.089  0.00  0.00    +0.000 C 
ATOM      3  N   UNL     1       4.464   3.337  16.461  0.00  0.00    +0.000 N 
ATOM      4  H   UNL     1       4.585   2.519  15.866  0.00  0.00    +0.000 HD
ENDROOT
BRANCH   3   5
ATOM      5  C   UNL     1       3.773   3.165  17.677  0.00  0.00    +0.000 A 
ATOM      6  C   UNL     1       2.454   3.584  17.876  0.00  0.00    +0.000 A 
ATOM      7  C   UNL     1       1.867   3.491  19.137  0.00  0.00    +0.000 A 
ATOM      8  F   UNL     1       0.609   3.935  19.289  0.00  0.00    +0.000 F 
ATOM      9  C   UNL     1       2.570   2.966  20.212  0.00  0.00    +0.000 A 
ATOM     10 BR   UNL     1       1.790   2.916  21.932  0.00  0.00    +0.000 Br
ATOM     11  C   UNL     1       3.861   2.495  20.002  0.00  0.00    +0.000 A 
ATOM     12  F   UNL     1       4.573   1.966  21.012  0.00  0.00    +0.000 F 
ATOM     13  C   UNL     1       4.460   2.580  18.744  0.00  0.00    +0.000 A 
ENDBRANCH   3   5
BRANCH   2  14
ATOM     14  C   UNL     1       5.941   4.380  14.806  0.00  0.00    +0.000 A 
ATOM     15  C   UNL     1       5.401   3.548  13.812  0.00  0.00    +0.000 A 
ATOM     16  C   UNL     1       5.995   3.480  12.556  0.00  0.00    +0.000 A 
ATOM     17 CL   UNL     1       5.321   2.462  11.346  0.00  0.00    +0.000 Cl
ATOM     18  C   UNL     1       7.126   4.240  12.271  0.00  0.00    +0.000 A 
ATOM     19  C   UNL     1       7.683   5.063  13.256  0.00  0.00    +0.000 A 
ATOM     20  C   UNL     1       7.093   5.128  14.523  0.00  0.00    +0.000 A 
BRANCH  20  21
ATOM     21  O   UNL     1       7.653   5.939  15.474  0.00  0.00    +0.000 OA
ATOM     22  H   UNL     1       6.939   6.398  15.954  0.00  0.00    +0.000 HD
ENDBRANCH  20  21
ENDBRANCH   2  14
TORSDOF 3
ENDMDL
MODEL 4
REMARK VINA RESULT:      -7.3      1.349      1.397
REMARK  Name = 
REMARK  3 active torsions:
REMARK  status: ('A' for Active; 'I' for Inactive)
REMARK    1  A    between atoms: C_2  and  C_13
REMARK    2  A    between atoms: N_3  and  C_4
REMARK    3  A    between atoms: C_19  and  O_20
REMARK                            x       y       z     vdW  Elec       q    Type
REMARK                         _______ _______ _______ _____ _____    ______ ____
ROOT
ATOM      1  O   UNL     1       6.814   4.177  16.806  0.00  0.00    +0.000 OA
ATOM      2  C   UNL     1       5.958   4.096  15.930  0.00  0.00    +0.000 C 
ATOM      3  N   UNL     1       4.602   3.931  16.143  0.00  0.00    +0.000 N 
ATOM      4  H   UNL     1       4.043   3.769  15.307  0.00  0.00    +0.000 HD
ENDROOT
BRANCH   3   5
ATOM      5  C   UNL     1       3.977   3.749  17.393  0.00  0.00    +0.000 A 
ATOM      6  C   UNL     1       3.449   2.526  17.817  0.00  0.00    +0.000 A 
ATOM      7  C   UNL     1       2.739   2.440  19.013  0.00  0.00    +0.000 A 
ATOM      8  F   UNL     1       2.224   1.252  19.365  0.00  0.00    +0.000 F 
ATOM      9  C   UNL     1       2.557   3.559  19.814  0.00  0.00    +0.000 A 
ATOM     10 BR   UNL     1       1.527   3.447  21.394  0.00  0.00    +0.000 Br
ATOM     11  C   UNL     1       3.131   4.763  19.423  0.00  0.00    +0.000 A 
ATOM     12  F   UNL     1       2.991   5.868  20.174  0.00  0.00    +0.000 F 
ATOM     13  C   UNL     1       3.846   4.863  18.228  0.00  0.00    +0.000 A 
ENDBRANCH   3   5
BRANCH   2  14
ATOM     14  C   UNL     1       6.420   4.152  14.514  0.00  0.00    +0.000 A 
ATOM     15  C   UNL     1       5.786   3.280  13.615  0.00  0.00    +0.000 A 
ATOM     16  C   UNL     1       6.096   3.321  12.260  0.00  0.00    +0.000 A 
ATOM     17 CL   UNL     1       5.309   2.252  11.169  0.00  0.00    +0.000 Cl
ATOM     18  C   UNL     1       7.035   4.232  11.782  0.00  0.00    +0.000 A 
ATOM     19  C   UNL     1       7.684   5.098  12.668  0.00  0.00    +0.000 A 
ATOM     20  C   UNL     1       7.380   5.054  14.033  0.00  0.00    +0.000 A 
BRANCH  20  21
ATOM     21  O   UNL     1       8.026   5.910  14.884  0.00  0.00    +0.000 OA
ATOM     22  H   UNL     1       8.954   5.997  14.596  0.00  0.00    +0.000 HD
ENDBRANCH  20  21
ENDBRANCH   2  14
TORSDOF 3
ENDMDL
MODEL 5
REMARK VINA RESULT:      -7.1      2.641      2.851
REMARK  Name = 
REMARK  3 active torsions:
REMARK  status: ('A' for Active; 'I' for Inactive)
REMARK    1  A    between atoms: C_2  and  C_13
REMARK    2  A    between atoms: N_3  and  C_4
REMARK    3  A    between atoms: C_19  and  O_20
REMARK                            x       y       z     vdW  Elec       q    Type
REMARK                         _______ _______ _______ _____ _____    ______ ____
ROOT
ATOM      1  O   UNL     1       4.724   3.633  16.604  0.00  0.00    +0.000 OA
ATOM      2  C   UNL     1       5.102   4.642  16.017  0.00  0.00    +0.000 C 
ATOM      3  N   UNL     1       4.867   5.943  16.419  0.00  0.00    +0.000 N 
ATOM      4  H   UNL     1       5.152   6.665  15.760  0.00  0.00    +0.000 HD
ENDROOT
BRANCH   3   5
ATOM      5  C   UNL     1       4.090   6.339  17.527  0.00  0.00    +0.000 A 
ATOM      6  C   UNL     1       3.925   5.551  18.669  0.00  0.00    +0.000 A 
ATOM      7  C   UNL     1       3.050   5.947  19.680  0.00  0.00    +0.000 A 
ATOM      8  F   UNL     1       2.898   5.143  20.744  0.00  0.00    +0.000 F 
ATOM      9  C   UNL     1       2.341   7.136  19.581  0.00  0.00    +0.000 A 
ATOM     10 BR   UNL     1       1.100   7.624  20.920  0.00  0.00    +0.000 Br
ATOM     11  C   UNL     1       2.549   7.949  18.472  0.00  0.00    +0.000 A 
ATOM     12  F   UNL     1       1.894   9.115  18.343  0.00  0.00    +0.000 F 
ATOM     13  C   UNL     1       3.424   7.565  17.454  0.00  0.00    +0.000 A 
ENDBRANCH   3   5
BRANCH   2  14
ATOM     14  C   UNL     1       5.855   4.452  14.744  0.00  0.00    +0.000 A 
ATOM     15  C   UNL     1       5.249   3.637  13.775  0.00  0.00    +0.000 A 
ATOM     16  C   UNL     1       5.841   3.470  12.528  0.00  0.00    +0.000 A 
ATOM     17 CL   UNL     1       5.086   2.474  11.348  0.00  0.00    +0.000 Cl
ATOM     18  C   UNL     1       7.039   4.114  12.228  0.00  0.00    +0.000 A 
ATOM     19  C   UNL     1       7.661   4.919  13.188  0.00  0.00    +0.000 A 
ATOM     20  C   UNL     1       7.072   5.083  14.446  0.00  0.00    +0.000 A 
BRANCH  20  21
ATOM     21  O   UNL     1       7.696   5.875  15.372  0.00  0.00    +0.000 OA
ATOM     22  H   UNL     1       7.756   5.385  16.214  0.00  0.00    +0.000 HD
ENDBRANCH  20  21
ENDBRANCH   2  14
TORSDOF 3
ENDMDL
MODEL 6
REMARK VINA RESULT:      -6.9      6.279      8.273
REMARK  Name = 
REMARK  3 active torsions:
REMARK  status: ('A' for Active; 'I' for Inactive)
REMARK    1  A    between atoms: C_2  and  C_13
REMARK    2  A    between atoms: N_3  and  C_4
REMARK    3  A    between atoms: C_19  and  O_20
REMARK                            x       y       z     vdW  Elec       q    Type
REMARK                         _______ _______ _______ _____ _____    ______ ____
ROOT
ATOM      1  O   UNL     1       2.089   9.206  17.400  0.00  0.00    +0.000 OA
ATOM      2  C   UNL     1       1.846   8.684  18.484  0.00  0.00    +0.000 C 
ATOM      3  N   UNL     1       2.391   7.502  18.949  0.00  0.00    +0.000 N 
ATOM      4  H   UNL     1       1.998   7.150  19.819  0.00  0.00    +0.000 HD
ENDROOT
BRANCH   3   5
ATOM      5  C   UNL     1       3.258   6.653  18.232  0.00  0.00    +0.000 A 
ATOM      6  C   UNL     1       4.499   7.064  17.737  0.00  0.00    +0.000 A 
ATOM      7  C   UNL     1       5.257   6.211  16.935  0.00  0.00    +0.000 A 
ATOM      8  F   UNL     1       6.428   6.659  16.456  0.00  0.00    +0.000 F 
ATOM      9  C   UNL     1       4.806   4.935  16.629  0.00  0.00    +0.000 A 
ATOM     10 BR   UNL     1       5.805   3.817  15.480  0.00  0.00    +0.000 Br
ATOM     11  C   UNL     1       3.599   4.504  17.169  0.00  0.00    +0.000 A 
ATOM     12  F   UNL     1       3.131   3.272  16.909  0.00  0.00    +0.000 F 
ATOM     13  C   UNL     1       2.831   5.347  17.974  0.00  0.00    +0.000 A 
ENDBRANCH   3   5
BRANCH   2  14
ATOM     14  C   UNL     1       0.856   9.366  19.365  0.00  0.00    +0.000 A 
ATOM     15  C   UNL     1       0.970   9.119  20.742  0.00  0.00    +0.000 A 
ATOM     16  C   UNL     1       0.141   9.776  21.644  0.00  0.00    +0.000 A 
ATOM     17 CL   UNL     1       0.295   9.469  23.329  0.00  0.00    +0.000 Cl
ATOM     18  C   UNL     1      -0.807  10.690  21.190  0.00  0.00    +0.000 A 
ATOM     19  C   UNL     1      -0.942  10.936  19.820  0.00  0.00    +0.000 A 
ATOM     20  C   UNL     1      -0.114  10.271  18.909  0.00  0.00    +0.000 A 
BRANCH  20  21
ATOM     21  O   UNL     1      -0.262  10.526  17.572  0.00  0.00    +0.000 OA
ATOM     22  H   UNL     1       0.232  11.338  17.351  0.00  0.00    +0.000 HD
ENDBRANCH  20  21
ENDBRANCH   2  14
TORSDOF 3
ENDMDL
MODEL 7
REMARK VINA RESULT:      -6.9      5.969      7.619
REMARK  Name = 
REMARK  3 active torsions:
REMARK  status: ('A' for Active; 'I' for Inactive)
REMARK    1  A    between atoms: C_2  and  C_13
REMARK    2  A    between atoms: N_3  and  C_4
REMARK    3  A    between atoms: C_19  and  O_20
REMARK                            x       y       z     vdW  Elec       q    Type
REMARK                         _______ _______ _______ _____ _____    ______ ____
ROOT
ATOM      1  O   UNL     1       1.926   7.923  17.822  0.00  0.00    +0.000 OA
ATOM      2  C   UNL     1       1.831   8.110  19.031  0.00  0.00    +0.000 C 
ATOM      3  N   UNL     1       2.161   7.198  20.015  0.00  0.00    +0.000 N 
ATOM      4  H   UNL     1       1.916   7.469  20.965  0.00  0.00    +0.000 HD
ENDROOT
BRANCH   3   5
ATOM      5  C   UNL     1       2.589   5.871  19.803  0.00  0.00    +0.000 A 
ATOM      6  C   UNL     1       3.891   5.537  19.421  0.00  0.00    +0.000 A 
ATOM      7  C   UNL     1       4.220   4.218  19.113  0.00  0.00    +0.000 A 
ATOM      8  F   UNL     1       5.475   3.948  18.720  0.00  0.00    +0.000 F 
ATOM      9  C   UNL     1       3.270   3.210  19.197  0.00  0.00    +0.000 A 
ATOM     10 BR   UNL     1       3.707   1.439  18.704  0.00  0.00    +0.000 Br
ATOM     11  C   UNL     1       1.990   3.531  19.634  0.00  0.00    +0.000 A 
ATOM     12  F   UNL     1       1.042   2.585  19.743  0.00  0.00    +0.000 F 
ATOM     13  C   UNL     1       1.648   4.848  19.947  0.00  0.00    +0.000 A 
ENDBRANCH   3   5
BRANCH   2  14
ATOM     14  C   UNL     1       1.286   9.423  19.480  0.00  0.00    +0.000 A 
ATOM     15  C   UNL     1       0.676   9.447  20.745  0.00  0.00    +0.000 A 
ATOM     16  C   UNL     1       0.213  10.645  21.278  0.00  0.00    +0.000 A 
ATOM     17 CL   UNL     1      -0.527  10.662  22.829  0.00  0.00    +0.000 Cl
ATOM     18  C   UNL     1       0.355  11.833  20.564  0.00  0.00    +0.000 A 
ATOM     19  C   UNL     1       0.948  11.822  19.298  0.00  0.00    +0.000 A 
ATOM     20  C   UNL     1       1.408  10.617  18.755  0.00  0.00    +0.000 A 
BRANCH  20  21
ATOM     21  O   UNL     1       1.986  10.628  17.514  0.00  0.00    +0.000 OA
ATOM     22  H   UNL     1       2.543  11.424  17.434  0.00  0.00    +0.000 HD
ENDBRANCH  20  21
ENDBRANCH   2  14
TORSDOF 3
ENDMDL
MODEL 8
REMARK VINA RESULT:      -6.9      5.626      6.879
REMARK  Name = 
REMARK  3 active torsions:
REMARK  status: ('A' for Active; 'I' for Inactive)
REMARK    1  A    between atoms: C_2  and  C_13
REMARK    2  A    between atoms: N_3  and  C_4
REMARK    3  A    between atoms: C_19  and  O_20
REMARK                            x       y       z     vdW  Elec       q    Type
REMARK                         _______ _______ _______ _____ _____    ______ ____
ROOT
ATOM      1  O   UNL     1       1.724   5.880  20.744  0.00  0.00    +0.000 OA
ATOM      2  C   UNL     1       2.133   6.497  19.766  0.00  0.00    +0.000 C 
ATOM      3  N   UNL     1       1.986   7.854  19.552  0.00  0.00    +0.000 N 
ATOM      4  H   UNL     1       2.284   8.190  18.638  0.00  0.00    +0.000 HD
ENDROOT
BRANCH   3   5
ATOM      5  C   UNL     1       1.276   8.750  20.376  0.00  0.00    +0.000 A 
ATOM      6  C   UNL     1       1.244   8.650  21.770  0.00  0.00    +0.000 A 
ATOM      7  C   UNL     1       0.428   9.495  22.521  0.00  0.00    +0.000 A 
ATOM      8  F   UNL     1       0.406   9.342  23.854  0.00  0.00    +0.000 F 
ATOM      9  C   UNL     1      -0.353  10.462  21.903  0.00  0.00    +0.000 A 
ATOM     10 BR   UNL     1      -1.512  11.550  22.924  0.00  0.00    +0.000 Br
ATOM     11  C   UNL     1      -0.278  10.602  20.522  0.00  0.00    +0.000 A 
ATOM     12  F   UNL     1      -1.006  11.534  19.885  0.00  0.00    +0.000 F 
ATOM     13  C   UNL     1       0.537   9.763  19.759  0.00  0.00    +0.000 A 
ENDBRANCH   3   5
BRANCH   2  14
ATOM     14  C   UNL     1       2.825   5.714  18.703  0.00  0.00    +0.000 A 
ATOM     15  C   UNL     1       3.971   6.299  18.141  0.00  0.00    +0.000 A 
ATOM     16  C   UNL     1       4.725   5.605  17.201  0.00  0.00    +0.000 A 
ATOM     17 CL   UNL     1       6.129   6.331  16.526  0.00  0.00    +0.000 Cl
ATOM     18  C   UNL     1       4.352   4.321  16.812  0.00  0.00    +0.000 A 
ATOM     19  C   UNL     1       3.206   3.730  17.353  0.00  0.00    +0.000 A 
ATOM     20  C   UNL     1       2.441   4.429  18.293  0.00  0.00    +0.000 A 
BRANCH  20  21
ATOM     21  O   UNL     1       1.322   3.834  18.811  0.00  0.00    +0.000 OA
ATOM     22  H   UNL     1       1.334   2.887  18.578  0.00  0.00    +0.000 HD
ENDBRANCH  20  21
ENDBRANCH   2  14
TORSDOF 3
ENDMDL
MODEL 9
REMARK VINA RESULT:      -6.8      5.596      7.039
REMARK  Name = 
REMARK  3 active torsions:
REMARK  status: ('A' for Active; 'I' for Inactive)
REMARK    1  A    between atoms: C_2  and  C_13
REMARK    2  A    between atoms: N_3  and  C_4
REMARK    3  A    between atoms: C_19  and  O_20
REMARK                            x       y       z     vdW  Elec       q    Type
REMARK                         _______ _______ _______ _____ _____    ______ ____
ROOT
ATOM      1  O   UNL     1       1.372   5.684  20.615  0.00  0.00    +0.000 OA
ATOM      2  C   UNL     1       2.119   6.361  19.915  0.00  0.00    +0.000 C 
ATOM      3  N   UNL     1       2.120   7.741  19.839  0.00  0.00    +0.000 N 
ATOM      4  H   UNL     1       2.728   8.141  19.126  0.00  0.00    +0.000 HD
ENDROOT
BRANCH   3   5
ATOM      5  C   UNL     1       1.217   8.606  20.489  0.00  0.00    +0.000 A 
ATOM      6  C   UNL     1       0.415   9.528  19.810  0.00  0.00    +0.000 A 
ATOM      7  C   UNL     1      -0.371  10.436  20.518  0.00  0.00    +0.000 A 
ATOM      8  F   UNL     1      -1.102  11.324  19.825  0.00  0.00    +0.000 F 
ATOM      9  C   UNL     1      -0.387  10.432  21.906  0.00  0.00    +0.000 A 
ATOM     10 BR   UNL     1      -1.396  11.717  22.855  0.00  0.00    +0.000 Br
ATOM     11  C   UNL     1       0.365   9.477  22.581  0.00  0.00    +0.000 A 
ATOM     12  F   UNL     1       0.368   9.428  23.924  0.00  0.00    +0.000 F 
ATOM     13  C   UNL     1       1.155   8.561  21.884  0.00  0.00    +0.000 A 
ENDBRANCH   3   5
BRANCH   2  14
ATOM     14  C   UNL     1       3.092   5.634  19.051  0.00  0.00    +0.000 A 
ATOM     15  C   UNL     1       3.565   6.325  17.924  0.00  0.00    +0.000 A 
ATOM     16  C   UNL     1       4.536   5.755  17.107  0.00  0.00    +0.000 A 
ATOM     17 CL   UNL     1       5.110   6.614  15.734  0.00  0.00    +0.000 Cl
ATOM     18  C   UNL     1       5.051   4.496  17.403  0.00  0.00    +0.000 A 
ATOM     19  C   UNL     1       4.580   3.790  18.514  0.00  0.00    +0.000 A 
ATOM     20  C   UNL     1       3.598   4.357  19.334  0.00  0.00    +0.000 A 
BRANCH  20  21
ATOM     21  O   UNL     1       3.150   3.650  20.418  0.00  0.00    +0.000 OA
ATOM     22  H   UNL     1       2.181   3.742  20.474  0.00  0.00    +0.000 HD
ENDBRANCH  20  21
ENDBRANCH   2  14
TORSDOF 3
ENDMDL
