MODEL 1
REMARK VINA RESULT:      -8.6      0.000      0.000
REMARK  Name = 
REMARK  11 active torsions:
REMARK  status: ('A' for Active; 'I' for Inactive)
REMARK    1  A    between atoms: C_1  and  C_2
REMARK    2  A    between atoms: C_2  and  C_3
REMARK    3  A    between atoms: C_2  and  N_4
REMARK    4  A    between atoms: N_4  and  C_5
REMARK    5  A    between atoms: C_7  and  N_8
REMARK    6  A    between atoms: C_20  and  C_21
REMARK    7  A    between atoms: N_23  and  C_24
REMARK    8  A    between atoms: C_24  and  C_25
REMARK    9  A    between atoms: C_25  and  C_27
REMARK   10  A    between atoms: C_27  and  C_28
REMARK   11  A    between atoms: C_27  and  C_29
REMARK                            x       y       z     vdW  Elec       q    Type
REMARK                         _______ _______ _______ _____ _____    ______ ____
ROOT
ATOM      1  C   UNL     1       2.243   6.646  20.061  0.00  0.00    +0.000 A 
ATOM      2  C   UNL     1       1.500   7.485  20.895  0.00  0.00    +0.000 A 
ATOM      3  C   UNL     1       1.066   8.744  20.494  0.00  0.00    +0.000 A 
ATOM      4  N   UNL     1       1.299   9.212  19.247  0.00  0.00    +0.000 NA
ATOM      5  C   UNL     1       2.046   8.416  18.434  0.00  0.00    +0.000 A 
ATOM      6  C   UNL     1       2.529   7.150  18.781  0.00  0.00    +0.000 A 
ENDROOT
BRANCH   3   7
ATOM      7  N   UNL     1       0.391   9.583  21.426  0.00  0.00    +0.000 N 
ATOM      8  C   UNL     1       0.443   9.457  22.799  0.00  0.00    +0.000 A 
ATOM      9  N   UNL     1      -0.295  10.351  23.426  0.00  0.00    +0.000 NA
ATOM     10  C   UNL     1      -0.891  11.072  22.423  0.00  0.00    +0.000 A 
ATOM     11  C   UNL     1      -1.812  12.112  22.427  0.00  0.00    +0.000 A 
ATOM     12  N   UNL     1      -2.277  12.608  21.255  0.00  0.00    +0.000 NA
ATOM     13  C   UNL     1      -1.830  12.074  20.102  0.00  0.00    +0.000 A 
ATOM     14  N   UNL     1      -2.365  12.561  18.930  0.00  0.00    +0.000 N 
ATOM     15  N   UNL     1      -0.909  11.114  19.992  0.00  0.00    +0.000 NA
ATOM     16  C   UNL     1      -0.480  10.633  21.175  0.00  0.00    +0.000 A 
ATOM     17  H   UNL     1      -2.767  13.476  19.084  0.00  0.00    +0.000 HD
ATOM     18  H   UNL     1      -1.736  12.442  18.154  0.00  0.00    +0.000 HD
ENDBRANCH   3   7
BRANCH   6  19
ATOM     19  C   UNL     1       3.392   6.468  17.790  0.00  0.00    +0.000 C 
ATOM     20  O   UNL     1       3.147   5.312  17.457  0.00  0.00    +0.000 OA
ATOM     21  N   UNL     1       4.450   7.183  17.279  0.00  0.00    +0.000 N 
ATOM     22  H   UNL     1       4.664   8.095  17.676  0.00  0.00    +0.000 HD
BRANCH  21  23
ATOM     23  C   UNL     1       5.329   6.624  16.261  0.00  0.00    +0.000 C 
BRANCH  23  24
ATOM     24  C   UNL     1       6.699   6.195  16.808  0.00  0.00    +0.000 C 
ATOM     25  F   UNL     1       6.937   6.925  17.945  0.00  0.00    +0.000 F 
BRANCH  24  26
ATOM     26  C   UNL     1       6.750   4.694  17.166  0.00  0.00    +0.000 C 
ATOM     27  C   UNL     1       6.211   4.399  18.565  0.00  0.00    +0.000 C 
ATOM     28  C   UNL     1       6.008   3.843  16.134  0.00  0.00    +0.000 C 
ATOM     29  F   UNL     1       8.060   4.294  17.150  0.00  0.00    +0.000 F 
ENDBRANCH  24  26
ENDBRANCH  23  24
ENDBRANCH  21  23
ENDBRANCH   6  19
BRANCH   1  30
ATOM     30  N   UNL     1       2.578   5.344  20.463  0.00  0.00    +0.000 N 
ATOM     31  H   UNL     1       3.416   5.309  21.049  0.00  0.00    +0.000 HD
BRANCH  30  33
ATOM     32  C   UNL     1       0.987   3.724  19.572  0.00  0.00    +0.000 C 
ATOM     33  C   UNL     1       1.565   4.342  20.839  0.00  0.00    +0.000 C 
ATOM     34  C   UNL     1       2.164   3.260  21.736  0.00  0.00    +0.000 C 
ENDBRANCH  30  33
ENDBRANCH   1  30
TORSDOF 7
ENDMDL
MODEL 2
REMARK VINA RESULT:      -8.3      1.196      1.669
REMARK  Name = 
REMARK  11 active torsions:
REMARK  status: ('A' for Active; 'I' for Inactive)
REMARK    1  A    between atoms: C_1  and  C_2
REMARK    2  A    between atoms: C_2  and  C_3
REMARK    3  A    between atoms: C_2  and  N_4
REMARK    4  A    between atoms: N_4  and  C_5
REMARK    5  A    between atoms: C_7  and  N_8
REMARK    6  A    between atoms: C_20  and  C_21
REMARK    7  A    between atoms: N_23  and  C_24
REMARK    8  A    between atoms: C_24  and  C_25
REMARK    9  A    between atoms: C_25  and  C_27
REMARK   10  A    between atoms: C_27  and  C_28
REMARK   11  A    between atoms: C_27  and  C_29
REMARK                            x       y       z     vdW  Elec       q    Type
REMARK                         _______ _______ _______ _____ _____    ______ ____
ROOT
ATOM      1  C   UNL     1       2.314   6.133  20.186  0.00  0.00    +0.000 A 
ATOM      2  C   UNL     1       1.610   7.227  20.696  0.00  0.00    +0.000 A 
ATOM      3  C   UNL     1       1.442   8.408  19.981  0.00  0.00    +0.000 A 
ATOM      4  N   UNL     1       1.913   8.549  18.721  0.00  0.00    +0.000 NA
ATOM      5  C   UNL     1       2.625   7.502  18.223  0.00  0.00    +0.000 A 
ATOM      6  C   UNL     1       2.846   6.295  18.896  0.00  0.00    +0.000 A 
ENDROOT
BRANCH   3   7
ATOM      7  N   UNL     1       0.791   9.514  20.598  0.00  0.00    +0.000 N 
ATOM      8  C   UNL     1       0.769   9.776  21.952  0.00  0.00    +0.000 A 
ATOM      9  N   UNL     1       0.073  10.854  22.257  0.00  0.00    +0.000 NA
ATOM     10  C   UNL     1      -0.417  11.299  21.056  0.00  0.00    +0.000 A 
ATOM     11  C   UNL     1      -1.254  12.352  20.711  0.00  0.00    +0.000 A 
ATOM     12  N   UNL     1      -1.624  12.527  19.419  0.00  0.00    +0.000 NA
ATOM     13  C   UNL     1      -1.167  11.664  18.491  0.00  0.00    +0.000 A 
ATOM     14  N   UNL     1      -1.608  11.834  17.198  0.00  0.00    +0.000 N 
ATOM     15  N   UNL     1      -0.319  10.658  18.713  0.00  0.00    +0.000 NA
ATOM     16  C   UNL     1       0.016  10.503  20.009  0.00  0.00    +0.000 A 
ATOM     17  H   UNL     1      -1.945  12.779  17.066  0.00  0.00    +0.000 HD
ATOM     18  H   UNL     1      -0.955  11.464  16.528  0.00  0.00    +0.000 HD
ENDBRANCH   3   7
BRANCH   6  19
ATOM     19  C   UNL     1       3.714   5.303  18.222  0.00  0.00    +0.000 C 
ATOM     20  O   UNL     1       3.259   4.600  17.324  0.00  0.00    +0.000 OA
ATOM     21  N   UNL     1       5.021   5.219  18.645  0.00  0.00    +0.000 N 
ATOM     22  H   UNL     1       5.306   5.749  19.465  0.00  0.00    +0.000 HD
BRANCH  21  23
ATOM     23  C   UNL     1       5.971   4.313  18.015  0.00  0.00    +0.000 C 
BRANCH  23  24
ATOM     24  C   UNL     1       6.960   5.022  17.078  0.00  0.00    +0.000 C 
ATOM     25  F   UNL     1       8.164   4.374  17.182  0.00  0.00    +0.000 F 
BRANCH  24  26
ATOM     26  C   UNL     1       6.507   4.991  15.603  0.00  0.00    +0.000 C 
ATOM     27  C   UNL     1       5.910   3.645  15.196  0.00  0.00    +0.000 C 
ATOM     28  C   UNL     1       5.515   6.113  15.295  0.00  0.00    +0.000 C 
ATOM     29  F   UNL     1       7.606   5.196  14.812  0.00  0.00    +0.000 F 
ENDBRANCH  24  26
ENDBRANCH  23  24
ENDBRANCH  21  23
ENDBRANCH   6  19
BRANCH   1  30
ATOM     30  N   UNL     1       2.378   4.925  20.894  0.00  0.00    +0.000 N 
ATOM     31  H   UNL     1       2.875   5.008  21.785  0.00  0.00    +0.000 HD
BRANCH  30  33
ATOM     32  C   UNL     1       0.888   3.565  19.522  0.00  0.00    +0.000 C 
ATOM     33  C   UNL     1       1.256   3.970  20.944  0.00  0.00    +0.000 C 
ATOM     34  C   UNL     1       1.614   2.739  21.775  0.00  0.00    +0.000 C 
ENDBRANCH  30  33
ENDBRANCH   1  30
TORSDOF 7
ENDMDL
MODEL 3
REMARK VINA RESULT:      -8.2      1.054      1.390
REMARK  Name = 
REMARK  11 active torsions:
REMARK  status: ('A' for Active; 'I' for Inactive)
REMARK    1  A    between atoms: C_1  and  C_2
REMARK    2  A    between atoms: C_2  and  C_3
REMARK    3  A    between atoms: C_2  and  N_4
REMARK    4  A    between atoms: N_4  and  C_5
REMARK    5  A    between atoms: C_7  and  N_8
REMARK    6  A    between atoms: C_20  and  C_21
REMARK    7  A    between atoms: N_23  and  C_24
REMARK    8  A    between atoms: C_24  and  C_25
REMARK    9  A    between atoms: C_25  and  C_27
REMARK   10  A    between atoms: C_27  and  C_28
REMARK   11  A    between atoms: C_27  and  C_29
REMARK                            x       y       z     vdW  Elec       q    Type
REMARK                         _______ _______ _______ _____ _____    ______ ____
ROOT
ATOM      1  C   UNL     1       2.447   6.515  19.815  0.00  0.00    +0.000 A 
ATOM      2  C   UNL     1       1.748   7.505  20.509  0.00  0.00    +0.000 A 
ATOM      3  C   UNL     1       1.385   8.714  19.924  0.00  0.00    +0.000 A 
ATOM      4  N   UNL     1       1.648   8.982  18.625  0.00  0.00    +0.000 NA
ATOM      5  C   UNL     1       2.354   8.038  17.945  0.00  0.00    +0.000 A 
ATOM      6  C   UNL     1       2.765   6.812  18.478  0.00  0.00    +0.000 A 
ENDROOT
BRANCH   3   7
ATOM      7  N   UNL     1       0.753   9.714  20.716  0.00  0.00    +0.000 N 
ATOM      8  C   UNL     1       0.642   9.693  22.091  0.00  0.00    +0.000 A 
ATOM      9  N   UNL     1      -0.012  10.734  22.571  0.00  0.00    +0.000 NA
ATOM     10  C   UNL     1      -0.383  11.449  21.461  0.00  0.00    +0.000 A 
ATOM     11  C   UNL     1      -1.129  12.608  21.292  0.00  0.00    +0.000 A 
ATOM     12  N   UNL     1      -1.388  13.070  20.045  0.00  0.00    +0.000 NA
ATOM     13  C   UNL     1      -0.911  12.386  18.988  0.00  0.00    +0.000 A 
ATOM     14  N   UNL     1      -1.241  12.848  17.734  0.00  0.00    +0.000 N 
ATOM     15  N   UNL     1      -0.141  11.297  19.047  0.00  0.00    +0.000 NA
ATOM     16  C   UNL     1       0.083  10.856  20.300  0.00  0.00    +0.000 A 
ATOM     17  H   UNL     1      -1.512  13.822  17.781  0.00  0.00    +0.000 HD
ATOM     18  H   UNL     1      -0.561  12.577  17.044  0.00  0.00    +0.000 HD
ENDBRANCH   3   7
BRANCH   6  19
ATOM     19  C   UNL     1       3.594   5.947  17.607  0.00  0.00    +0.000 C 
ATOM     20  O   UNL     1       3.245   4.793  17.380  0.00  0.00    +0.000 OA
ATOM     21  N   UNL     1       4.740   6.497  17.082  0.00  0.00    +0.000 N 
ATOM     22  H   UNL     1       5.030   7.420  17.396  0.00  0.00    +0.000 HD
BRANCH  21  23
ATOM     23  C   UNL     1       5.598   5.751  16.173  0.00  0.00    +0.000 C 
BRANCH  23  24
ATOM     24  C   UNL     1       6.515   4.747  16.887  0.00  0.00    +0.000 C 
ATOM     25  F   UNL     1       7.411   4.275  15.962  0.00  0.00    +0.000 F 
BRANCH  24  26
ATOM     26  C   UNL     1       7.299   5.385  18.054  0.00  0.00    +0.000 C 
ATOM     27  C   UNL     1       7.741   6.817  17.756  0.00  0.00    +0.000 C 
ATOM     28  C   UNL     1       6.499   5.350  19.356  0.00  0.00    +0.000 C 
ATOM     29  F   UNL     1       8.436   4.650  18.260  0.00  0.00    +0.000 F 
ENDBRANCH  24  26
ENDBRANCH  23  24
ENDBRANCH  21  23
ENDBRANCH   6  19
BRANCH   1  30
ATOM     30  N   UNL     1       2.709   5.271  20.406  0.00  0.00    +0.000 N 
ATOM     31  H   UNL     1       3.538   5.278  21.006  0.00  0.00    +0.000 HD
BRANCH  30  33
ATOM     32  C   UNL     1       0.850   3.850  19.717  0.00  0.00    +0.000 C 
ATOM     33  C   UNL     1       1.642   4.385  20.903  0.00  0.00    +0.000 C 
ATOM     34  C   UNL     1       2.217   3.233  21.725  0.00  0.00    +0.000 C 
ENDBRANCH  30  33
ENDBRANCH   1  30
TORSDOF 7
ENDMDL
MODEL 4
REMARK VINA RESULT:      -8.2      0.788      1.054
REMARK  Name = 
REMARK  11 active torsions:
REMARK  status: ('A' for Active; 'I' for Inactive)
REMARK    1  A    between atoms: C_1  and  C_2
REMARK    2  A    between atoms: C_2  and  C_3
REMARK    3  A    between atoms: C_2  and  N_4
REMARK    4  A    between atoms: N_4  and  C_5
REMARK    5  A    between atoms: C_7  and  N_8
REMARK    6  A    between atoms: C_20  and  C_21
REMARK    7  A    between atoms: N_23  and  C_24
REMARK    8  A    between atoms: C_24  and  C_25
REMARK    9  A    between atoms: C_25  and  C_27
REMARK   10  A    between atoms: C_27  and  C_28
REMARK   11  A    between atoms: C_27  and  C_29
REMARK                            x       y       z     vdW  Elec       q    Type
REMARK                         _______ _______ _______ _____ _____    ______ ____
ROOT
ATOM      1  C   UNL     1       2.185   6.659  20.137  0.00  0.00    +0.000 A 
ATOM      2  C   UNL     1       1.432   7.507  20.952  0.00  0.00    +0.000 A 
ATOM      3  C   UNL     1       1.008   8.764  20.533  0.00  0.00    +0.000 A 
ATOM      4  N   UNL     1       1.262   9.221  19.286  0.00  0.00    +0.000 NA
ATOM      5  C   UNL     1       2.019   8.416  18.492  0.00  0.00    +0.000 A 
ATOM      6  C   UNL     1       2.492   7.151  18.857  0.00  0.00    +0.000 A 
ENDROOT
BRANCH   3   7
ATOM      7  N   UNL     1       0.321   9.613  21.448  0.00  0.00    +0.000 N 
ATOM      8  C   UNL     1       0.367   9.509  22.823  0.00  0.00    +0.000 A 
ATOM      9  N   UNL     1      -0.383  10.408  23.431  0.00  0.00    +0.000 NA
ATOM     10  C   UNL     1      -0.978  11.107  22.413  0.00  0.00    +0.000 A 
ATOM     11  C   UNL     1      -1.908  12.139  22.394  0.00  0.00    +0.000 A 
ATOM     12  N   UNL     1      -2.371  12.612  21.212  0.00  0.00    +0.000 NA
ATOM     13  C   UNL     1      -1.913  12.063  20.071  0.00  0.00    +0.000 A 
ATOM     14  N   UNL     1      -2.446  12.525  18.888  0.00  0.00    +0.000 N 
ATOM     15  N   UNL     1      -0.984  11.109  19.982  0.00  0.00    +0.000 NA
ATOM     16  C   UNL     1      -0.558  10.651  21.175  0.00  0.00    +0.000 A 
ATOM     17  H   UNL     1      -2.857  13.440  19.025  0.00  0.00    +0.000 HD
ATOM     18  H   UNL     1      -1.812  12.399  18.117  0.00  0.00    +0.000 HD
ENDBRANCH   3   7
BRANCH   6  19
ATOM     19  C   UNL     1       3.369   6.459  17.886  0.00  0.00    +0.000 C 
ATOM     20  O   UNL     1       3.101   5.317  17.524  0.00  0.00    +0.000 OA
ATOM     21  N   UNL     1       4.466   7.149  17.424  0.00  0.00    +0.000 N 
ATOM     22  H   UNL     1       4.694   8.047  17.844  0.00  0.00    +0.000 HD
BRANCH  21  23
ATOM     23  C   UNL     1       5.363   6.579  16.428  0.00  0.00    +0.000 C 
BRANCH  23  24
ATOM     24  C   UNL     1       6.842   6.636  16.838  0.00  0.00    +0.000 C 
ATOM     25  F   UNL     1       7.100   7.908  17.280  0.00  0.00    +0.000 F 
BRANCH  24  26
ATOM     26  C   UNL     1       7.184   5.641  17.967  0.00  0.00    +0.000 C 
ATOM     27  C   UNL     1       7.832   4.357  17.451  0.00  0.00    +0.000 C 
ATOM     28  C   UNL     1       8.077   6.281  19.031  0.00  0.00    +0.000 C 
ATOM     29  F   UNL     1       6.018   5.278  18.587  0.00  0.00    +0.000 F 
ENDBRANCH  24  26
ENDBRANCH  23  24
ENDBRANCH  21  23
ENDBRANCH   6  19
BRANCH   1  30
ATOM     30  N   UNL     1       2.510   5.360  20.555  0.00  0.00    +0.000 N 
ATOM     31  H   UNL     1       3.318   5.331  21.182  0.00  0.00    +0.000 HD
BRANCH  30  33
ATOM     32  C   UNL     1       0.975   3.731  19.585  0.00  0.00    +0.000 C 
ATOM     33  C   UNL     1       1.489   4.349  20.880  0.00  0.00    +0.000 C 
ATOM     34  C   UNL     1       2.052   3.269  21.801  0.00  0.00    +0.000 C 
ENDBRANCH  30  33
ENDBRANCH   1  30
TORSDOF 7
ENDMDL
MODEL 5
REMARK VINA RESULT:      -8.1      1.476      1.779
REMARK  Name = 
REMARK  11 active torsions:
REMARK  status: ('A' for Active; 'I' for Inactive)
REMARK    1  A    between atoms: C_1  and  C_2
REMARK    2  A    between atoms: C_2  and  C_3
REMARK    3  A    between atoms: C_2  and  N_4
REMARK    4  A    between atoms: N_4  and  C_5
REMARK    5  A    between atoms: C_7  and  N_8
REMARK    6  A    between atoms: C_20  and  C_21
REMARK    7  A    between atoms: N_23  and  C_24
REMARK    8  A    between atoms: C_24  and  C_25
REMARK    9  A    between atoms: C_25  and  C_27
REMARK   10  A    between atoms: C_27  and  C_28
REMARK   11  A    between atoms: C_27  and  C_29
REMARK                            x       y       z     vdW  Elec       q    Type
REMARK                         _______ _______ _______ _____ _____    ______ ____
ROOT
ATOM      1  C   UNL     1       2.406   6.327  20.024  0.00  0.00    +0.000 A 
ATOM      2  C   UNL     1       1.704   7.346  20.674  0.00  0.00    +0.000 A 
ATOM      3  C   UNL     1       1.398   8.554  20.055  0.00  0.00    +0.000 A 
ATOM      4  N   UNL     1       1.722   8.794  18.765  0.00  0.00    +0.000 NA
ATOM      5  C   UNL     1       2.430   7.821  18.130  0.00  0.00    +0.000 A 
ATOM      6  C   UNL     1       2.787   6.593  18.698  0.00  0.00    +0.000 A 
ENDROOT
BRANCH   3   7
ATOM      7  N   UNL     1       0.759   9.583  20.805  0.00  0.00    +0.000 N 
ATOM      8  C   UNL     1       0.658   9.624  22.180  0.00  0.00    +0.000 A 
ATOM      9  N   UNL     1      -0.005  10.678  22.616  0.00  0.00    +0.000 NA
ATOM     10  C   UNL     1      -0.391  11.337  21.477  0.00  0.00    +0.000 A 
ATOM     11  C   UNL     1      -1.152  12.479  21.260  0.00  0.00    +0.000 A 
ATOM     12  N   UNL     1      -1.425  12.880  19.995  0.00  0.00    +0.000 NA
ATOM     13  C   UNL     1      -0.947  12.152  18.967  0.00  0.00    +0.000 A 
ATOM     14  N   UNL     1      -1.290  12.552  17.695  0.00  0.00    +0.000 N 
ATOM     15  N   UNL     1      -0.164  11.076  19.071  0.00  0.00    +0.000 NA
ATOM     16  C   UNL     1       0.073  10.696  20.342  0.00  0.00    +0.000 A 
ATOM     17  H   UNL     1      -1.572  13.524  17.700  0.00  0.00    +0.000 HD
ATOM     18  H   UNL     1      -0.611  12.257  17.014  0.00  0.00    +0.000 HD
ENDBRANCH   3   7
BRANCH   6  19
ATOM     19  C   UNL     1       3.628   5.695  17.876  0.00  0.00    +0.000 C 
ATOM     20  O   UNL     1       3.196   4.600  17.528  0.00  0.00    +0.000 OA
ATOM     21  N   UNL     1       4.883   6.144  17.534  0.00  0.00    +0.000 N 
ATOM     22  H   UNL     1       5.223   7.011  17.946  0.00  0.00    +0.000 HD
BRANCH  21  23
ATOM     23  C   UNL     1       5.770   5.361  16.687  0.00  0.00    +0.000 C 
BRANCH  23  24
ATOM     24  C   UNL     1       5.259   5.208  15.246  0.00  0.00    +0.000 C 
ATOM     25  F   UNL     1       5.169   6.465  14.704  0.00  0.00    +0.000 F 
BRANCH  24  26
ATOM     26  C   UNL     1       6.202   4.358  14.369  0.00  0.00    +0.000 C 
ATOM     27  C   UNL     1       5.503   3.770  13.144  0.00  0.00    +0.000 C 
ATOM     28  C   UNL     1       7.433   5.153  13.931  0.00  0.00    +0.000 C 
ATOM     29  F   UNL     1       6.651   3.303  15.118  0.00  0.00    +0.000 F 
ENDBRANCH  24  26
ENDBRANCH  23  24
ENDBRANCH  21  23
ENDBRANCH   6  19
BRANCH   1  30
ATOM     30  N   UNL     1       2.610   5.086  20.645  0.00  0.00    +0.000 N 
ATOM     31  H   UNL     1       3.341   5.111  21.360  0.00  0.00    +0.000 HD
BRANCH  30  33
ATOM     32  C   UNL     1       0.869   3.672  19.687  0.00  0.00    +0.000 C 
ATOM     33  C   UNL     1       1.505   4.171  20.978  0.00  0.00    +0.000 C 
ATOM     34  C   UNL     1       1.995   2.995  21.822  0.00  0.00    +0.000 C 
ENDBRANCH  30  33
ENDBRANCH   1  30
TORSDOF 7
ENDMDL
MODEL 6
REMARK VINA RESULT:      -8.1      1.734      2.396
REMARK  Name = 
REMARK  11 active torsions:
REMARK  status: ('A' for Active; 'I' for Inactive)
REMARK    1  A    between atoms: C_1  and  C_2
REMARK    2  A    between atoms: C_2  and  C_3
REMARK    3  A    between atoms: C_2  and  N_4
REMARK    4  A    between atoms: N_4  and  C_5
REMARK    5  A    between atoms: C_7  and  N_8
REMARK    6  A    between atoms: C_20  and  C_21
REMARK    7  A    between atoms: N_23  and  C_24
REMARK    8  A    between atoms: C_24  and  C_25
REMARK    9  A    between atoms: C_25  and  C_27
REMARK   10  A    between atoms: C_27  and  C_28
REMARK   11  A    between atoms: C_27  and  C_29
REMARK                            x       y       z     vdW  Elec       q    Type
REMARK                         _______ _______ _______ _____ _____    ______ ____
ROOT
ATOM      1  C   UNL     1       2.330   6.543  20.160  0.00  0.00    +0.000 A 
ATOM      2  C   UNL     1       1.496   7.652  20.327  0.00  0.00    +0.000 A 
ATOM      3  C   UNL     1       1.422   8.680  19.393  0.00  0.00    +0.000 A 
ATOM      4  N   UNL     1       2.123   8.641  18.237  0.00  0.00    +0.000 NA
ATOM      5  C   UNL     1       2.961   7.581  18.075  0.00  0.00    +0.000 A 
ATOM      6  C   UNL     1       3.097   6.525  18.982  0.00  0.00    +0.000 A 
ENDROOT
BRANCH   3   7
ATOM      7  N   UNL     1       0.619   9.822  19.670  0.00  0.00    +0.000 N 
ATOM      8  C   UNL     1       0.704  10.603  20.804  0.00  0.00    +0.000 A 
ATOM      9  N   UNL     1      -0.174  11.587  20.818  0.00  0.00    +0.000 NA
ATOM     10  C   UNL     1      -0.895  11.423  19.663  0.00  0.00    +0.000 A 
ATOM     11  C   UNL     1      -1.983  12.098  19.126  0.00  0.00    +0.000 A 
ATOM     12  N   UNL     1      -2.538  11.673  17.965  0.00  0.00    +0.000 NA
ATOM     13  C   UNL     1      -2.014  10.593  17.354  0.00  0.00    +0.000 A 
ATOM     14  N   UNL     1      -2.636  10.151  16.207  0.00  0.00    +0.000 N 
ATOM     15  N   UNL     1      -0.940   9.911  17.760  0.00  0.00    +0.000 NA
ATOM     16  C   UNL     1      -0.425  10.350  18.924  0.00  0.00    +0.000 A 
ATOM     17  H   UNL     1      -3.191  10.894  15.803  0.00  0.00    +0.000 HD
ATOM     18  H   UNL     1      -2.003   9.650  15.607  0.00  0.00    +0.000 HD
ENDBRANCH   3   7
BRANCH   6  19
ATOM     19  C   UNL     1       4.119   5.501  18.670  0.00  0.00    +0.000 C 
ATOM     20  O   UNL     1       5.084   5.351  19.414  0.00  0.00    +0.000 OA
ATOM     21  N   UNL     1       3.930   4.748  17.534  0.00  0.00    +0.000 N 
ATOM     22  H   UNL     1       3.171   4.995  16.902  0.00  0.00    +0.000 HD
BRANCH  21  23
ATOM     23  C   UNL     1       4.848   3.681  17.163  0.00  0.00    +0.000 C 
BRANCH  23  24
ATOM     24  C   UNL     1       5.649   3.981  15.887  0.00  0.00    +0.000 C 
ATOM     25  F   UNL     1       4.809   4.626  15.015  0.00  0.00    +0.000 F 
BRANCH  24  26
ATOM     26  C   UNL     1       6.872   4.884  16.153  0.00  0.00    +0.000 C 
ATOM     27  C   UNL     1       6.507   6.365  16.245  0.00  0.00    +0.000 C 
ATOM     28  C   UNL     1       7.624   4.456  17.414  0.00  0.00    +0.000 C 
ATOM     29  F   UNL     1       7.741   4.750  15.103  0.00  0.00    +0.000 F 
ENDBRANCH  24  26
ENDBRANCH  23  24
ENDBRANCH  21  23
ENDBRANCH   6  19
BRANCH   1  30
ATOM     30  N   UNL     1       2.305   5.480  21.073  0.00  0.00    +0.000 N 
ATOM     31  H   UNL     1       1.842   5.718  21.954  0.00  0.00    +0.000 HD
BRANCH  30  33
ATOM     32  C   UNL     1       2.203   3.181  21.885  0.00  0.00    +0.000 C 
ATOM     33  C   UNL     1       2.083   4.082  20.662  0.00  0.00    +0.000 C 
ATOM     34  C   UNL     1       0.715   3.910  20.004  0.00  0.00    +0.000 C 
ENDBRANCH  30  33
ENDBRANCH   1  30
TORSDOF 7
ENDMDL
MODEL 7
REMARK VINA RESULT:      -8.0      1.575      1.951
REMARK  Name = 
REMARK  11 active torsions:
REMARK  status: ('A' for Active; 'I' for Inactive)
REMARK    1  A    between atoms: C_1  and  C_2
REMARK    2  A    between atoms: C_2  and  C_3
REMARK    3  A    between atoms: C_2  and  N_4
REMARK    4  A    between atoms: N_4  and  C_5
REMARK    5  A    between atoms: C_7  and  N_8
REMARK    6  A    between atoms: C_20  and  C_21
REMARK    7  A    between atoms: N_23  and  C_24
REMARK    8  A    between atoms: C_24  and  C_25
REMARK    9  A    between atoms: C_25  and  C_27
REMARK   10  A    between atoms: C_27  and  C_28
REMARK   11  A    between atoms: C_27  and  C_29
REMARK                            x       y       z     vdW  Elec       q    Type
REMARK                         _______ _______ _______ _____ _____    ______ ____
ROOT
ATOM      1  C   UNL     1       2.391   5.858  20.271  0.00  0.00    +0.000 A 
ATOM      2  C   UNL     1       1.644   6.963  20.686  0.00  0.00    +0.000 A 
ATOM      3  C   UNL     1       1.603   8.151  19.964  0.00  0.00    +0.000 A 
ATOM      4  N   UNL     1       2.250   8.289  18.784  0.00  0.00    +0.000 NA
ATOM      5  C   UNL     1       3.004   7.229  18.384  0.00  0.00    +0.000 A 
ATOM      6  C   UNL     1       3.104   6.015  19.071  0.00  0.00    +0.000 A 
ENDROOT
BRANCH   3   7
ATOM      7  N   UNL     1       0.893   9.267  20.491  0.00  0.00    +0.000 N 
ATOM      8  C   UNL     1       0.909   9.675  21.809  0.00  0.00    +0.000 A 
ATOM      9  N   UNL     1       0.143  10.726  22.032  0.00  0.00    +0.000 NA
ATOM     10  C   UNL     1      -0.432  10.997  20.817  0.00  0.00    +0.000 A 
ATOM     11  C   UNL     1      -1.365  11.940  20.405  0.00  0.00    +0.000 A 
ATOM     12  N   UNL     1      -1.804  11.942  19.123  0.00  0.00    +0.000 NA
ATOM     13  C   UNL     1      -1.319  11.019  18.270  0.00  0.00    +0.000 A 
ATOM     14  N   UNL     1      -1.828  11.011  16.991  0.00  0.00    +0.000 N 
ATOM     15  N   UNL     1      -0.385  10.109  18.555  0.00  0.00    +0.000 NA
ATOM     16  C   UNL     1       0.016  10.124  19.841  0.00  0.00    +0.000 A 
ATOM     17  H   UNL     1      -2.245  11.907  16.776  0.00  0.00    +0.000 HD
ATOM     18  H   UNL     1      -1.177  10.618  16.332  0.00  0.00    +0.000 HD
ENDBRANCH   3   7
BRANCH   6  19
ATOM     19  C   UNL     1       4.039   5.009  18.519  0.00  0.00    +0.000 C 
ATOM     20  O   UNL     1       4.836   4.441  19.260  0.00  0.00    +0.000 OA
ATOM     21  N   UNL     1       3.964   4.753  17.169  0.00  0.00    +0.000 N 
ATOM     22  H   UNL     1       3.361   5.334  16.592  0.00  0.00    +0.000 HD
BRANCH  21  23
ATOM     23  C   UNL     1       4.802   3.745  16.535  0.00  0.00    +0.000 C 
BRANCH  23  24
ATOM     24  C   UNL     1       5.715   4.313  15.438  0.00  0.00    +0.000 C 
ATOM     25  F   UNL     1       4.944   5.115  14.634  0.00  0.00    +0.000 F 
BRANCH  24  26
ATOM     26  C   UNL     1       6.875   5.156  16.009  0.00  0.00    +0.000 C 
ATOM     27  C   UNL     1       6.441   6.564  16.413  0.00  0.00    +0.000 C 
ATOM     28  C   UNL     1       7.545   4.461  17.195  0.00  0.00    +0.000 C 
ATOM     29  F   UNL     1       7.826   5.294  15.035  0.00  0.00    +0.000 F 
ENDBRANCH  24  26
ENDBRANCH  23  24
ENDBRANCH  21  23
ENDBRANCH   6  19
BRANCH   1  30
ATOM     30  N   UNL     1       2.331   4.644  20.972  0.00  0.00    +0.000 N 
ATOM     31  H   UNL     1       2.714   4.708  21.918  0.00  0.00    +0.000 HD
BRANCH  30  33
ATOM     32  C   UNL     1       1.021   3.292  19.420  0.00  0.00    +0.000 C 
ATOM     33  C   UNL     1       1.184   3.724  20.872  0.00  0.00    +0.000 C 
ATOM     34  C   UNL     1       1.373   2.506  21.774  0.00  0.00    +0.000 C 
ENDBRANCH  30  33
ENDBRANCH   1  30
TORSDOF 7
ENDMDL
MODEL 8
REMARK VINA RESULT:      -7.9      1.711      2.868
REMARK  Name = 
REMARK  11 active torsions:
REMARK  status: ('A' for Active; 'I' for Inactive)
REMARK    1  A    between atoms: C_1  and  C_2
REMARK    2  A    between atoms: C_2  and  C_3
REMARK    3  A    between atoms: C_2  and  N_4
REMARK    4  A    between atoms: N_4  and  C_5
REMARK    5  A    between atoms: C_7  and  N_8
REMARK    6  A    between atoms: C_20  and  C_21
REMARK    7  A    between atoms: N_23  and  C_24
REMARK    8  A    between atoms: C_24  and  C_25
REMARK    9  A    between atoms: C_25  and  C_27
REMARK   10  A    between atoms: C_27  and  C_28
REMARK   11  A    between atoms: C_27  and  C_29
REMARK                            x       y       z     vdW  Elec       q    Type
REMARK                         _______ _______ _______ _____ _____    ______ ____
ROOT
ATOM      1  C   UNL     1       2.828   6.247  19.714  0.00  0.00    +0.000 A 
ATOM      2  C   UNL     1       1.960   7.330  19.873  0.00  0.00    +0.000 A 
ATOM      3  C   UNL     1       1.909   8.386  18.968  0.00  0.00    +0.000 A 
ATOM      4  N   UNL     1       2.667   8.399  17.849  0.00  0.00    +0.000 NA
ATOM      5  C   UNL     1       3.536   7.363  17.696  0.00  0.00    +0.000 A 
ATOM      6  C   UNL     1       3.652   6.282  18.577  0.00  0.00    +0.000 A 
ENDROOT
BRANCH   3   7
ATOM      7  N   UNL     1       1.066   9.501  19.240  0.00  0.00    +0.000 N 
ATOM      8  C   UNL     1       0.770  10.514  18.352  0.00  0.00    +0.000 A 
ATOM      9  N   UNL     1      -0.018  11.437  18.868  0.00  0.00    +0.000 NA
ATOM     10  C   UNL     1      -0.216  11.036  20.164  0.00  0.00    +0.000 A 
ATOM     11  C   UNL     1      -0.904  11.599  21.232  0.00  0.00    +0.000 A 
ATOM     12  N   UNL     1      -0.885  10.993  22.444  0.00  0.00    +0.000 NA
ATOM     13  C   UNL     1      -0.191   9.847  22.585  0.00  0.00    +0.000 A 
ATOM     14  N   UNL     1      -0.144   9.288  23.842  0.00  0.00    +0.000 N 
ATOM     15  N   UNL     1       0.454   9.201  21.611  0.00  0.00    +0.000 NA
ATOM     16  C   UNL     1       0.429   9.839  20.425  0.00  0.00    +0.000 A 
ATOM     17  H   UNL     1      -0.909   9.632  24.406  0.00  0.00    +0.000 HD
ATOM     18  H   UNL     1       0.010   8.294  23.804  0.00  0.00    +0.000 HD
ENDBRANCH   3   7
BRANCH   6  19
ATOM     19  C   UNL     1       4.712   5.292  18.284  0.00  0.00    +0.000 C 
ATOM     20  O   UNL     1       4.787   4.260  18.946  0.00  0.00    +0.000 OA
ATOM     21  N   UNL     1       5.581   5.583  17.258  0.00  0.00    +0.000 N 
ATOM     22  H   UNL     1       5.535   6.501  16.822  0.00  0.00    +0.000 HD
BRANCH  21  23
ATOM     23  C   UNL     1       6.627   4.653  16.856  0.00  0.00    +0.000 C 
BRANCH  23  24
ATOM     24  C   UNL     1       6.220   3.749  15.683  0.00  0.00    +0.000 C 
ATOM     25  F   UNL     1       4.957   3.281  15.941  0.00  0.00    +0.000 F 
BRANCH  24  26
ATOM     26  C   UNL     1       6.203   4.498  14.334  0.00  0.00    +0.000 C 
ATOM     27  C   UNL     1       7.497   5.265  14.066  0.00  0.00    +0.000 C 
ATOM     28  C   UNL     1       5.910   3.553  13.168  0.00  0.00    +0.000 C 
ATOM     29  F   UNL     1       5.191   5.420  14.368  0.00  0.00    +0.000 F 
ENDBRANCH  24  26
ENDBRANCH  23  24
ENDBRANCH  21  23
ENDBRANCH   6  19
BRANCH   1  30
ATOM     30  N   UNL     1       2.782   5.154  20.592  0.00  0.00    +0.000 N 
ATOM     31  H   UNL     1       3.259   5.333  21.480  0.00  0.00    +0.000 HD
BRANCH  30  33
ATOM     32  C   UNL     1       1.197   3.765  19.364  0.00  0.00    +0.000 C 
ATOM     33  C   UNL     1       1.592   4.297  20.736  0.00  0.00    +0.000 C 
ATOM     34  C   UNL     1       1.855   3.143  21.702  0.00  0.00    +0.000 C 
ENDBRANCH  30  33
ENDBRANCH   1  30
TORSDOF 7
ENDMDL
MODEL 9
REMARK VINA RESULT:      -7.8      2.085      2.674
REMARK  Name = 
REMARK  11 active torsions:
REMARK  status: ('A' for Active; 'I' for Inactive)
REMARK    1  A    between atoms: C_1  and  C_2
REMARK    2  A    between atoms: C_2  and  C_3
REMARK    3  A    between atoms: C_2  and  N_4
REMARK    4  A    between atoms: N_4  and  C_5
REMARK    5  A    between atoms: C_7  and  N_8
REMARK    6  A    between atoms: C_20  and  C_21
REMARK    7  A    between atoms: N_23  and  C_24
REMARK    8  A    between atoms: C_24  and  C_25
REMARK    9  A    between atoms: C_25  and  C_27
REMARK   10  A    between atoms: C_27  and  C_28
REMARK   11  A    between atoms: C_27  and  C_29
REMARK                            x       y       z     vdW  Elec       q    Type
REMARK                         _______ _______ _______ _____ _____    ______ ____
ROOT
ATOM      1  C   UNL     1       2.701   5.350  19.410  0.00  0.00    +0.000 A 
ATOM      2  C   UNL     1       2.002   6.398  20.014  0.00  0.00    +0.000 A 
ATOM      3  C   UNL     1       2.046   7.702  19.531  0.00  0.00    +0.000 A 
ATOM      4  N   UNL     1       2.734   8.022  18.412  0.00  0.00    +0.000 NA
ATOM      5  C   UNL     1       3.442   7.016  17.830  0.00  0.00    +0.000 A 
ATOM      6  C   UNL     1       3.457   5.690  18.275  0.00  0.00    +0.000 A 
ENDROOT
BRANCH   3   7
ATOM      7  N   UNL     1       1.382   8.737  20.248  0.00  0.00    +0.000 N 
ATOM      8  C   UNL     1       1.466   8.948  21.608  0.00  0.00    +0.000 A 
ATOM      9  N   UNL     1       0.731   9.964  22.018  0.00  0.00    +0.000 NA
ATOM     10  C   UNL     1       0.105  10.416  20.885  0.00  0.00    +0.000 A 
ATOM     11  C   UNL     1      -0.828  11.420  20.658  0.00  0.00    +0.000 A 
ATOM     12  N   UNL     1      -1.324  11.614  19.413  0.00  0.00    +0.000 NA
ATOM     13  C   UNL     1      -0.897  10.819  18.413  0.00  0.00    +0.000 A 
ATOM     14  N   UNL     1      -1.463  11.004  17.172  0.00  0.00    +0.000 N 
ATOM     15  N   UNL     1       0.033   9.867  18.518  0.00  0.00    +0.000 NA
ATOM     16  C   UNL     1       0.493   9.690  19.771  0.00  0.00    +0.000 A 
ATOM     17  H   UNL     1      -1.873  11.927  17.109  0.00  0.00    +0.000 HD
ATOM     18  H   UNL     1      -0.850  10.704  16.432  0.00  0.00    +0.000 HD
ENDBRANCH   3   7
BRANCH   6  19
ATOM     19  C   UNL     1       4.352   4.753  17.559  0.00  0.00    +0.000 C 
ATOM     20  O   UNL     1       4.865   3.814  18.161  0.00  0.00    +0.000 OA
ATOM     21  N   UNL     1       4.568   4.988  16.221  0.00  0.00    +0.000 N 
ATOM     22  H   UNL     1       4.205   5.843  15.807  0.00  0.00    +0.000 HD
BRANCH  21  23
ATOM     23  C   UNL     1       5.390   4.098  15.412  0.00  0.00    +0.000 C 
BRANCH  23  24
ATOM     24  C   UNL     1       5.979   4.777  14.166  0.00  0.00    +0.000 C 
ATOM     25  F   UNL     1       7.230   5.232  14.496  0.00  0.00    +0.000 F 
BRANCH  24  26
ATOM     26  C   UNL     1       6.105   3.811  12.969  0.00  0.00    +0.000 C 
ATOM     27  C   UNL     1       4.798   3.657  12.192  0.00  0.00    +0.000 C 
ATOM     28  C   UNL     1       7.225   4.235  12.018  0.00  0.00    +0.000 C 
ATOM     29  F   UNL     1       6.433   2.571  13.449  0.00  0.00    +0.000 F 
ENDBRANCH  24  26
ENDBRANCH  23  24
ENDBRANCH  21  23
ENDBRANCH   6  19
BRANCH   1  30
ATOM     30  N   UNL     1       2.555   4.031  19.865  0.00  0.00    +0.000 N 
ATOM     31  H   UNL     1       3.332   3.722  20.455  0.00  0.00    +0.000 HD
BRANCH  30  33
ATOM     32  C   UNL     1       0.767   2.510  19.200  0.00  0.00    +0.000 C 
ATOM     33  C   UNL     1       1.257   3.470  20.278  0.00  0.00    +0.000 C 
ATOM     34  C   UNL     1       1.365   2.754  21.623  0.00  0.00    +0.000 C 
ENDBRANCH  30  33
ENDBRANCH   1  30
TORSDOF 7
ENDMDL
