MODEL 1
REMARK VINA RESULT:      -7.5      0.000      0.000
REMARK  Name = 
REMARK  3 active torsions:
REMARK  status: ('A' for Active; 'I' for Inactive)
REMARK    1  A    between atoms: C_2  and  C_3
REMARK    2  A    between atoms: C_7  and  C_8
REMARK    3  A    between atoms: C_8  and  N_9
REMARK                            x       y       z     vdW  Elec       q    Type
REMARK                         _______ _______ _______ _____ _____    ______ ____
ROOT
ATOM      1  N   UNL     1       3.907   3.863  17.662  0.00  0.00    +0.000 N 
ATOM      2  C   UNL     1       3.838   2.504  17.820  0.00  0.00    +0.000 A 
ATOM      3  N   UNL     1       3.119   2.167  18.869  0.00  0.00    +0.000 NA
ATOM      4  C   UNL     1       2.694   3.360  19.412  0.00  0.00    +0.000 A 
ATOM      5  C   UNL     1       1.939   3.720  20.520  0.00  0.00    +0.000 A 
ATOM      6 CL   UNL     1       1.372   2.505  21.558  0.00  0.00    +0.000 Cl
ATOM      7  N   UNL     1       1.673   5.002  20.823  0.00  0.00    +0.000 NA
ATOM      8  C   UNL     1       2.184   5.917  19.987  0.00  0.00    +0.000 A 
ATOM      9 CL   UNL     1       1.837   7.547  20.373  0.00  0.00    +0.000 Cl
ATOM     10  N   UNL     1       2.944   5.736  18.886  0.00  0.00    +0.000 NA
ATOM     11  C   UNL     1       3.160   4.430  18.658  0.00  0.00    +0.000 A 
ENDROOT
BRANCH   1  12
ATOM     12  C   UNL     1       4.735   4.566  16.701  0.00  0.00    +0.000 C 
BRANCH  12  17
ATOM     13  C   UNL     1       7.202   7.302  17.723  0.00  0.00    +0.000 A 
ATOM     14  C   UNL     1       8.053   6.585  18.574  0.00  0.00    +0.000 A 
ATOM     15  C   UNL     1       7.835   5.228  18.814  0.00  0.00    +0.000 A 
ATOM     16  C   UNL     1       6.763   4.573  18.209  0.00  0.00    +0.000 A 
ATOM     17  C   UNL     1       5.888   5.274  17.366  0.00  0.00    +0.000 A 
ATOM     18  C   UNL     1       6.112   6.640  17.137  0.00  0.00    +0.000 A 
BRANCH  13  20
ATOM     19 CL   UNL     1       8.692   9.402  18.543  0.00  0.00    +0.000 Cl
ATOM     20  C   UNL     1       7.451   8.760  17.450  0.00  0.00    +0.000 C 
ENDBRANCH  13  20
ENDBRANCH  12  17
ENDBRANCH   1  12
TORSDOF 3
ENDMDL
MODEL 2
REMARK VINA RESULT:      -7.2      2.432      6.283
REMARK  Name = 
REMARK  3 active torsions:
REMARK  status: ('A' for Active; 'I' for Inactive)
REMARK    1  A    between atoms: C_2  and  C_3
REMARK    2  A    between atoms: C_7  and  C_8
REMARK    3  A    between atoms: C_8  and  N_9
REMARK                            x       y       z     vdW  Elec       q    Type
REMARK                         _______ _______ _______ _____ _____    ______ ____
ROOT
ATOM      1  N   UNL     1       5.646   4.735  16.655  0.00  0.00    +0.000 N 
ATOM      2  C   UNL     1       5.347   5.673  15.702  0.00  0.00    +0.000 A 
ATOM      3  N   UNL     1       5.974   6.810  15.919  0.00  0.00    +0.000 NA
ATOM      4  C   UNL     1       6.720   6.598  17.058  0.00  0.00    +0.000 A 
ATOM      5  C   UNL     1       7.572   7.376  17.832  0.00  0.00    +0.000 A 
ATOM      6 CL   UNL     1       7.813   8.999  17.409  0.00  0.00    +0.000 Cl
ATOM      7  N   UNL     1       8.183   6.898  18.929  0.00  0.00    +0.000 NA
ATOM      8  C   UNL     1       7.919   5.619  19.233  0.00  0.00    +0.000 A 
ATOM      9 CL   UNL     1       8.705   5.013  20.627  0.00  0.00    +0.000 Cl
ATOM     10  N   UNL     1       7.112   4.741  18.601  0.00  0.00    +0.000 NA
ATOM     11  C   UNL     1       6.544   5.300  17.520  0.00  0.00    +0.000 A 
ENDROOT
BRANCH   1  12
ATOM     12  C   UNL     1       5.016   3.436  16.795  0.00  0.00    +0.000 C 
BRANCH  12  17
ATOM     13  C   UNL     1       2.740   3.096  19.848  0.00  0.00    +0.000 A 
ATOM     14  C   UNL     1       1.529   3.573  19.327  0.00  0.00    +0.000 A 
ATOM     15  C   UNL     1       1.447   3.997  18.002  0.00  0.00    +0.000 A 
ATOM     16  C   UNL     1       2.573   3.953  17.181  0.00  0.00    +0.000 A 
ATOM     17  C   UNL     1       3.800   3.496  17.683  0.00  0.00    +0.000 A 
ATOM     18  C   UNL     1       3.874   3.078  19.021  0.00  0.00    +0.000 A 
BRANCH  13  20
ATOM     19 CL   UNL     1       1.208   2.545  22.004  0.00  0.00    +0.000 Cl
ATOM     20  C   UNL     1       2.822   2.620  21.273  0.00  0.00    +0.000 C 
ENDBRANCH  13  20
ENDBRANCH  12  17
ENDBRANCH   1  12
TORSDOF 3
ENDMDL
MODEL 3
REMARK VINA RESULT:      -7.2      3.978      5.392
REMARK  Name = 
REMARK  3 active torsions:
REMARK  status: ('A' for Active; 'I' for Inactive)
REMARK    1  A    between atoms: C_2  and  C_3
REMARK    2  A    between atoms: C_7  and  C_8
REMARK    3  A    between atoms: C_8  and  N_9
REMARK                            x       y       z     vdW  Elec       q    Type
REMARK                         _______ _______ _______ _____ _____    ______ ____
ROOT
ATOM      1  N   UNL     1       6.047   5.280  16.732  0.00  0.00    +0.000 N 
ATOM      2  C   UNL     1       6.162   6.642  16.821  0.00  0.00    +0.000 A 
ATOM      3  N   UNL     1       5.052   7.201  17.252  0.00  0.00    +0.000 NA
ATOM      4  C   UNL     1       4.180   6.156  17.461  0.00  0.00    +0.000 A 
ATOM      5  C   UNL     1       2.859   6.047  17.878  0.00  0.00    +0.000 A 
ATOM      6 CL   UNL     1       1.984   7.461  18.208  0.00  0.00    +0.000 Cl
ATOM      7  N   UNL     1       2.237   4.863  17.993  0.00  0.00    +0.000 NA
ATOM      8  C   UNL     1       2.971   3.785  17.679  0.00  0.00    +0.000 A 
ATOM      9 CL   UNL     1       2.176   2.278  17.833  0.00  0.00    +0.000 Cl
ATOM     10  N   UNL     1       4.248   3.720  17.247  0.00  0.00    +0.000 NA
ATOM     11  C   UNL     1       4.792   4.945  17.161  0.00  0.00    +0.000 A 
ENDROOT
BRANCH   1  12
ATOM     12  C   UNL     1       7.028   4.380  16.155  0.00  0.00    +0.000 C 
BRANCH  12  17
ATOM     13  C   UNL     1       6.145   3.581  12.522  0.00  0.00    +0.000 A 
ATOM     14  C   UNL     1       6.994   4.468  11.844  0.00  0.00    +0.000 A 
ATOM     15  C   UNL     1       7.846   5.313  12.554  0.00  0.00    +0.000 A 
ATOM     16  C   UNL     1       7.859   5.286  13.947  0.00  0.00    +0.000 A 
ATOM     17  C   UNL     1       7.007   4.420  14.649  0.00  0.00    +0.000 A 
ATOM     18  C   UNL     1       6.148   3.577  13.925  0.00  0.00    +0.000 A 
BRANCH  13  20
ATOM     19 CL   UNL     1       6.152   1.271  11.120  0.00  0.00    +0.000 Cl
ATOM     20  C   UNL     1       5.242   2.655  11.755  0.00  0.00    +0.000 C 
ENDBRANCH  13  20
ENDBRANCH  12  17
ENDBRANCH   1  12
TORSDOF 3
ENDMDL
MODEL 4
REMARK VINA RESULT:      -7.1      2.853      5.660
REMARK  Name = 
REMARK  3 active torsions:
REMARK  status: ('A' for Active; 'I' for Inactive)
REMARK    1  A    between atoms: C_2  and  C_3
REMARK    2  A    between atoms: C_7  and  C_8
REMARK    3  A    between atoms: C_8  and  N_9
REMARK                            x       y       z     vdW  Elec       q    Type
REMARK                         _______ _______ _______ _____ _____    ______ ____
ROOT
ATOM      1  N   UNL     1       3.651   4.923  18.638  0.00  0.00    +0.000 N 
ATOM      2  C   UNL     1       3.050   4.083  17.737  0.00  0.00    +0.000 A 
ATOM      3  N   UNL     1       3.847   3.790  16.732  0.00  0.00    +0.000 NA
ATOM      4  C   UNL     1       5.021   4.461  16.996  0.00  0.00    +0.000 A 
ATOM      5  C   UNL     1       6.238   4.604  16.343  0.00  0.00    +0.000 A 
ATOM      6 CL   UNL     1       6.454   3.857  14.836  0.00  0.00    +0.000 Cl
ATOM      7  N   UNL     1       7.240   5.346  16.843  0.00  0.00    +0.000 NA
ATOM      8  C   UNL     1       6.993   5.944  18.018  0.00  0.00    +0.000 A 
ATOM      9 CL   UNL     1       8.273   6.883  18.654  0.00  0.00    +0.000 Cl
ATOM     10  N   UNL     1       5.870   5.920  18.767  0.00  0.00    +0.000 NA
ATOM     11  C   UNL     1       4.924   5.158  18.194  0.00  0.00    +0.000 A 
ENDROOT
BRANCH   1  12
ATOM     12  C   UNL     1       3.005   5.554  19.773  0.00  0.00    +0.000 C 
BRANCH  12  17
ATOM     13  C   UNL     1       1.142   8.883  20.030  0.00  0.00    +0.000 A 
ATOM     14  C   UNL     1       1.333   9.391  18.738  0.00  0.00    +0.000 A 
ATOM     15  C   UNL     1       2.053   8.664  17.790  0.00  0.00    +0.000 A 
ATOM     16  C   UNL     1       2.594   7.423  18.123  0.00  0.00    +0.000 A 
ATOM     17  C   UNL     1       2.432   6.901  19.414  0.00  0.00    +0.000 A 
ATOM     18  C   UNL     1       1.711   7.643  20.363  0.00  0.00    +0.000 A 
BRANCH  13  20
ATOM     19 CL   UNL     1       0.897   9.288  22.690  0.00  0.00    +0.000 Cl
ATOM     20  C   UNL     1       0.348   9.659  21.044  0.00  0.00    +0.000 C 
ENDBRANCH  13  20
ENDBRANCH  12  17
ENDBRANCH   1  12
TORSDOF 3
ENDMDL
MODEL 5
REMARK VINA RESULT:      -6.9      3.876      6.948
REMARK  Name = 
REMARK  3 active torsions:
REMARK  status: ('A' for Active; 'I' for Inactive)
REMARK    1  A    between atoms: C_2  and  C_3
REMARK    2  A    between atoms: C_7  and  C_8
REMARK    3  A    between atoms: C_8  and  N_9
REMARK                            x       y       z     vdW  Elec       q    Type
REMARK                         _______ _______ _______ _____ _____    ______ ____
ROOT
ATOM      1  N   UNL     1       5.686   4.391  16.144  0.00  0.00    +0.000 N 
ATOM      2  C   UNL     1       6.625   5.252  16.648  0.00  0.00    +0.000 A 
ATOM      3  N   UNL     1       7.477   5.643  15.725  0.00  0.00    +0.000 NA
ATOM      4  C   UNL     1       7.070   5.015  14.569  0.00  0.00    +0.000 A 
ATOM      5  C   UNL     1       7.533   4.971  13.260  0.00  0.00    +0.000 A 
ATOM      6 CL   UNL     1       8.947   5.816  12.861  0.00  0.00    +0.000 Cl
ATOM      7  N   UNL     1       6.923   4.250  12.306  0.00  0.00    +0.000 NA
ATOM      8  C   UNL     1       5.832   3.571  12.694  0.00  0.00    +0.000 A 
ATOM      9 CL   UNL     1       5.055   2.659  11.473  0.00  0.00    +0.000 Cl
ATOM     10  N   UNL     1       5.267   3.496  13.917  0.00  0.00    +0.000 NA
ATOM     11  C   UNL     1       5.939   4.244  14.807  0.00  0.00    +0.000 A 
ENDROOT
BRANCH   1  12
ATOM     12  C   UNL     1       4.699   3.662  16.918  0.00  0.00    +0.000 C 
BRANCH  12  17
ATOM     13  C   UNL     1       2.303   4.918  19.620  0.00  0.00    +0.000 A 
ATOM     14  C   UNL     1       2.284   6.291  19.337  0.00  0.00    +0.000 A 
ATOM     15  C   UNL     1       3.035   6.806  18.281  0.00  0.00    +0.000 A 
ATOM     16  C   UNL     1       3.816   5.958  17.497  0.00  0.00    +0.000 A 
ATOM     17  C   UNL     1       3.865   4.584  17.771  0.00  0.00    +0.000 A 
ATOM     18  C   UNL     1       3.111   4.076  18.840  0.00  0.00    +0.000 A 
BRANCH  13  20
ATOM     19 CL   UNL     1       2.364   3.088  21.606  0.00  0.00    +0.000 Cl
ATOM     20  C   UNL     1       1.477   4.361  20.747  0.00  0.00    +0.000 C 
ENDBRANCH  13  20
ENDBRANCH  12  17
ENDBRANCH   1  12
TORSDOF 3
ENDMDL
MODEL 6
REMARK VINA RESULT:      -6.9      3.006      4.930
REMARK  Name = 
REMARK  3 active torsions:
REMARK  status: ('A' for Active; 'I' for Inactive)
REMARK    1  A    between atoms: C_2  and  C_3
REMARK    2  A    between atoms: C_7  and  C_8
REMARK    3  A    between atoms: C_8  and  N_9
REMARK                            x       y       z     vdW  Elec       q    Type
REMARK                         _______ _______ _______ _____ _____    ______ ____
ROOT
ATOM      1  N   UNL     1       2.261   7.368  19.339  0.00  0.00    +0.000 N 
ATOM      2  C   UNL     1       2.418   7.861  18.070  0.00  0.00    +0.000 A 
ATOM      3  N   UNL     1       1.882   9.055  17.937  0.00  0.00    +0.000 NA
ATOM      4  C   UNL     1       1.361   9.355  19.177  0.00  0.00    +0.000 A 
ATOM      5  C   UNL     1       0.652  10.424  19.710  0.00  0.00    +0.000 A 
ATOM      6 CL   UNL     1       0.230  11.717  18.698  0.00  0.00    +0.000 Cl
ATOM      7  N   UNL     1       0.254  10.453  20.993  0.00  0.00    +0.000 NA
ATOM      8  C   UNL     1       0.583   9.383  21.731  0.00  0.00    +0.000 A 
ATOM      9 CL   UNL     1       0.079   9.427  23.365  0.00  0.00    +0.000 Cl
ATOM     10  N   UNL     1       1.248   8.267  21.364  0.00  0.00    +0.000 NA
ATOM     11  C   UNL     1       1.607   8.321  20.071  0.00  0.00    +0.000 A 
ENDROOT
BRANCH   1  12
ATOM     12  C   UNL     1       2.602   6.029  19.779  0.00  0.00    +0.000 C 
BRANCH  12  17
ATOM     13  C   UNL     1       5.836   4.937  18.057  0.00  0.00    +0.000 A 
ATOM     14  C   UNL     1       5.328   4.122  17.036  0.00  0.00    +0.000 A 
ATOM     15  C   UNL     1       3.953   3.929  16.902  0.00  0.00    +0.000 A 
ATOM     16  C   UNL     1       3.070   4.545  17.787  0.00  0.00    +0.000 A 
ATOM     17  C   UNL     1       3.555   5.352  18.827  0.00  0.00    +0.000 A 
ATOM     18  C   UNL     1       4.940   5.534  18.958  0.00  0.00    +0.000 A 
BRANCH  13  20
ATOM     19 CL   UNL     1       7.702   6.889  18.105  0.00  0.00    +0.000 Cl
ATOM     20  C   UNL     1       7.318   5.160  18.187  0.00  0.00    +0.000 C 
ENDBRANCH  13  20
ENDBRANCH  12  17
ENDBRANCH   1  12
TORSDOF 3
ENDMDL
MODEL 7
REMARK VINA RESULT:      -6.9      2.356      5.834
REMARK  Name = 
REMARK  3 active torsions:
REMARK  status: ('A' for Active; 'I' for Inactive)
REMARK    1  A    between atoms: C_2  and  C_3
REMARK    2  A    between atoms: C_7  and  C_8
REMARK    3  A    between atoms: C_8  and  N_9
REMARK                            x       y       z     vdW  Elec       q    Type
REMARK                         _______ _______ _______ _____ _____    ______ ____
ROOT
ATOM      1  N   UNL     1       5.494   4.817  16.726  0.00  0.00    +0.000 N 
ATOM      2  C   UNL     1       5.169   5.774  15.802  0.00  0.00    +0.000 A 
ATOM      3  N   UNL     1       5.827   6.896  16.004  0.00  0.00    +0.000 NA
ATOM      4  C   UNL     1       6.621   6.654  17.104  0.00  0.00    +0.000 A 
ATOM      5  C   UNL     1       7.523   7.404  17.847  0.00  0.00    +0.000 A 
ATOM      6 CL   UNL     1       7.775   9.029  17.436  0.00  0.00    +0.000 Cl
ATOM      7  N   UNL     1       8.175   6.899  18.907  0.00  0.00    +0.000 NA
ATOM      8  C   UNL     1       7.902   5.620  19.206  0.00  0.00    +0.000 A 
ATOM      9 CL   UNL     1       8.740   4.981  20.553  0.00  0.00    +0.000 Cl
ATOM     10  N   UNL     1       7.049   4.768  18.601  0.00  0.00    +0.000 NA
ATOM     11  C   UNL     1       6.441   5.352  17.556  0.00  0.00    +0.000 A 
ENDROOT
BRANCH   1  12
ATOM     12  C   UNL     1       4.847   3.528  16.878  0.00  0.00    +0.000 C 
BRANCH  12  17
ATOM     13  C   UNL     1       2.227   4.798  19.356  0.00  0.00    +0.000 A 
ATOM     14  C   UNL     1       1.253   3.795  19.246  0.00  0.00    +0.000 A 
ATOM     15  C   UNL     1       1.442   2.717  18.382  0.00  0.00    +0.000 A 
ATOM     16  C   UNL     1       2.604   2.628  17.616  0.00  0.00    +0.000 A 
ATOM     17  C   UNL     1       3.585   3.627  17.696  0.00  0.00    +0.000 A 
ATOM     18  C   UNL     1       3.382   4.712  18.563  0.00  0.00    +0.000 A 
BRANCH  13  20
ATOM     19 CL   UNL     1       2.305   7.496  19.477  0.00  0.00    +0.000 Cl
ATOM     20  C   UNL     1       2.030   5.950  20.303  0.00  0.00    +0.000 C 
ENDBRANCH  13  20
ENDBRANCH  12  17
ENDBRANCH   1  12
TORSDOF 3
ENDMDL
MODEL 8
REMARK VINA RESULT:      -6.9      3.768      5.652
REMARK  Name = 
REMARK  3 active torsions:
REMARK  status: ('A' for Active; 'I' for Inactive)
REMARK    1  A    between atoms: C_2  and  C_3
REMARK    2  A    between atoms: C_7  and  C_8
REMARK    3  A    between atoms: C_8  and  N_9
REMARK                            x       y       z     vdW  Elec       q    Type
REMARK                         _______ _______ _______ _____ _____    ______ ____
ROOT
ATOM      1  N   UNL     1       2.199   7.706  19.455  0.00  0.00    +0.000 N 
ATOM      2  C   UNL     1       2.275   8.115  18.150  0.00  0.00    +0.000 A 
ATOM      3  N   UNL     1       1.546   9.187  17.928  0.00  0.00    +0.000 NA
ATOM      4  C   UNL     1       0.977   9.493  19.145  0.00  0.00    +0.000 A 
ATOM      5  C   UNL     1       0.097  10.467  19.600  0.00  0.00    +0.000 A 
ATOM      6 CL   UNL     1      -0.534  11.585  18.493  0.00  0.00    +0.000 Cl
ATOM      7  N   UNL     1      -0.305  10.530  20.880  0.00  0.00    +0.000 NA
ATOM      8  C   UNL     1       0.198   9.593  21.697  0.00  0.00    +0.000 A 
ATOM      9 CL   UNL     1      -0.312   9.682  23.328  0.00  0.00    +0.000 Cl
ATOM     10  N   UNL     1       1.042   8.579  21.413  0.00  0.00    +0.000 NA
ATOM     11  C   UNL     1       1.392   8.590  20.116  0.00  0.00    +0.000 A 
ENDROOT
BRANCH   1  12
ATOM     12  C   UNL     1       2.759   6.481  19.996  0.00  0.00    +0.000 C 
BRANCH  12  17
ATOM     13  C   UNL     1       3.884   4.219  17.126  0.00  0.00    +0.000 A 
ATOM     14  C   UNL     1       2.798   3.336  17.047  0.00  0.00    +0.000 A 
ATOM     15  C   UNL     1       1.711   3.472  17.909  0.00  0.00    +0.000 A 
ATOM     16  C   UNL     1       1.696   4.489  18.862  0.00  0.00    +0.000 A 
ATOM     17  C   UNL     1       2.778   5.374  18.973  0.00  0.00    +0.000 A 
ATOM     18  C   UNL     1       3.870   5.225  18.105  0.00  0.00    +0.000 A 
BRANCH  13  20
ATOM     19 CL   UNL     1       5.387   5.628  15.379  0.00  0.00    +0.000 Cl
ATOM     20  C   UNL     1       5.046   4.084  16.182  0.00  0.00    +0.000 C 
ENDBRANCH  13  20
ENDBRANCH  12  17
ENDBRANCH   1  12
TORSDOF 3
ENDMDL
MODEL 9
REMARK VINA RESULT:      -6.8      4.039      6.825
REMARK  Name = 
REMARK  3 active torsions:
REMARK  status: ('A' for Active; 'I' for Inactive)
REMARK    1  A    between atoms: C_2  and  C_3
REMARK    2  A    between atoms: C_7  and  C_8
REMARK    3  A    between atoms: C_8  and  N_9
REMARK                            x       y       z     vdW  Elec       q    Type
REMARK                         _______ _______ _______ _____ _____    ______ ____
ROOT
ATOM      1  N   UNL     1       5.995   4.229  16.077  0.00  0.00    +0.000 N 
ATOM      2  C   UNL     1       6.849   5.205  16.519  0.00  0.00    +0.000 A 
ATOM      3  N   UNL     1       7.576   5.701  15.542  0.00  0.00    +0.000 NA
ATOM      4  C   UNL     1       7.171   5.024  14.412  0.00  0.00    +0.000 A 
ATOM      5  C   UNL     1       7.542   5.038  13.074  0.00  0.00    +0.000 A 
ATOM      6 CL   UNL     1       8.804   6.057  12.582  0.00  0.00    +0.000 Cl
ATOM      7  N   UNL     1       6.963   4.242  12.160  0.00  0.00    +0.000 NA
ATOM      8  C   UNL     1       6.000   3.430  12.619  0.00  0.00    +0.000 A 
ATOM      9 CL   UNL     1       5.261   2.424  11.450  0.00  0.00    +0.000 Cl
ATOM     10  N   UNL     1       5.536   3.285  13.878  0.00  0.00    +0.000 NA
ATOM     11  C   UNL     1       6.169   4.114  14.725  0.00  0.00    +0.000 A 
ENDROOT
BRANCH   1  12
ATOM     12  C   UNL     1       5.167   3.381  16.913  0.00  0.00    +0.000 C 
BRANCH  12  17
ATOM     13  C   UNL     1       2.658   6.049  18.011  0.00  0.00    +0.000 A 
ATOM     14  C   UNL     1       1.470   5.305  18.017  0.00  0.00    +0.000 A 
ATOM     15  C   UNL     1       1.479   3.954  17.674  0.00  0.00    +0.000 A 
ATOM     16  C   UNL     1       2.673   3.330  17.317  0.00  0.00    +0.000 A 
ATOM     17  C   UNL     1       3.872   4.056  17.287  0.00  0.00    +0.000 A 
ATOM     18  C   UNL     1       3.852   5.418  17.628  0.00  0.00    +0.000 A 
BRANCH  13  20
ATOM     19 CL   UNL     1       1.976   7.710  20.030  0.00  0.00    +0.000 Cl
ATOM     20  C   UNL     1       2.650   7.501  18.402  0.00  0.00    +0.000 C 
ENDBRANCH  13  20
ENDBRANCH  12  17
ENDBRANCH   1  12
TORSDOF 3
ENDMDL
