MODEL 1
REMARK VINA RESULT:      -8.3      0.000      0.000
REMARK  Name = 
REMARK  11 active torsions:
REMARK  status: ('A' for Active; 'I' for Inactive)
REMARK    1  A    between atoms: C_1  and  C_2
REMARK    2  A    between atoms: C_2  and  C_12
REMARK    3  A    between atoms: C_3  and  C_4
REMARK    4  A    between atoms: C_4  and  O_5
REMARK    5  A    between atoms: O_5  and  C_6
REMARK    6  A    between atoms: C_12  and  C_13
REMARK    7  A    between atoms: C_13  and  C_14
REMARK    8  A    between atoms: C_15  and  C_16
REMARK    9  A    between atoms: C_15  and  C_17
REMARK   10  A    between atoms: C_21  and  C_22
REMARK   11  A    between atoms: C_21  and  C_23
REMARK                            x       y       z     vdW  Elec       q    Type
REMARK                         _______ _______ _______ _____ _____    ______ ____
ROOT
ATOM      1  C   UNL     1       7.841   5.644  18.624  0.00  0.00    +0.000 C 
ENDROOT
BRANCH   1   3
ATOM      2  C   UNL     1       6.762   7.352  17.080  0.00  0.00    +0.000 C 
ATOM      3  C   UNL     1       7.763   7.098  18.177  0.00  0.00    +0.000 C 
ATOM      4  C   UNL     1       8.502   8.082  18.731  0.00  0.00    +0.000 C 
BRANCH   4   5
ATOM      5  C   UNL     1       8.544   9.521  18.338  0.00  0.00    +0.000 C 
BRANCH   5   6
ATOM      6  O   UNL     1       9.066  10.261  19.439  0.00  0.00    +0.000 OA
BRANCH   6   7
ATOM      7  C   UNL     1      10.064  11.133  19.097  0.00  0.00    +0.000 A 
ATOM      8  C   UNL     1      10.797  11.674  20.154  0.00  0.00    +0.000 A 
ATOM      9  C   UNL     1      11.830  12.576  19.896  0.00  0.00    +0.000 A 
ATOM     10  C   UNL     1      12.146  12.921  18.582  0.00  0.00    +0.000 A 
ATOM     11  C   UNL     1      11.430  12.364  17.525  0.00  0.00    +0.000 A 
ATOM     12  C   UNL     1      10.392  11.470  17.782  0.00  0.00    +0.000 A 
ENDBRANCH   6   7
ENDBRANCH   5   6
ENDBRANCH   4   5
ENDBRANCH   1   3
BRANCH   1  13
ATOM     13  C   UNL     1       7.000   4.677  17.781  0.00  0.00    +0.000 C 
BRANCH  13  14
ATOM     14  C   UNL     1       5.700   4.244  18.389  0.00  0.00    +0.000 C 
ATOM     15  C   UNL     1       4.592   3.991  17.660  0.00  0.00    +0.000 C 
ATOM     16  C   UNL     1       4.575   4.118  16.150  0.00  0.00    +0.000 C 
BRANCH  15  17
ATOM     17  C   UNL     1       3.340   3.591  18.290  0.00  0.00    +0.000 C 
ATOM     18  C   UNL     1       2.344   2.930  17.708  0.00  0.00    +0.000 C 
ATOM     19  C   UNL     1       1.353   2.838  18.766  0.00  0.00    +0.000 C 
ATOM     20  O   UNL     1       0.271   2.294  18.613  0.00  0.00    +0.000 OA
ATOM     21  C   UNL     1       1.862   3.501  20.016  0.00  0.00    +0.000 C 
ATOM     22  C   UNL     1       1.991   2.499  21.154  0.00  0.00    +0.000 C 
ATOM     23  C   UNL     1       1.010   4.706  20.390  0.00  0.00    +0.000 C 
ATOM     24  O   UNL     1       3.173   3.957  19.629  0.00  0.00    +0.000 OA
ENDBRANCH  15  17
ENDBRANCH  13  14
ENDBRANCH   1  13
TORSDOF 7
ENDMDL
MODEL 2
REMARK VINA RESULT:      -8.0      5.108      7.442
REMARK  Name = 
REMARK  11 active torsions:
REMARK  status: ('A' for Active; 'I' for Inactive)
REMARK    1  A    between atoms: C_1  and  C_2
REMARK    2  A    between atoms: C_2  and  C_12
REMARK    3  A    between atoms: C_3  and  C_4
REMARK    4  A    between atoms: C_4  and  O_5
REMARK    5  A    between atoms: O_5  and  C_6
REMARK    6  A    between atoms: C_12  and  C_13
REMARK    7  A    between atoms: C_13  and  C_14
REMARK    8  A    between atoms: C_15  and  C_16
REMARK    9  A    between atoms: C_15  and  C_17
REMARK   10  A    between atoms: C_21  and  C_22
REMARK   11  A    between atoms: C_21  and  C_23
REMARK                            x       y       z     vdW  Elec       q    Type
REMARK                         _______ _______ _______ _____ _____    ______ ____
ROOT
ATOM      1  C   UNL     1       0.408   2.653  19.944  0.00  0.00    +0.000 C 
ENDROOT
BRANCH   1   3
ATOM      2  C   UNL     1       2.250   3.139  21.627  0.00  0.00    +0.000 C 
ATOM      3  C   UNL     1       1.273   3.703  20.629  0.00  0.00    +0.000 C 
ATOM      4  C   UNL     1       1.196   5.020  20.349  0.00  0.00    +0.000 C 
BRANCH   4   5
ATOM      5  C   UNL     1       1.953   6.134  20.992  0.00  0.00    +0.000 C 
BRANCH   5   6
ATOM      6  O   UNL     1       2.659   6.833  19.970  0.00  0.00    +0.000 OA
BRANCH   6   7
ATOM      7  C   UNL     1       2.007   7.944  19.506  0.00  0.00    +0.000 A 
ATOM      8  C   UNL     1       1.273   8.665  20.448  0.00  0.00    +0.000 A 
ATOM      9  C   UNL     1       0.574   9.808  20.060  0.00  0.00    +0.000 A 
ATOM     10  C   UNL     1       0.625  10.245  18.737  0.00  0.00    +0.000 A 
ATOM     11  C   UNL     1       1.377   9.538  17.800  0.00  0.00    +0.000 A 
ATOM     12  C   UNL     1       2.068   8.392  18.185  0.00  0.00    +0.000 A 
ENDBRANCH   6   7
ENDBRANCH   5   6
ENDBRANCH   4   5
ENDBRANCH   1   3
BRANCH   1  13
ATOM     13  C   UNL     1       0.907   2.230  18.557  0.00  0.00    +0.000 C 
BRANCH  13  14
ATOM     14  C   UNL     1       1.862   3.175  17.893  0.00  0.00    +0.000 C 
ATOM     15  C   UNL     1       3.183   2.923  17.768  0.00  0.00    +0.000 C 
ATOM     16  C   UNL     1       3.813   1.647  18.289  0.00  0.00    +0.000 C 
BRANCH  15  17
ATOM     17  C   UNL     1       4.084   3.877  17.134  0.00  0.00    +0.000 C 
ATOM     18  C   UNL     1       3.941   5.198  17.111  0.00  0.00    +0.000 C 
ATOM     19  C   UNL     1       5.081   5.636  16.326  0.00  0.00    +0.000 C 
ATOM     20  O   UNL     1       5.298   6.810  16.071  0.00  0.00    +0.000 OA
ATOM     21  C   UNL     1       5.905   4.453  15.898  0.00  0.00    +0.000 C 
ATOM     22  C   UNL     1       7.307   4.520  16.486  0.00  0.00    +0.000 C 
ATOM     23  C   UNL     1       5.911   4.301  14.383  0.00  0.00    +0.000 C 
ATOM     24  O   UNL     1       5.196   3.340  16.477  0.00  0.00    +0.000 OA
ENDBRANCH  15  17
ENDBRANCH  13  14
ENDBRANCH   1  13
TORSDOF 7
ENDMDL
MODEL 3
REMARK VINA RESULT:      -8.0      1.421      2.056
REMARK  Name = 
REMARK  11 active torsions:
REMARK  status: ('A' for Active; 'I' for Inactive)
REMARK    1  A    between atoms: C_1  and  C_2
REMARK    2  A    between atoms: C_2  and  C_12
REMARK    3  A    between atoms: C_3  and  C_4
REMARK    4  A    between atoms: C_4  and  O_5
REMARK    5  A    between atoms: O_5  and  C_6
REMARK    6  A    between atoms: C_12  and  C_13
REMARK    7  A    between atoms: C_13  and  C_14
REMARK    8  A    between atoms: C_15  and  C_16
REMARK    9  A    between atoms: C_15  and  C_17
REMARK   10  A    between atoms: C_21  and  C_22
REMARK   11  A    between atoms: C_21  and  C_23
REMARK                            x       y       z     vdW  Elec       q    Type
REMARK                         _______ _______ _______ _____ _____    ______ ____
ROOT
ATOM      1  C   UNL     1       6.776   6.606  16.569  0.00  0.00    +0.000 C 
ENDROOT
BRANCH   1   3
ATOM      2  C   UNL     1       7.994   6.346  18.787  0.00  0.00    +0.000 C 
ATOM      3  C   UNL     1       7.590   7.273  17.671  0.00  0.00    +0.000 C 
ATOM      4  C   UNL     1       7.947   8.574  17.641  0.00  0.00    +0.000 C 
BRANCH   4   5
ATOM      5  C   UNL     1       8.692   9.340  18.683  0.00  0.00    +0.000 C 
BRANCH   5   6
ATOM      6  O   UNL     1       9.279  10.477  18.057  0.00  0.00    +0.000 OA
BRANCH   6   7
ATOM      7  C   UNL     1       9.737  11.421  18.937  0.00  0.00    +0.000 A 
ATOM      8  C   UNL     1      10.251  12.588  18.374  0.00  0.00    +0.000 A 
ATOM      9  C   UNL     1      10.744  13.601  19.198  0.00  0.00    +0.000 A 
ATOM     10  C   UNL     1      10.702  13.457  20.584  0.00  0.00    +0.000 A 
ATOM     11  C   UNL     1      10.167  12.301  21.148  0.00  0.00    +0.000 A 
ATOM     12  C   UNL     1       9.683  11.286  20.326  0.00  0.00    +0.000 A 
ENDBRANCH   6   7
ENDBRANCH   5   6
ENDBRANCH   4   5
ENDBRANCH   1   3
BRANCH   1  13
ATOM     13  C   UNL     1       5.261   6.806  16.694  0.00  0.00    +0.000 C 
BRANCH  13  14
ATOM     14  C   UNL     1       4.481   5.605  17.139  0.00  0.00    +0.000 C 
ATOM     15  C   UNL     1       3.332   5.692  17.843  0.00  0.00    +0.000 C 
ATOM     16  C   UNL     1       2.727   7.023  18.238  0.00  0.00    +0.000 C 
BRANCH  15  17
ATOM     17  C   UNL     1       2.612   4.501  18.276  0.00  0.00    +0.000 C 
ATOM     18  C   UNL     1       1.433   4.087  17.823  0.00  0.00    +0.000 C 
ATOM     19  C   UNL     1       1.179   2.897  18.616  0.00  0.00    +0.000 C 
ATOM     20  O   UNL     1       0.168   2.224  18.495  0.00  0.00    +0.000 OA
ATOM     21  C   UNL     1       2.317   2.651  19.568  0.00  0.00    +0.000 C 
ATOM     22  C   UNL     1       3.004   1.326  19.270  0.00  0.00    +0.000 C 
ATOM     23  C   UNL     1       1.862   2.764  21.016  0.00  0.00    +0.000 C 
ATOM     24  O   UNL     1       3.221   3.735  19.275  0.00  0.00    +0.000 OA
ENDBRANCH  15  17
ENDBRANCH  13  14
ENDBRANCH   1  13
TORSDOF 7
ENDMDL
MODEL 4
REMARK VINA RESULT:      -7.7      4.215      7.387
REMARK  Name = 
REMARK  11 active torsions:
REMARK  status: ('A' for Active; 'I' for Inactive)
REMARK    1  A    between atoms: C_1  and  C_2
REMARK    2  A    between atoms: C_2  and  C_12
REMARK    3  A    between atoms: C_3  and  C_4
REMARK    4  A    between atoms: C_4  and  O_5
REMARK    5  A    between atoms: O_5  and  C_6
REMARK    6  A    between atoms: C_12  and  C_13
REMARK    7  A    between atoms: C_13  and  C_14
REMARK    8  A    between atoms: C_15  and  C_16
REMARK    9  A    between atoms: C_15  and  C_17
REMARK   10  A    between atoms: C_21  and  C_22
REMARK   11  A    between atoms: C_21  and  C_23
REMARK                            x       y       z     vdW  Elec       q    Type
REMARK                         _______ _______ _______ _____ _____    ______ ____
ROOT
ATOM      1  C   UNL     1       0.752   2.736  19.109  0.00  0.00    +0.000 C 
ENDROOT
BRANCH   1   3
ATOM      2  C   UNL     1       1.532   2.908  21.524  0.00  0.00    +0.000 C 
ATOM      3  C   UNL     1       1.310   3.622  20.217  0.00  0.00    +0.000 C 
ATOM      4  C   UNL     1       1.608   4.926  20.040  0.00  0.00    +0.000 C 
BRANCH   4   5
ATOM      5  C   UNL     1       2.106   5.894  21.061  0.00  0.00    +0.000 C 
BRANCH   5   6
ATOM      6  O   UNL     1       1.283   7.056  21.002  0.00  0.00    +0.000 OA
BRANCH   6   7
ATOM      7  C   UNL     1       1.551   7.872  19.935  0.00  0.00    +0.000 A 
ATOM      8  C   UNL     1       0.930   9.120  19.944  0.00  0.00    +0.000 A 
ATOM      9  C   UNL     1       1.144  10.013  18.893  0.00  0.00    +0.000 A 
ATOM     10  C   UNL     1       1.995   9.667  17.844  0.00  0.00    +0.000 A 
ATOM     11  C   UNL     1       2.634   8.429  17.846  0.00  0.00    +0.000 A 
ATOM     12  C   UNL     1       2.414   7.534  18.890  0.00  0.00    +0.000 A 
ENDBRANCH   6   7
ENDBRANCH   5   6
ENDBRANCH   4   5
ENDBRANCH   1   3
BRANCH   1  13
ATOM     13  C   UNL     1       1.819   1.983  18.305  0.00  0.00    +0.000 C 
BRANCH  13  14
ATOM     14  C   UNL     1       2.760   2.839  17.512  0.00  0.00    +0.000 C 
ATOM     15  C   UNL     1       3.995   3.173  17.945  0.00  0.00    +0.000 C 
ATOM     16  C   UNL     1       4.538   2.700  19.278  0.00  0.00    +0.000 C 
BRANCH  15  17
ATOM     17  C   UNL     1       4.875   4.025  17.155  0.00  0.00    +0.000 C 
ATOM     18  C   UNL     1       5.801   3.614  16.293  0.00  0.00    +0.000 C 
ATOM     19  C   UNL     1       6.392   4.858  15.833  0.00  0.00    +0.000 C 
ATOM     20  O   UNL     1       7.303   4.897  15.022  0.00  0.00    +0.000 OA
ATOM     21  C   UNL     1       5.726   6.030  16.499  0.00  0.00    +0.000 C 
ATOM     22  C   UNL     1       5.033   6.920  15.477  0.00  0.00    +0.000 C 
ATOM     23  C   UNL     1       6.704   6.798  17.378  0.00  0.00    +0.000 C 
ATOM     24  O   UNL     1       4.735   5.404  17.339  0.00  0.00    +0.000 OA
ENDBRANCH  15  17
ENDBRANCH  13  14
ENDBRANCH   1  13
TORSDOF 7
ENDMDL
MODEL 5
REMARK VINA RESULT:      -7.4      4.044      7.348
REMARK  Name = 
REMARK  11 active torsions:
REMARK  status: ('A' for Active; 'I' for Inactive)
REMARK    1  A    between atoms: C_1  and  C_2
REMARK    2  A    between atoms: C_2  and  C_12
REMARK    3  A    between atoms: C_3  and  C_4
REMARK    4  A    between atoms: C_4  and  O_5
REMARK    5  A    between atoms: O_5  and  C_6
REMARK    6  A    between atoms: C_12  and  C_13
REMARK    7  A    between atoms: C_13  and  C_14
REMARK    8  A    between atoms: C_15  and  C_16
REMARK    9  A    between atoms: C_15  and  C_17
REMARK   10  A    between atoms: C_21  and  C_22
REMARK   11  A    between atoms: C_21  and  C_23
REMARK                            x       y       z     vdW  Elec       q    Type
REMARK                         _______ _______ _______ _____ _____    ______ ____
ROOT
ATOM      1  C   UNL     1       2.353   1.996  20.224  0.00  0.00    +0.000 C 
ENDROOT
BRANCH   1   3
ATOM      2  C   UNL     1       0.274   3.130  19.297  0.00  0.00    +0.000 C 
ATOM      3  C   UNL     1       1.504   3.260  20.156  0.00  0.00    +0.000 C 
ATOM      4  C   UNL     1       1.808   4.390  20.828  0.00  0.00    +0.000 C 
BRANCH   4   5
ATOM      5  C   UNL     1       1.082   5.694  20.794  0.00  0.00    +0.000 C 
BRANCH   5   6
ATOM      6  O   UNL     1       2.050   6.737  20.867  0.00  0.00    +0.000 OA
BRANCH   6   7
ATOM      7  C   UNL     1       1.980   7.633  19.834  0.00  0.00    +0.000 A 
ATOM      8  C   UNL     1       1.283   8.813  20.090  0.00  0.00    +0.000 A 
ATOM      9  C   UNL     1       1.159   9.780  19.091  0.00  0.00    +0.000 A 
ATOM     10  C   UNL     1       1.748   9.577  17.845  0.00  0.00    +0.000 A 
ATOM     11  C   UNL     1       2.464   8.408  17.595  0.00  0.00    +0.000 A 
ATOM     12  C   UNL     1       2.581   7.439  18.589  0.00  0.00    +0.000 A 
ENDBRANCH   6   7
ENDBRANCH   5   6
ENDBRANCH   4   5
ENDBRANCH   1   3
BRANCH   1  13
ATOM     13  C   UNL     1       3.087   1.657  18.921  0.00  0.00    +0.000 C 
BRANCH  13  14
ATOM     14  C   UNL     1       4.180   2.603  18.525  0.00  0.00    +0.000 C 
ATOM     15  C   UNL     1       4.044   3.518  17.541  0.00  0.00    +0.000 C 
ATOM     16  C   UNL     1       2.759   3.669  16.753  0.00  0.00    +0.000 C 
BRANCH  15  17
ATOM     17  C   UNL     1       5.138   4.408  17.171  0.00  0.00    +0.000 C 
ATOM     18  C   UNL     1       5.880   4.325  16.071  0.00  0.00    +0.000 C 
ATOM     19  C   UNL     1       6.825   5.415  16.233  0.00  0.00    +0.000 C 
ATOM     20  O   UNL     1       7.694   5.665  15.413  0.00  0.00    +0.000 OA
ATOM     21  C   UNL     1       6.565   6.144  17.523  0.00  0.00    +0.000 C 
ATOM     22  C   UNL     1       6.173   7.592  17.264  0.00  0.00    +0.000 C 
ATOM     23  C   UNL     1       7.743   6.017  18.479  0.00  0.00    +0.000 C 
ATOM     24  O   UNL     1       5.437   5.434  18.072  0.00  0.00    +0.000 OA
ENDBRANCH  15  17
ENDBRANCH  13  14
ENDBRANCH   1  13
TORSDOF 7
ENDMDL
MODEL 6
REMARK VINA RESULT:      -7.4      4.524      8.899
REMARK  Name = 
REMARK  11 active torsions:
REMARK  status: ('A' for Active; 'I' for Inactive)
REMARK    1  A    between atoms: C_1  and  C_2
REMARK    2  A    between atoms: C_2  and  C_12
REMARK    3  A    between atoms: C_3  and  C_4
REMARK    4  A    between atoms: C_4  and  O_5
REMARK    5  A    between atoms: O_5  and  C_6
REMARK    6  A    between atoms: C_12  and  C_13
REMARK    7  A    between atoms: C_13  and  C_14
REMARK    8  A    between atoms: C_15  and  C_16
REMARK    9  A    between atoms: C_15  and  C_17
REMARK   10  A    between atoms: C_21  and  C_22
REMARK   11  A    between atoms: C_21  and  C_23
REMARK                            x       y       z     vdW  Elec       q    Type
REMARK                         _______ _______ _______ _____ _____    ______ ____
ROOT
ATOM      1  C   UNL     1       3.943   7.534  17.398  0.00  0.00    +0.000 C 
ENDROOT
BRANCH   1   3
ATOM      2  C   UNL     1       6.271   6.512  17.325  0.00  0.00    +0.000 C 
ATOM      3  C   UNL     1       4.816   6.313  17.659  0.00  0.00    +0.000 C 
ATOM      4  C   UNL     1       4.338   5.161  18.174  0.00  0.00    +0.000 C 
BRANCH   4   5
ATOM      5  C   UNL     1       5.086   3.893  18.421  0.00  0.00    +0.000 C 
BRANCH   5   6
ATOM      6  O   UNL     1       4.158   2.814  18.348  0.00  0.00    +0.000 OA
BRANCH   6   7
ATOM      7  C   UNL     1       3.185   2.854  19.309  0.00  0.00    +0.000 A 
ATOM      8  C   UNL     1       1.879   3.043  18.856  0.00  0.00    +0.000 A 
ATOM      9  C   UNL     1       0.826   3.101  19.769  0.00  0.00    +0.000 A 
ATOM     10  C   UNL     1       1.073   2.948  21.133  0.00  0.00    +0.000 A 
ATOM     11  C   UNL     1       2.374   2.736  21.585  0.00  0.00    +0.000 A 
ATOM     12  C   UNL     1       3.427   2.687  20.675  0.00  0.00    +0.000 A 
ENDBRANCH   6   7
ENDBRANCH   5   6
ENDBRANCH   4   5
ENDBRANCH   1   3
BRANCH   1  13
ATOM     13  C   UNL     1       2.465   7.343  17.758  0.00  0.00    +0.000 C 
BRANCH  13  14
ATOM     14  C   UNL     1       1.851   8.433  18.585  0.00  0.00    +0.000 C 
ATOM     15  C   UNL     1       1.523   8.275  19.885  0.00  0.00    +0.000 C 
ATOM     16  C   UNL     1       1.757   6.974  20.624  0.00  0.00    +0.000 C 
BRANCH  15  17
ATOM     17  C   UNL     1       0.907   9.352  20.652  0.00  0.00    +0.000 C 
ATOM     18  C   UNL     1       0.543   9.298  21.929  0.00  0.00    +0.000 C 
ATOM     19  C   UNL     1      -0.039  10.609  22.157  0.00  0.00    +0.000 C 
ATOM     20  O   UNL     1      -0.505  10.948  23.232  0.00  0.00    +0.000 OA
ATOM     21  C   UNL     1       0.023  11.433  20.900  0.00  0.00    +0.000 C 
ATOM     22  C   UNL     1       0.885  12.671  21.099  0.00  0.00    +0.000 C 
ATOM     23  C   UNL     1      -1.371  11.765  20.386  0.00  0.00    +0.000 C 
ATOM     24  O   UNL     1       0.668  10.546  19.965  0.00  0.00    +0.000 OA
ENDBRANCH  15  17
ENDBRANCH  13  14
ENDBRANCH   1  13
TORSDOF 7
ENDMDL
MODEL 7
REMARK VINA RESULT:      -7.4      4.331      7.777
REMARK  Name = 
REMARK  11 active torsions:
REMARK  status: ('A' for Active; 'I' for Inactive)
REMARK    1  A    between atoms: C_1  and  C_2
REMARK    2  A    between atoms: C_2  and  C_12
REMARK    3  A    between atoms: C_3  and  C_4
REMARK    4  A    between atoms: C_4  and  O_5
REMARK    5  A    between atoms: O_5  and  C_6
REMARK    6  A    between atoms: C_12  and  C_13
REMARK    7  A    between atoms: C_13  and  C_14
REMARK    8  A    between atoms: C_15  and  C_16
REMARK    9  A    between atoms: C_15  and  C_17
REMARK   10  A    between atoms: C_21  and  C_22
REMARK   11  A    between atoms: C_21  and  C_23
REMARK                            x       y       z     vdW  Elec       q    Type
REMARK                         _______ _______ _______ _____ _____    ______ ____
ROOT
ATOM      1  C   UNL     1       1.013   4.254  20.330  0.00  0.00    +0.000 C 
ENDROOT
BRANCH   1   3
ATOM      2  C   UNL     1       0.707   2.266  18.775  0.00  0.00    +0.000 C 
ATOM      3  C   UNL     1       1.461   3.537  19.062  0.00  0.00    +0.000 C 
ATOM      4  C   UNL     1       2.428   4.010  18.249  0.00  0.00    +0.000 C 
BRANCH   4   5
ATOM      5  C   UNL     1       2.979   3.369  17.019  0.00  0.00    +0.000 C 
BRANCH   5   6
ATOM      6  O   UNL     1       4.375   3.163  17.219  0.00  0.00    +0.000 OA
BRANCH   6   7
ATOM      7  C   UNL     1       5.100   4.321  17.296  0.00  0.00    +0.000 A 
ATOM      8  C   UNL     1       4.892   5.248  16.275  0.00  0.00    +0.000 A 
ATOM      9  C   UNL     1       5.594   6.454  16.273  0.00  0.00    +0.000 A 
ATOM     10  C   UNL     1       6.488   6.744  17.303  0.00  0.00    +0.000 A 
ATOM     11  C   UNL     1       6.680   5.829  18.336  0.00  0.00    +0.000 A 
ATOM     12  C   UNL     1       5.986   4.621  18.334  0.00  0.00    +0.000 A 
ENDBRANCH   6   7
ENDBRANCH   5   6
ENDBRANCH   4   5
ENDBRANCH   1   3
BRANCH   1  13
ATOM     13  C   UNL     1       2.002   5.310  20.841  0.00  0.00    +0.000 C 
BRANCH  13  14
ATOM     14  C   UNL     1       1.479   6.713  20.908  0.00  0.00    +0.000 C 
ATOM     15  C   UNL     1       1.770   7.653  19.984  0.00  0.00    +0.000 C 
ATOM     16  C   UNL     1       2.652   7.362  18.787  0.00  0.00    +0.000 C 
BRANCH  15  17
ATOM     17  C   UNL     1       1.259   9.014  20.094  0.00  0.00    +0.000 C 
ATOM     18  C   UNL     1       0.921   9.638  21.218  0.00  0.00    +0.000 C 
ATOM     19  C   UNL     1       0.450  10.928  20.745  0.00  0.00    +0.000 C 
ATOM     20  O   UNL     1       0.036  11.797  21.496  0.00  0.00    +0.000 OA
ATOM     21  C   UNL     1       0.547  11.002  19.246  0.00  0.00    +0.000 C 
ATOM     22  C   UNL     1       1.508  12.099  18.814  0.00  0.00    +0.000 C 
ATOM     23  C   UNL     1      -0.828  11.141  18.607  0.00  0.00    +0.000 C 
ATOM     24  O   UNL     1       1.099   9.717  18.895  0.00  0.00    +0.000 OA
ENDBRANCH  15  17
ENDBRANCH  13  14
ENDBRANCH   1  13
TORSDOF 7
ENDMDL
MODEL 8
REMARK VINA RESULT:      -7.3      5.304      7.447
REMARK  Name = 
REMARK  11 active torsions:
REMARK  status: ('A' for Active; 'I' for Inactive)
REMARK    1  A    between atoms: C_1  and  C_2
REMARK    2  A    between atoms: C_2  and  C_12
REMARK    3  A    between atoms: C_3  and  C_4
REMARK    4  A    between atoms: C_4  and  O_5
REMARK    5  A    between atoms: O_5  and  C_6
REMARK    6  A    between atoms: C_12  and  C_13
REMARK    7  A    between atoms: C_13  and  C_14
REMARK    8  A    between atoms: C_15  and  C_16
REMARK    9  A    between atoms: C_15  and  C_17
REMARK   10  A    between atoms: C_21  and  C_22
REMARK   11  A    between atoms: C_21  and  C_23
REMARK                            x       y       z     vdW  Elec       q    Type
REMARK                         _______ _______ _______ _____ _____    ______ ____
ROOT
ATOM      1  C   UNL     1       2.024   1.988  19.788  0.00  0.00    +0.000 C 
ENDROOT
BRANCH   1   3
ATOM      2  C   UNL     1       0.854   3.838  18.495  0.00  0.00    +0.000 C 
ATOM      3  C   UNL     1       1.593   3.449  19.748  0.00  0.00    +0.000 C 
ATOM      4  C   UNL     1       1.823   4.314  20.757  0.00  0.00    +0.000 C 
BRANCH   4   5
ATOM      5  C   UNL     1       1.493   5.769  20.802  0.00  0.00    +0.000 C 
BRANCH   5   6
ATOM      6  O   UNL     1       2.434   6.458  19.982  0.00  0.00    +0.000 OA
BRANCH   6   7
ATOM      7  C   UNL     1       2.013   7.695  19.575  0.00  0.00    +0.000 A 
ATOM      8  C   UNL     1       2.369   8.071  18.280  0.00  0.00    +0.000 A 
ATOM      9  C   UNL     1       1.985   9.318  17.786  0.00  0.00    +0.000 A 
ATOM     10  C   UNL     1       1.227  10.181  18.576  0.00  0.00    +0.000 A 
ATOM     11  C   UNL     1       0.851   9.797  19.862  0.00  0.00    +0.000 A 
ATOM     12  C   UNL     1       1.242   8.556  20.359  0.00  0.00    +0.000 A 
ENDBRANCH   6   7
ENDBRANCH   5   6
ENDBRANCH   4   5
ENDBRANCH   1   3
BRANCH   1  13
ATOM     13  C   UNL     1       3.445   1.735  19.269  0.00  0.00    +0.000 C 
BRANCH  13  14
ATOM     14  C   UNL     1       3.854   2.539  18.072  0.00  0.00    +0.000 C 
ATOM     15  C   UNL     1       4.653   3.625  18.151  0.00  0.00    +0.000 C 
ATOM     16  C   UNL     1       5.213   4.120  19.468  0.00  0.00    +0.000 C 
BRANCH  15  17
ATOM     17  C   UNL     1       5.012   4.394  16.966  0.00  0.00    +0.000 C 
ATOM     18  C   UNL     1       4.658   5.649  16.707  0.00  0.00    +0.000 C 
ATOM     19  C   UNL     1       5.246   5.890  15.401  0.00  0.00    +0.000 C 
ATOM     20  O   UNL     1       5.132   6.951  14.810  0.00  0.00    +0.000 OA
ATOM     21  C   UNL     1       5.979   4.666  14.924  0.00  0.00    +0.000 C 
ATOM     22  C   UNL     1       7.464   4.949  14.752  0.00  0.00    +0.000 C 
ATOM     23  C   UNL     1       5.341   4.093  13.666  0.00  0.00    +0.000 C 
ATOM     24  O   UNL     1       5.792   3.736  16.010  0.00  0.00    +0.000 OA
ENDBRANCH  15  17
ENDBRANCH  13  14
ENDBRANCH   1  13
TORSDOF 7
ENDMDL
MODEL 9
REMARK VINA RESULT:      -7.3      5.171      8.909
REMARK  Name = 
REMARK  11 active torsions:
REMARK  status: ('A' for Active; 'I' for Inactive)
REMARK    1  A    between atoms: C_1  and  C_2
REMARK    2  A    between atoms: C_2  and  C_12
REMARK    3  A    between atoms: C_3  and  C_4
REMARK    4  A    between atoms: C_4  and  O_5
REMARK    5  A    between atoms: O_5  and  C_6
REMARK    6  A    between atoms: C_12  and  C_13
REMARK    7  A    between atoms: C_13  and  C_14
REMARK    8  A    between atoms: C_15  and  C_16
REMARK    9  A    between atoms: C_15  and  C_17
REMARK   10  A    between atoms: C_21  and  C_22
REMARK   11  A    between atoms: C_21  and  C_23
REMARK                            x       y       z     vdW  Elec       q    Type
REMARK                         _______ _______ _______ _____ _____    ______ ____
ROOT
ATOM      1  C   UNL     1       3.592   7.712  17.396  0.00  0.00    +0.000 C 
ENDROOT
BRANCH   1   3
ATOM      2  C   UNL     1       5.158   6.234  16.043  0.00  0.00    +0.000 C 
ATOM      3  C   UNL     1       4.475   6.471  17.364  0.00  0.00    +0.000 C 
ATOM      4  C   UNL     1       4.657   5.667  18.432  0.00  0.00    +0.000 C 
BRANCH   4   5
ATOM      5  C   UNL     1       5.452   4.405  18.499  0.00  0.00    +0.000 C 
BRANCH   5   6
ATOM      6  O   UNL     1       4.939   3.620  19.572  0.00  0.00    +0.000 OA
BRANCH   6   7
ATOM      7  C   UNL     1       3.601   3.350  19.472  0.00  0.00    +0.000 A 
ATOM      8  C   UNL     1       2.791   3.871  20.481  0.00  0.00    +0.000 A 
ATOM      9  C   UNL     1       1.415   3.640  20.460  0.00  0.00    +0.000 A 
ATOM     10  C   UNL     1       0.845   2.908  19.419  0.00  0.00    +0.000 A 
ATOM     11  C   UNL     1       1.650   2.406  18.399  0.00  0.00    +0.000 A 
ATOM     12  C   UNL     1       3.025   2.629  18.424  0.00  0.00    +0.000 A 
ENDBRANCH   6   7
ENDBRANCH   5   6
ENDBRANCH   4   5
ENDBRANCH   1   3
BRANCH   1  13
ATOM     13  C   UNL     1       2.226   7.499  18.058  0.00  0.00    +0.000 C 
BRANCH  13  14
ATOM     14  C   UNL     1       1.667   8.680  18.793  0.00  0.00    +0.000 C 
ATOM     15  C   UNL     1       1.302   8.635  20.092  0.00  0.00    +0.000 C 
ATOM     16  C   UNL     1       1.436   7.376  20.924  0.00  0.00    +0.000 C 
BRANCH  15  17
ATOM     17  C   UNL     1       0.742   9.800  20.767  0.00  0.00    +0.000 C 
ATOM     18  C   UNL     1       0.303   9.845  22.021  0.00  0.00    +0.000 C 
ATOM     19  C   UNL     1      -0.172  11.211  22.150  0.00  0.00    +0.000 C 
ATOM     20  O   UNL     1      -0.666  11.646  23.178  0.00  0.00    +0.000 OA
ATOM     21  C   UNL     1       0.033  11.959  20.861  0.00  0.00    +0.000 C 
ATOM     22  C   UNL     1       0.989  13.128  21.053  0.00  0.00    +0.000 C 
ATOM     23  C   UNL     1      -1.294  12.382  20.248  0.00  0.00    +0.000 C 
ATOM     24  O   UNL     1       0.649  10.972  20.011  0.00  0.00    +0.000 OA
ENDBRANCH  15  17
ENDBRANCH  13  14
ENDBRANCH   1  13
TORSDOF 7
ENDMDL
