MODEL 1
REMARK VINA RESULT:      -8.9      0.000      0.000
REMARK  Name = 
REMARK  4 active torsions:
REMARK  status: ('A' for Active; 'I' for Inactive)
REMARK    1  A    between atoms: C_2  and  C_20
REMARK    2  A    between atoms: N_3  and  C_4
REMARK    3  A    between atoms: C_13  and  O_14
REMARK    4  A    between atoms: O_14  and  C_15
REMARK                            x       y       z     vdW  Elec       q    Type
REMARK                         _______ _______ _______ _____ _____    ______ ____
ROOT
ATOM      1  C   UNL     1       2.934   6.585  18.402  0.00  0.00    +0.000 A 
ATOM      2  C   UNL     1       4.124   6.946  17.744  0.00  0.00    +0.000 A 
ATOM      3  C   UNL     1       4.883   6.006  17.020  0.00  0.00    +0.000 A 
ATOM      4  C   UNL     1       6.069   6.350  16.349  0.00  0.00    +0.000 A 
ATOM      5  C   UNL     1       6.800   5.367  15.695  0.00  0.00    +0.000 A 
ATOM      6  C   UNL     1       6.317   4.075  15.716  0.00  0.00    +0.000 A 
ATOM      7  N   UNL     1       5.159   3.720  16.312  0.00  0.00    +0.000 NA
ATOM      8  C   UNL     1       4.460   4.671  16.952  0.00  0.00    +0.000 A 
ATOM      9  C   UNL     1       3.267   4.341  17.573  0.00  0.00    +0.000 A 
ATOM     10  C   UNL     1       2.487   5.266  18.296  0.00  0.00    +0.000 A 
ENDROOT
BRANCH   1  13
ATOM     11  O   UNL     1       2.051   8.989  17.257  0.00  0.00    +0.000 OA
ATOM     12  C   UNL     1       1.765   8.726  18.424  0.00  0.00    +0.000 C 
ATOM     13  N   UNL     1       2.242   7.606  19.085  0.00  0.00    +0.000 N 
ATOM     14  H   UNL     1       2.062   7.494  20.077  0.00  0.00    +0.000 HD
BRANCH  12  15
ATOM     15  C   UNL     1       0.926   9.638  19.199  0.00  0.00    +0.000 A 
ATOM     16  C   UNL     1       0.104  10.557  18.564  0.00  0.00    +0.000 A 
ATOM     17  S   UNL     1      -0.903  11.413  19.638  0.00  0.00    +0.000 S 
ATOM     18  C   UNL     1      -0.247  10.599  20.992  0.00  0.00    +0.000 A 
ATOM     19  C   UNL     1      -0.590  10.715  22.331  0.00  0.00    +0.000 A 
ATOM     20  N   UNL     1       0.081   9.991  23.246  0.00  0.00    +0.000 NA
ATOM     21  C   UNL     1       1.056   9.180  22.809  0.00  0.00    +0.000 A 
ATOM     22  N   UNL     1       1.452   8.981  21.543  0.00  0.00    +0.000 NA
ATOM     23  C   UNL     1       0.762   9.709  20.624  0.00  0.00    +0.000 A 
ENDBRANCH  12  15
ENDBRANCH   1  13
BRANCH  10  24
ATOM     24  O   UNL     1       1.389   4.655  18.815  0.00  0.00    +0.000 OA
BRANCH  24  25
ATOM     25  C   UNL     1       1.137   4.499  20.207  0.00  0.00    +0.000 C 
ATOM     26  C   UNL     1       2.396   4.469  21.057  0.00  0.00    +0.000 C 
ATOM     27  C   UNL     1       2.896   3.043  20.909  0.00  0.00    +0.000 C 
ATOM     28  N   UNL     1       1.693   2.208  20.870  0.00  0.00    +0.000 NA
ATOM     29  C   UNL     1       0.596   3.065  20.376  0.00  0.00    +0.000 C 
ATOM     30  H   UNL     1       1.469   1.881  21.809  0.00  0.00    +0.000 HD
ENDBRANCH  24  25
ENDBRANCH  10  24
TORSDOF 4
ENDMDL
MODEL 2
REMARK VINA RESULT:      -8.4      0.875      1.157
REMARK  Name = 
REMARK  4 active torsions:
REMARK  status: ('A' for Active; 'I' for Inactive)
REMARK    1  A    between atoms: C_2  and  C_20
REMARK    2  A    between atoms: N_3  and  C_4
REMARK    3  A    between atoms: C_13  and  O_14
REMARK    4  A    between atoms: O_14  and  C_15
REMARK                            x       y       z     vdW  Elec       q    Type
REMARK                         _______ _______ _______ _____ _____    ______ ____
ROOT
ATOM      1  C   UNL     1       3.381   6.532  18.542  0.00  0.00    +0.000 A 
ATOM      2  C   UNL     1       3.962   6.871  17.306  0.00  0.00    +0.000 A 
ATOM      3  C   UNL     1       4.781   5.967  16.601  0.00  0.00    +0.000 A 
ATOM      4  C   UNL     1       5.363   6.285  15.362  0.00  0.00    +0.000 A 
ATOM      5  C   UNL     1       6.202   5.370  14.741  0.00  0.00    +0.000 A 
ATOM      6  C   UNL     1       6.423   4.160  15.368  0.00  0.00    +0.000 A 
ATOM      7  N   UNL     1       5.844   3.807  16.534  0.00  0.00    +0.000 NA
ATOM      8  C   UNL     1       5.040   4.698  17.137  0.00  0.00    +0.000 A 
ATOM      9  C   UNL     1       4.429   4.367  18.336  0.00  0.00    +0.000 A 
ATOM     10  C   UNL     1       3.600   5.251  19.054  0.00  0.00    +0.000 A 
ENDROOT
BRANCH   1  13
ATOM     11  O   UNL     1       2.311   8.791  17.267  0.00  0.00    +0.000 OA
ATOM     12  C   UNL     1       2.006   8.545  18.432  0.00  0.00    +0.000 C 
ATOM     13  N   UNL     1       2.564   7.504  19.157  0.00  0.00    +0.000 N 
ATOM     14  H   UNL     1       2.357   7.412  20.145  0.00  0.00    +0.000 HD
BRANCH  12  15
ATOM     15  C   UNL     1       1.051   9.397  19.138  0.00  0.00    +0.000 A 
ATOM     16  C   UNL     1       0.127  10.157  18.437  0.00  0.00    +0.000 A 
ATOM     17  S   UNL     1      -0.990  10.955  19.444  0.00  0.00    +0.000 S 
ATOM     18  C   UNL     1      -0.253  10.328  20.855  0.00  0.00    +0.000 A 
ATOM     19  C   UNL     1      -0.622  10.496  22.181  0.00  0.00    +0.000 A 
ATOM     20  N   UNL     1       0.124   9.929  23.147  0.00  0.00    +0.000 NA
ATOM     21  C   UNL     1       1.199   9.218  22.772  0.00  0.00    +0.000 A 
ATOM     22  N   UNL     1       1.630   8.980  21.524  0.00  0.00    +0.000 NA
ATOM     23  C   UNL     1       0.864   9.548  20.554  0.00  0.00    +0.000 A 
ENDBRANCH  12  15
ENDBRANCH   1  13
BRANCH  10  24
ATOM     24  O   UNL     1       3.165   4.665  20.200  0.00  0.00    +0.000 OA
BRANCH  24  25
ATOM     25  C   UNL     1       3.028   3.261  20.385  0.00  0.00    +0.000 C 
ATOM     26  C   UNL     1       2.110   2.598  19.371  0.00  0.00    +0.000 C 
ATOM     27  C   UNL     1       0.718   2.883  19.906  0.00  0.00    +0.000 C 
ATOM     28  N   UNL     1       0.832   2.793  21.364  0.00  0.00    +0.000 NA
ATOM     29  C   UNL     1       2.240   3.087  21.699  0.00  0.00    +0.000 C 
ATOM     30  H   UNL     1       0.602   1.849  21.671  0.00  0.00    +0.000 HD
ENDBRANCH  24  25
ENDBRANCH  10  24
TORSDOF 4
ENDMDL
MODEL 3
REMARK VINA RESULT:      -8.2      1.638      2.169
REMARK  Name = 
REMARK  4 active torsions:
REMARK  status: ('A' for Active; 'I' for Inactive)
REMARK    1  A    between atoms: C_2  and  C_20
REMARK    2  A    between atoms: N_3  and  C_4
REMARK    3  A    between atoms: C_13  and  O_14
REMARK    4  A    between atoms: O_14  and  C_15
REMARK                            x       y       z     vdW  Elec       q    Type
REMARK                         _______ _______ _______ _____ _____    ______ ____
ROOT
ATOM      1  C   UNL     1       2.875   6.633  18.372  0.00  0.00    +0.000 A 
ATOM      2  C   UNL     1       4.068   7.022  17.733  0.00  0.00    +0.000 A 
ATOM      3  C   UNL     1       4.868   6.097  17.035  0.00  0.00    +0.000 A 
ATOM      4  C   UNL     1       6.057   6.468  16.384  0.00  0.00    +0.000 A 
ATOM      5  C   UNL     1       6.829   5.500  15.756  0.00  0.00    +0.000 A 
ATOM      6  C   UNL     1       6.383   4.194  15.784  0.00  0.00    +0.000 A 
ATOM      7  N   UNL     1       5.225   3.813  16.360  0.00  0.00    +0.000 NA
ATOM      8  C   UNL     1       4.485   4.750  16.976  0.00  0.00    +0.000 A 
ATOM      9  C   UNL     1       3.290   4.392  17.576  0.00  0.00    +0.000 A 
ATOM     10  C   UNL     1       2.469   5.301  18.272  0.00  0.00    +0.000 A 
ENDROOT
BRANCH   1  13
ATOM     11  O   UNL     1       2.065   9.060  17.220  0.00  0.00    +0.000 OA
ATOM     12  C   UNL     1       1.705   8.775  18.360  0.00  0.00    +0.000 C 
ATOM     13  N   UNL     1       2.140   7.642  19.029  0.00  0.00    +0.000 N 
ATOM     14  H   UNL     1       1.897   7.511  20.005  0.00  0.00    +0.000 HD
BRANCH  12  15
ATOM     15  C   UNL     1       0.818   9.671  19.098  0.00  0.00    +0.000 A 
ATOM     16  C   UNL     1       1.166  10.132  20.359  0.00  0.00    +0.000 A 
ATOM     17  S   UNL     1       0.076  11.284  20.979  0.00  0.00    +0.000 S 
ATOM     18  C   UNL     1      -0.914  11.180  19.588  0.00  0.00    +0.000 A 
ATOM     19  C   UNL     1      -2.068  11.886  19.282  0.00  0.00    +0.000 A 
ATOM     20  N   UNL     1      -2.712  11.625  18.129  0.00  0.00    +0.000 NA
ATOM     21  C   UNL     1      -2.195  10.685  17.323  0.00  0.00    +0.000 A 
ATOM     22  N   UNL     1      -1.081   9.962  17.514  0.00  0.00    +0.000 NA
ATOM     23  C   UNL     1      -0.431  10.241  18.677  0.00  0.00    +0.000 A 
ENDBRANCH  12  15
ENDBRANCH   1  13
BRANCH  10  24
ATOM     24  O   UNL     1       1.380   4.664  18.777  0.00  0.00    +0.000 OA
BRANCH  24  25
ATOM     25  C   UNL     1       1.112   4.502  20.165  0.00  0.00    +0.000 C 
ATOM     26  C   UNL     1       2.360   4.502  21.033  0.00  0.00    +0.000 C 
ATOM     27  C   UNL     1       2.895   3.089  20.892  0.00  0.00    +0.000 C 
ATOM     28  N   UNL     1       1.713   2.225  20.838  0.00  0.00    +0.000 NA
ATOM     29  C   UNL     1       0.603   3.056  20.328  0.00  0.00    +0.000 C 
ATOM     30  H   UNL     1       1.484   1.893  21.773  0.00  0.00    +0.000 HD
ENDBRANCH  24  25
ENDBRANCH  10  24
TORSDOF 4
ENDMDL
MODEL 4
REMARK VINA RESULT:      -8.1      1.721      2.212
REMARK  Name = 
REMARK  4 active torsions:
REMARK  status: ('A' for Active; 'I' for Inactive)
REMARK    1  A    between atoms: C_2  and  C_20
REMARK    2  A    between atoms: N_3  and  C_4
REMARK    3  A    between atoms: C_13  and  O_14
REMARK    4  A    between atoms: O_14  and  C_15
REMARK                            x       y       z     vdW  Elec       q    Type
REMARK                         _______ _______ _______ _____ _____    ______ ____
ROOT
ATOM      1  C   UNL     1       3.786   5.969  18.693  0.00  0.00    +0.000 A 
ATOM      2  C   UNL     1       4.237   6.448  17.449  0.00  0.00    +0.000 A 
ATOM      3  C   UNL     1       4.903   5.611  16.532  0.00  0.00    +0.000 A 
ATOM      4  C   UNL     1       5.353   6.068  15.282  0.00  0.00    +0.000 A 
ATOM      5  C   UNL     1       6.049   5.208  14.443  0.00  0.00    +0.000 A 
ATOM      6  C   UNL     1       6.260   3.913  14.871  0.00  0.00    +0.000 A 
ATOM      7  N   UNL     1       5.802   3.430  16.045  0.00  0.00    +0.000 NA
ATOM      8  C   UNL     1       5.138   4.268  16.858  0.00  0.00    +0.000 A 
ATOM      9  C   UNL     1       4.654   3.804  18.070  0.00  0.00    +0.000 A 
ATOM     10  C   UNL     1       3.977   4.620  18.998  0.00  0.00    +0.000 A 
ENDROOT
BRANCH   1  13
ATOM     11  O   UNL     1       1.968   7.924  17.828  0.00  0.00    +0.000 OA
ATOM     12  C   UNL     1       2.167   7.763  19.030  0.00  0.00    +0.000 C 
ATOM     13  N   UNL     1       3.116   6.886  19.530  0.00  0.00    +0.000 N 
ATOM     14  H   UNL     1       3.313   6.872  20.524  0.00  0.00    +0.000 HD
BRANCH  12  15
ATOM     15  C   UNL     1       1.425   8.553  20.011  0.00  0.00    +0.000 A 
ATOM     16  C   UNL     1       1.346   8.146  21.334  0.00  0.00    +0.000 A 
ATOM     17  S   UNL     1       0.572   9.281  22.341  0.00  0.00    +0.000 S 
ATOM     18  C   UNL     1       0.292  10.341  21.029  0.00  0.00    +0.000 A 
ATOM     19  C   UNL     1      -0.301  11.595  21.030  0.00  0.00    +0.000 A 
ATOM     20  N   UNL     1      -0.447  12.253  19.865  0.00  0.00    +0.000 NA
ATOM     21  C   UNL     1      -0.000  11.657  18.749  0.00  0.00    +0.000 A 
ATOM     22  N   UNL     1       0.601  10.463  18.641  0.00  0.00    +0.000 NA
ATOM     23  C   UNL     1       0.754   9.809  19.825  0.00  0.00    +0.000 A 
ENDBRANCH  12  15
ENDBRANCH   1  13
BRANCH  10  24
ATOM     24  O   UNL     1       3.644   3.902  20.103  0.00  0.00    +0.000 OA
BRANCH  24  25
ATOM     25  C   UNL     1       2.929   2.672  20.080  0.00  0.00    +0.000 C 
ATOM     26  C   UNL     1       1.656   2.721  19.252  0.00  0.00    +0.000 C 
ATOM     27  C   UNL     1       0.650   3.377  20.180  0.00  0.00    +0.000 C 
ATOM     28  N   UNL     1       0.956   2.864  21.517  0.00  0.00    +0.000 NA
ATOM     29  C   UNL     1       2.382   2.479  21.508  0.00  0.00    +0.000 C 
ATOM     30  H   UNL     1       0.385   2.043  21.711  0.00  0.00    +0.000 HD
ENDBRANCH  24  25
ENDBRANCH  10  24
TORSDOF 4
ENDMDL
MODEL 5
REMARK VINA RESULT:      -8.0      1.579      1.956
REMARK  Name = 
REMARK  4 active torsions:
REMARK  status: ('A' for Active; 'I' for Inactive)
REMARK    1  A    between atoms: C_2  and  C_20
REMARK    2  A    between atoms: N_3  and  C_4
REMARK    3  A    between atoms: C_13  and  O_14
REMARK    4  A    between atoms: O_14  and  C_15
REMARK                            x       y       z     vdW  Elec       q    Type
REMARK                         _______ _______ _______ _____ _____    ______ ____
ROOT
ATOM      1  C   UNL     1       3.227   6.208  18.522  0.00  0.00    +0.000 A 
ATOM      2  C   UNL     1       4.519   6.604  18.129  0.00  0.00    +0.000 A 
ATOM      3  C   UNL     1       5.277   5.850  17.212  0.00  0.00    +0.000 A 
ATOM      4  C   UNL     1       6.565   6.234  16.802  0.00  0.00    +0.000 A 
ATOM      5  C   UNL     1       7.282   5.421  15.934  0.00  0.00    +0.000 A 
ATOM      6  C   UNL     1       6.686   4.257  15.491  0.00  0.00    +0.000 A 
ATOM      7  N   UNL     1       5.435   3.883  15.831  0.00  0.00    +0.000 NA
ATOM      8  C   UNL     1       4.748   4.667  16.678  0.00  0.00    +0.000 A 
ATOM      9  C   UNL     1       3.460   4.312  17.045  0.00  0.00    +0.000 A 
ATOM     10  C   UNL     1       2.681   5.056  17.954  0.00  0.00    +0.000 A 
ENDROOT
BRANCH   1  13
ATOM     11  O   UNL     1       2.020   8.659  17.882  0.00  0.00    +0.000 OA
ATOM     12  C   UNL     1       1.905   8.198  19.016  0.00  0.00    +0.000 C 
ATOM     13  N   UNL     1       2.547   7.044  19.433  0.00  0.00    +0.000 N 
ATOM     14  H   UNL     1       2.503   6.768  20.407  0.00  0.00    +0.000 HD
BRANCH  12  15
ATOM     15  C   UNL     1       1.101   8.898  20.016  0.00  0.00    +0.000 A 
ATOM     16  C   UNL     1       1.219   8.588  21.363  0.00  0.00    +0.000 A 
ATOM     17  S   UNL     1       0.315   9.620  22.372  0.00  0.00    +0.000 S 
ATOM     18  C   UNL     1      -0.287  10.497  21.032  0.00  0.00    +0.000 A 
ATOM     19  C   UNL     1      -1.123  11.604  21.017  0.00  0.00    +0.000 A 
ATOM     20  N   UNL     1      -1.499  12.127  19.835  0.00  0.00    +0.000 NA
ATOM     21  C   UNL     1      -1.035  11.547  18.718  0.00  0.00    +0.000 A 
ATOM     22  N   UNL     1      -0.211  10.492  18.623  0.00  0.00    +0.000 NA
ATOM     23  C   UNL     1       0.172   9.976  19.822  0.00  0.00    +0.000 A 
ENDBRANCH  12  15
ENDBRANCH   1  13
BRANCH  10  24
ATOM     24  O   UNL     1       1.476   4.456  18.143  0.00  0.00    +0.000 OA
BRANCH  24  25
ATOM     25  C   UNL     1       1.115   3.724  19.309  0.00  0.00    +0.000 C 
ATOM     26  C   UNL     1       2.291   3.395  20.214  0.00  0.00    +0.000 C 
ATOM     27  C   UNL     1       2.924   2.183  19.553  0.00  0.00    +0.000 C 
ATOM     28  N   UNL     1       1.806   1.390  19.036  0.00  0.00    +0.000 NA
ATOM     29  C   UNL     1       0.688   2.328  18.811  0.00  0.00    +0.000 C 
ATOM     30  H   UNL     1       1.529   0.693  19.725  0.00  0.00    +0.000 HD
ENDBRANCH  24  25
ENDBRANCH  10  24
TORSDOF 4
ENDMDL
MODEL 6
REMARK VINA RESULT:      -7.9      1.559      2.021
REMARK  Name = 
REMARK  4 active torsions:
REMARK  status: ('A' for Active; 'I' for Inactive)
REMARK    1  A    between atoms: C_2  and  C_20
REMARK    2  A    between atoms: N_3  and  C_4
REMARK    3  A    between atoms: C_13  and  O_14
REMARK    4  A    between atoms: O_14  and  C_15
REMARK                            x       y       z     vdW  Elec       q    Type
REMARK                         _______ _______ _______ _____ _____    ______ ____
ROOT
ATOM      1  C   UNL     1       3.429   5.989  18.347  0.00  0.00    +0.000 A 
ATOM      2  C   UNL     1       4.669   6.379  17.806  0.00  0.00    +0.000 A 
ATOM      3  C   UNL     1       5.342   5.589  16.854  0.00  0.00    +0.000 A 
ATOM      4  C   UNL     1       6.575   5.967  16.297  0.00  0.00    +0.000 A 
ATOM      5  C   UNL     1       7.214   5.120  15.400  0.00  0.00    +0.000 A 
ATOM      6  C   UNL     1       6.594   3.930  15.075  0.00  0.00    +0.000 A 
ATOM      7  N   UNL     1       5.390   3.560  15.557  0.00  0.00    +0.000 NA
ATOM      8  C   UNL     1       4.780   4.376  16.432  0.00  0.00    +0.000 A 
ATOM      9  C   UNL     1       3.541   4.026  16.945  0.00  0.00    +0.000 A 
ATOM     10  C   UNL     1       2.846   4.805  17.891  0.00  0.00    +0.000 A 
ENDROOT
BRANCH   1  13
ATOM     11  O   UNL     1       2.074   8.363  17.712  0.00  0.00    +0.000 OA
ATOM     12  C   UNL     1       2.107   7.970  18.877  0.00  0.00    +0.000 C 
ATOM     13  N   UNL     1       2.832   6.860  19.281  0.00  0.00    +0.000 N 
ATOM     14  H   UNL     1       2.910   6.644  20.268  0.00  0.00    +0.000 HD
BRANCH  12  15
ATOM     15  C   UNL     1       1.401   8.708  19.922  0.00  0.00    +0.000 A 
ATOM     16  C   UNL     1       1.301   8.194  21.207  0.00  0.00    +0.000 A 
ATOM     17  S   UNL     1       0.580   9.274  22.308  0.00  0.00    +0.000 S 
ATOM     18  C   UNL     1       0.353  10.454  21.091  0.00  0.00    +0.000 A 
ATOM     19  C   UNL     1      -0.180  11.730  21.200  0.00  0.00    +0.000 A 
ATOM     20  N   UNL     1      -0.292  12.492  20.095  0.00  0.00    +0.000 NA
ATOM     21  C   UNL     1       0.127  11.972  18.932  0.00  0.00    +0.000 A 
ATOM     22  N   UNL     1       0.672  10.764  18.722  0.00  0.00    +0.000 NA
ATOM     23  C   UNL     1       0.791  10.005  19.845  0.00  0.00    +0.000 A 
ENDBRANCH  12  15
ENDBRANCH   1  13
BRANCH  10  24
ATOM     24  O   UNL     1       1.676   4.202  18.230  0.00  0.00    +0.000 OA
BRANCH  24  25
ATOM     25  C   UNL     1       1.579   2.938  18.877  0.00  0.00    +0.000 C 
ATOM     26  C   UNL     1       0.643   2.934  20.075  0.00  0.00    +0.000 C 
ATOM     27  C   UNL     1       1.484   3.528  21.190  0.00  0.00    +0.000 C 
ATOM     28  N   UNL     1       2.839   3.013  20.976  0.00  0.00    +0.000 NA
ATOM     29  C   UNL     1       2.952   2.699  19.537  0.00  0.00    +0.000 C 
ATOM     30  H   UNL     1       2.975   2.161  21.519  0.00  0.00    +0.000 HD
ENDBRANCH  24  25
ENDBRANCH  10  24
TORSDOF 4
ENDMDL
MODEL 7
REMARK VINA RESULT:      -7.9      1.576      1.927
REMARK  Name = 
REMARK  4 active torsions:
REMARK  status: ('A' for Active; 'I' for Inactive)
REMARK    1  A    between atoms: C_2  and  C_20
REMARK    2  A    between atoms: N_3  and  C_4
REMARK    3  A    between atoms: C_13  and  O_14
REMARK    4  A    between atoms: O_14  and  C_15
REMARK                            x       y       z     vdW  Elec       q    Type
REMARK                         _______ _______ _______ _____ _____    ______ ____
ROOT
ATOM      1  C   UNL     1       3.167   6.563  18.366  0.00  0.00    +0.000 A 
ATOM      2  C   UNL     1       4.360   6.853  17.677  0.00  0.00    +0.000 A 
ATOM      3  C   UNL     1       5.019   5.881  16.900  0.00  0.00    +0.000 A 
ATOM      4  C   UNL     1       6.206   6.153  16.199  0.00  0.00    +0.000 A 
ATOM      5  C   UNL     1       6.837   5.139  15.492  0.00  0.00    +0.000 A 
ATOM      6  C   UNL     1       6.256   3.886  15.494  0.00  0.00    +0.000 A 
ATOM      7  N   UNL     1       5.095   3.603  16.120  0.00  0.00    +0.000 NA
ATOM      8  C   UNL     1       4.492   4.584  16.811  0.00  0.00    +0.000 A 
ATOM      9  C   UNL     1       3.298   4.327  17.464  0.00  0.00    +0.000 A 
ATOM     10  C   UNL     1       2.616   5.286  18.239  0.00  0.00    +0.000 A 
ENDROOT
BRANCH   1  13
ATOM     11  O   UNL     1       1.903   8.809  17.256  0.00  0.00    +0.000 OA
ATOM     12  C   UNL     1       1.897   8.644  18.475  0.00  0.00    +0.000 C 
ATOM     13  N   UNL     1       2.578   7.613  19.102  0.00  0.00    +0.000 N 
ATOM     14  H   UNL     1       2.628   7.586  20.114  0.00  0.00    +0.000 HD
BRANCH  12  15
ATOM     15  C   UNL     1       1.194   9.587  19.342  0.00  0.00    +0.000 A 
ATOM     16  C   UNL     1       0.373   9.132  20.363  0.00  0.00    +0.000 A 
ATOM     17  S   UNL     1      -0.227  10.383  21.350  0.00  0.00    +0.000 S 
ATOM     18  C   UNL     1       0.572  11.577  20.422  0.00  0.00    +0.000 A 
ATOM     19  C   UNL     1       0.615  12.950  20.615  0.00  0.00    +0.000 A 
ATOM     20  N   UNL     1       1.290  13.716  19.738  0.00  0.00    +0.000 NA
ATOM     21  C   UNL     1       1.898  13.103  18.711  0.00  0.00    +0.000 A 
ATOM     22  N   UNL     1       1.934  11.788  18.445  0.00  0.00    +0.000 NA
ATOM     23  C   UNL     1       1.258  11.021  19.343  0.00  0.00    +0.000 A 
ENDBRANCH  12  15
ENDBRANCH   1  13
BRANCH  10  24
ATOM     24  O   UNL     1       1.493   4.744  18.779  0.00  0.00    +0.000 OA
BRANCH  24  25
ATOM     25  C   UNL     1       1.265   4.586  20.175  0.00  0.00    +0.000 C 
ATOM     26  C   UNL     1       2.540   4.438  20.989  0.00  0.00    +0.000 C 
ATOM     27  C   UNL     1       2.916   2.979  20.805  0.00  0.00    +0.000 C 
ATOM     28  N   UNL     1       1.648   2.246  20.788  0.00  0.00    +0.000 NA
ATOM     29  C   UNL     1       0.613   3.198  20.338  0.00  0.00    +0.000 C 
ATOM     30  H   UNL     1       1.424   1.923  21.728  0.00  0.00    +0.000 HD
ENDBRANCH  24  25
ENDBRANCH  10  24
TORSDOF 4
ENDMDL
MODEL 8
REMARK VINA RESULT:      -7.8      1.686      4.098
REMARK  Name = 
REMARK  4 active torsions:
REMARK  status: ('A' for Active; 'I' for Inactive)
REMARK    1  A    between atoms: C_2  and  C_20
REMARK    2  A    between atoms: N_3  and  C_4
REMARK    3  A    between atoms: C_13  and  O_14
REMARK    4  A    between atoms: O_14  and  C_15
REMARK                            x       y       z     vdW  Elec       q    Type
REMARK                         _______ _______ _______ _____ _____    ______ ____
ROOT
ATOM      1  C   UNL     1       2.668   6.255  19.434  0.00  0.00    +0.000 A 
ATOM      2  C   UNL     1       1.664   5.297  19.671  0.00  0.00    +0.000 A 
ATOM      3  C   UNL     1       1.857   3.934  19.375  0.00  0.00    +0.000 A 
ATOM      4  C   UNL     1       0.870   2.963  19.612  0.00  0.00    +0.000 A 
ATOM      5  C   UNL     1       1.102   1.642  19.251  0.00  0.00    +0.000 A 
ATOM      6  C   UNL     1       2.318   1.329  18.678  0.00  0.00    +0.000 A 
ATOM      7  N   UNL     1       3.304   2.229  18.479  0.00  0.00    +0.000 NA
ATOM      8  C   UNL     1       3.072   3.507  18.820  0.00  0.00    +0.000 A 
ATOM      9  C   UNL     1       4.063   4.456  18.629  0.00  0.00    +0.000 A 
ATOM     10  C   UNL     1       3.895   5.823  18.926  0.00  0.00    +0.000 A 
ENDROOT
BRANCH   1  13
ATOM     11  O   UNL     1       1.690   8.211  17.676  0.00  0.00    +0.000 OA
ATOM     12  C   UNL     1       1.815   8.471  18.871  0.00  0.00    +0.000 C 
ATOM     13  N   UNL     1       2.377   7.591  19.782  0.00  0.00    +0.000 N 
ATOM     14  H   UNL     1       2.555   7.896  20.732  0.00  0.00    +0.000 HD
BRANCH  12  15
ATOM     15  C   UNL     1       1.411   9.777  19.387  0.00  0.00    +0.000 A 
ATOM     16  C   UNL     1       1.511  10.912  18.596  0.00  0.00    +0.000 A 
ATOM     17  S   UNL     1       0.846  12.300  19.325  0.00  0.00    +0.000 S 
ATOM     18  C   UNL     1       0.427  11.429  20.736  0.00  0.00    +0.000 A 
ATOM     19  C   UNL     1      -0.233  11.872  21.872  0.00  0.00    +0.000 A 
ATOM     20  N   UNL     1      -0.438  11.014  22.889  0.00  0.00    +0.000 NA
ATOM     21  C   UNL     1       0.008   9.757  22.747  0.00  0.00    +0.000 A 
ATOM     22  N   UNL     1       0.638   9.225  21.689  0.00  0.00    +0.000 NA
ATOM     23  C   UNL     1       0.832  10.096  20.661  0.00  0.00    +0.000 A 
ENDBRANCH  12  15
ENDBRANCH   1  13
BRANCH  10  24
ATOM     24  O   UNL     1       5.021   6.517  18.612  0.00  0.00    +0.000 OA
BRANCH  24  25
ATOM     25  C   UNL     1       5.248   7.161  17.364  0.00  0.00    +0.000 C 
ATOM     26  C   UNL     1       5.057   6.251  16.162  0.00  0.00    +0.000 C 
ATOM     27  C   UNL     1       6.360   5.476  16.087  0.00  0.00    +0.000 C 
ATOM     28  N   UNL     1       7.406   6.429  16.465  0.00  0.00    +0.000 NA
ATOM     29  C   UNL     1       6.762   7.452  17.313  0.00  0.00    +0.000 C 
ATOM     30  H   UNL     1       7.787   6.872  15.631  0.00  0.00    +0.000 HD
ENDBRANCH  24  25
ENDBRANCH  10  24
TORSDOF 4
ENDMDL
MODEL 9
REMARK VINA RESULT:      -7.7      1.939      4.192
REMARK  Name = 
REMARK  4 active torsions:
REMARK  status: ('A' for Active; 'I' for Inactive)
REMARK    1  A    between atoms: C_2  and  C_20
REMARK    2  A    between atoms: N_3  and  C_4
REMARK    3  A    between atoms: C_13  and  O_14
REMARK    4  A    between atoms: O_14  and  C_15
REMARK                            x       y       z     vdW  Elec       q    Type
REMARK                         _______ _______ _______ _____ _____    ______ ____
ROOT
ATOM      1  C   UNL     1       2.750   6.297  19.265  0.00  0.00    +0.000 A 
ATOM      2  C   UNL     1       1.716   5.392  19.568  0.00  0.00    +0.000 A 
ATOM      3  C   UNL     1       1.842   4.013  19.311  0.00  0.00    +0.000 A 
ATOM      4  C   UNL     1       0.825   3.092  19.615  0.00  0.00    +0.000 A 
ATOM      5  C   UNL     1       0.988   1.752  19.289  0.00  0.00    +0.000 A 
ATOM      6  C   UNL     1       2.168   1.369  18.685  0.00  0.00    +0.000 A 
ATOM      7  N   UNL     1       3.182   2.220  18.422  0.00  0.00    +0.000 NA
ATOM      8  C   UNL     1       3.017   3.516  18.728  0.00  0.00    +0.000 A 
ATOM      9  C   UNL     1       4.039   4.415  18.472  0.00  0.00    +0.000 A 
ATOM     10  C   UNL     1       3.939   5.797  18.729  0.00  0.00    +0.000 A 
ENDROOT
BRANCH   1  13
ATOM     11  O   UNL     1       1.637   8.200  17.529  0.00  0.00    +0.000 OA
ATOM     12  C   UNL     1       1.894   8.509  18.691  0.00  0.00    +0.000 C 
ATOM     13  N   UNL     1       2.529   7.654  19.578  0.00  0.00    +0.000 N 
ATOM     14  H   UNL     1       2.812   7.996  20.490  0.00  0.00    +0.000 HD
BRANCH  12  15
ATOM     15  C   UNL     1       1.576   9.847  19.185  0.00  0.00    +0.000 A 
ATOM     16  C   UNL     1       1.794  10.964  18.392  0.00  0.00    +0.000 A 
ATOM     17  S   UNL     1       1.215  12.406  19.088  0.00  0.00    +0.000 S 
ATOM     18  C   UNL     1       0.679  11.583  20.488  0.00  0.00    +0.000 A 
ATOM     19  C   UNL     1       0.016  12.086  21.597  0.00  0.00    +0.000 A 
ATOM     20  N   UNL     1      -0.292  11.256  22.611  0.00  0.00    +0.000 NA
ATOM     21  C   UNL     1       0.058   9.966  22.492  0.00  0.00    +0.000 A 
ATOM     22  N   UNL     1       0.681   9.377  21.460  0.00  0.00    +0.000 NA
ATOM     23  C   UNL     1       0.979  10.221  20.436  0.00  0.00    +0.000 A 
ENDBRANCH  12  15
ENDBRANCH   1  13
BRANCH  10  24
ATOM     24  O   UNL     1       5.081   6.431  18.353  0.00  0.00    +0.000 OA
BRANCH  24  25
ATOM     25  C   UNL     1       6.278   5.769  17.959  0.00  0.00    +0.000 C 
ATOM     26  C   UNL     1       7.488   6.142  18.800  0.00  0.00    +0.000 C 
ATOM     27  C   UNL     1       7.936   7.469  18.214  0.00  0.00    +0.000 C 
ATOM     28  N   UNL     1       7.716   7.355  16.770  0.00  0.00    +0.000 NA
ATOM     29  C   UNL     1       6.646   6.356  16.581  0.00  0.00    +0.000 C 
ATOM     30  H   UNL     1       8.568   7.029  16.315  0.00  0.00    +0.000 HD
ENDBRANCH  24  25
ENDBRANCH  10  24
TORSDOF 4
ENDMDL
