MODEL 1
REMARK VINA RESULT:      -7.4      0.000      0.000
REMARK  Name = 
REMARK  2 active torsions:
REMARK  status: ('A' for Active; 'I' for Inactive)
REMARK    1  A    between atoms: N_1  and  C_2
REMARK    2  A    between atoms: C_4  and  C_5
REMARK                            x       y       z     vdW  Elec       q    Type
REMARK                         _______ _______ _______ _____ _____    ______ ____
ROOT
ATOM      1  C   UNL     1       5.158   6.237  16.568  0.00  0.00    +0.000 A 
ATOM      2  S   UNL     1       4.484   7.739  17.073  0.00  0.00    +0.000 S 
ATOM      3  C   UNL     1       3.182   7.000  17.967  0.00  0.00    +0.000 A 
ATOM      4  C   UNL     1       3.281   5.638  17.825  0.00  0.00    +0.000 A 
ATOM      5  C   UNL     1       4.389   5.215  17.042  0.00  0.00    +0.000 A 
ATOM      6  C   UNL     1       4.422   3.768  16.959  0.00  0.00    +0.000 C 
ATOM      7  O   UNL     1       5.225   3.054  16.391  0.00  0.00    +0.000 OA
ATOM      8  C   UNL     1       3.227   3.333  17.750  0.00  0.00    +0.000 A 
ATOM      9  C   UNL     1       2.775   2.042  17.973  0.00  0.00    +0.000 A 
ATOM     10  C   UNL     1       1.620   1.892  18.744  0.00  0.00    +0.000 A 
ATOM     11  C   UNL     1       0.969   3.013  19.291  0.00  0.00    +0.000 A 
ATOM     12  C   UNL     1       1.454   4.308  19.082  0.00  0.00    +0.000 A 
ATOM     13  C   UNL     1       2.567   4.468  18.282  0.00  0.00    +0.000 A 
ENDROOT
BRANCH   3  14
ATOM     14  C   UNL     1       2.236   7.843  18.706  0.00  0.00    +0.000 A 
ATOM     15  C   UNL     1       1.996   7.625  20.064  0.00  0.00    +0.000 A 
ATOM     16  C   UNL     1       1.248   8.551  20.772  0.00  0.00    +0.000 A 
ATOM     17  N   UNL     1       0.663   9.625  20.209  0.00  0.00    +0.000 NA
ATOM     18  C   UNL     1       0.828   9.775  18.880  0.00  0.00    +0.000 A 
ATOM     19  C   UNL     1       1.599   8.929  18.098  0.00  0.00    +0.000 A 
ENDBRANCH   3  14
BRANCH   1  20
ATOM     20  N   UNL     1       6.273   6.176  15.821  0.00  0.00    +0.000 N 
ATOM     21  H   UNL     1       6.515   6.912  15.166  0.00  0.00    +0.000 HD
ATOM     22  H   UNL     1       7.014   5.509  16.029  0.00  0.00    +0.000 HD
ENDBRANCH   1  20
TORSDOF 2
ENDMDL
MODEL 2
REMARK VINA RESULT:      -7.4      2.451      5.154
REMARK  Name = 
REMARK  2 active torsions:
REMARK  status: ('A' for Active; 'I' for Inactive)
REMARK    1  A    between atoms: N_1  and  C_2
REMARK    2  A    between atoms: C_4  and  C_5
REMARK                            x       y       z     vdW  Elec       q    Type
REMARK                         _______ _______ _______ _____ _____    ______ ____
ROOT
ATOM      1  C   UNL     1       2.463   7.813  18.643  0.00  0.00    +0.000 A 
ATOM      2  S   UNL     1       3.686   7.795  17.430  0.00  0.00    +0.000 S 
ATOM      3  C   UNL     1       4.207   6.172  17.800  0.00  0.00    +0.000 A 
ATOM      4  C   UNL     1       3.458   5.709  18.854  0.00  0.00    +0.000 A 
ATOM      5  C   UNL     1       2.483   6.630  19.321  0.00  0.00    +0.000 A 
ATOM      6  C   UNL     1       1.734   6.053  20.421  0.00  0.00    +0.000 C 
ATOM      7  O   UNL     1       0.820   6.537  21.059  0.00  0.00    +0.000 OA
ATOM      8  C   UNL     1       2.342   4.696  20.600  0.00  0.00    +0.000 A 
ATOM      9  C   UNL     1       2.014   3.731  21.538  0.00  0.00    +0.000 A 
ATOM     10  C   UNL     1       2.739   2.537  21.510  0.00  0.00    +0.000 A 
ATOM     11  C   UNL     1       3.739   2.325  20.544  0.00  0.00    +0.000 A 
ATOM     12  C   UNL     1       4.039   3.298  19.584  0.00  0.00    +0.000 A 
ATOM     13  C   UNL     1       3.361   4.498  19.635  0.00  0.00    +0.000 A 
ENDROOT
BRANCH   3  14
ATOM     14  C   UNL     1       5.270   5.551  17.004  0.00  0.00    +0.000 A 
ATOM     15  C   UNL     1       5.188   5.508  15.611  0.00  0.00    +0.000 A 
ATOM     16  C   UNL     1       6.288   5.087  14.883  0.00  0.00    +0.000 A 
ATOM     17  N   UNL     1       7.426   4.637  15.445  0.00  0.00    +0.000 NA
ATOM     18  C   UNL     1       7.461   4.600  16.792  0.00  0.00    +0.000 A 
ATOM     19  C   UNL     1       6.428   5.045  17.603  0.00  0.00    +0.000 A 
ENDBRANCH   3  14
BRANCH   1  20
ATOM     20  N   UNL     1       1.658   8.874  18.822  0.00  0.00    +0.000 N 
ATOM     21  H   UNL     1       1.592   9.613  18.129  0.00  0.00    +0.000 HD
ATOM     22  H   UNL     1       0.939   8.878  19.543  0.00  0.00    +0.000 HD
ENDBRANCH   1  20
TORSDOF 2
ENDMDL
MODEL 3
REMARK VINA RESULT:      -7.3      2.313      3.703
REMARK  Name = 
REMARK  2 active torsions:
REMARK  status: ('A' for Active; 'I' for Inactive)
REMARK    1  A    between atoms: N_1  and  C_2
REMARK    2  A    between atoms: C_4  and  C_5
REMARK                            x       y       z     vdW  Elec       q    Type
REMARK                         _______ _______ _______ _____ _____    ______ ____
ROOT
ATOM      1  C   UNL     1       2.133   3.473  19.842  0.00  0.00    +0.000 A 
ATOM      2  S   UNL     1       1.443   4.911  20.492  0.00  0.00    +0.000 S 
ATOM      3  C   UNL     1       2.252   5.962  19.359  0.00  0.00    +0.000 A 
ATOM      4  C   UNL     1       3.045   5.191  18.546  0.00  0.00    +0.000 A 
ATOM      5  C   UNL     1       2.974   3.798  18.819  0.00  0.00    +0.000 A 
ATOM      6  C   UNL     1       3.830   3.064  17.907  0.00  0.00    +0.000 C 
ATOM      7  O   UNL     1       4.015   1.866  17.831  0.00  0.00    +0.000 OA
ATOM      8  C   UNL     1       4.446   4.129  17.053  0.00  0.00    +0.000 A 
ATOM      9  C   UNL     1       5.367   3.976  16.030  0.00  0.00    +0.000 A 
ATOM     10  C   UNL     1       5.804   5.134  15.381  0.00  0.00    +0.000 A 
ATOM     11  C   UNL     1       5.298   6.395  15.743  0.00  0.00    +0.000 A 
ATOM     12  C   UNL     1       4.345   6.532  16.759  0.00  0.00    +0.000 A 
ATOM     13  C   UNL     1       3.945   5.398  17.436  0.00  0.00    +0.000 A 
ENDROOT
BRANCH   3  14
ATOM     14  C   UNL     1       1.997   7.406  19.398  0.00  0.00    +0.000 A 
ATOM     15  C   UNL     1       2.127   8.186  18.247  0.00  0.00    +0.000 A 
ATOM     16  C   UNL     1       1.700   9.503  18.274  0.00  0.00    +0.000 A 
ATOM     17  N   UNL     1       1.228  10.111  19.378  0.00  0.00    +0.000 NA
ATOM     18  C   UNL     1       1.190   9.374  20.505  0.00  0.00    +0.000 A 
ATOM     19  C   UNL     1       1.551   8.036  20.564  0.00  0.00    +0.000 A 
ENDBRANCH   3  14
BRANCH   1  20
ATOM     20  N   UNL     1       1.831   2.259  20.331  0.00  0.00    +0.000 N 
ATOM     21  H   UNL     1       2.553   1.623  20.658  0.00  0.00    +0.000 HD
ATOM     22  H   UNL     1       0.877   2.011  20.586  0.00  0.00    +0.000 HD
ENDBRANCH   1  20
TORSDOF 2
ENDMDL
MODEL 4
REMARK VINA RESULT:      -7.2      2.430      5.041
REMARK  Name = 
REMARK  2 active torsions:
REMARK  status: ('A' for Active; 'I' for Inactive)
REMARK    1  A    between atoms: N_1  and  C_2
REMARK    2  A    between atoms: C_4  and  C_5
REMARK                            x       y       z     vdW  Elec       q    Type
REMARK                         _______ _______ _______ _____ _____    ______ ____
ROOT
ATOM      1  C   UNL     1       2.402   7.891  18.675  0.00  0.00    +0.000 A 
ATOM      2  S   UNL     1       3.643   7.960  17.484  0.00  0.00    +0.000 S 
ATOM      3  C   UNL     1       4.229   6.351  17.817  0.00  0.00    +0.000 A 
ATOM      4  C   UNL     1       3.484   5.826  18.844  0.00  0.00    +0.000 A 
ATOM      5  C   UNL     1       2.462   6.691  19.320  0.00  0.00    +0.000 A 
ATOM      6  C   UNL     1       1.722   6.050  20.390  0.00  0.00    +0.000 C 
ATOM      7  O   UNL     1       0.777   6.476  21.025  0.00  0.00    +0.000 OA
ATOM      8  C   UNL     1       2.385   4.716  20.542  0.00  0.00    +0.000 A 
ATOM      9  C   UNL     1       2.084   3.711  21.446  0.00  0.00    +0.000 A 
ATOM     10  C   UNL     1       2.861   2.551  21.397  0.00  0.00    +0.000 A 
ATOM     11  C   UNL     1       3.884   2.410  20.442  0.00  0.00    +0.000 A 
ATOM     12  C   UNL     1       4.158   3.422  19.515  0.00  0.00    +0.000 A 
ATOM     13  C   UNL     1       3.427   4.590  19.589  0.00  0.00    +0.000 A 
ENDROOT
BRANCH   3  14
ATOM     14  C   UNL     1       5.331   5.800  17.022  0.00  0.00    +0.000 A 
ATOM     15  C   UNL     1       6.498   5.345  17.639  0.00  0.00    +0.000 A 
ATOM     16  C   UNL     1       7.436   4.660  16.884  0.00  0.00    +0.000 A 
ATOM     17  N   UNL     1       7.327   4.467  15.556  0.00  0.00    +0.000 NA
ATOM     18  C   UNL     1       6.239   4.989  14.957  0.00  0.00    +0.000 A 
ATOM     19  C   UNL     1       5.225   5.647  15.636  0.00  0.00    +0.000 A 
ENDBRANCH   3  14
BRANCH   1  20
ATOM     20  N   UNL     1       1.549   8.910  18.870  0.00  0.00    +0.000 N 
ATOM     21  H   UNL     1       1.287   9.536  18.115  0.00  0.00    +0.000 HD
ATOM     22  H   UNL     1       0.978   8.971  19.711  0.00  0.00    +0.000 HD
ENDBRANCH   1  20
TORSDOF 2
ENDMDL
MODEL 5
REMARK VINA RESULT:      -7.2      0.474      1.150
REMARK  Name = 
REMARK  2 active torsions:
REMARK  status: ('A' for Active; 'I' for Inactive)
REMARK    1  A    between atoms: N_1  and  C_2
REMARK    2  A    between atoms: C_4  and  C_5
REMARK                            x       y       z     vdW  Elec       q    Type
REMARK                         _______ _______ _______ _____ _____    ______ ____
ROOT
ATOM      1  C   UNL     1       4.763   6.213  16.643  0.00  0.00    +0.000 A 
ATOM      2  S   UNL     1       4.169   7.744  17.164  0.00  0.00    +0.000 S 
ATOM      3  C   UNL     1       2.971   7.059  18.231  0.00  0.00    +0.000 A 
ATOM      4  C   UNL     1       3.038   5.691  18.132  0.00  0.00    +0.000 A 
ATOM      5  C   UNL     1       4.043   5.222  17.243  0.00  0.00    +0.000 A 
ATOM      6  C   UNL     1       4.050   3.772  17.213  0.00  0.00    +0.000 C 
ATOM      7  O   UNL     1       4.773   3.026  16.584  0.00  0.00    +0.000 OA
ATOM      8  C   UNL     1       2.951   3.386  18.154  0.00  0.00    +0.000 A 
ATOM      9  C   UNL     1       2.513   2.112  18.477  0.00  0.00    +0.000 A 
ATOM     10  C   UNL     1       1.453   2.009  19.382  0.00  0.00    +0.000 A 
ATOM     11  C   UNL     1       0.883   3.159  19.957  0.00  0.00    +0.000 A 
ATOM     12  C   UNL     1       1.356   4.438  19.643  0.00  0.00    +0.000 A 
ATOM     13  C   UNL     1       2.369   4.550  18.714  0.00  0.00    +0.000 A 
ENDROOT
BRANCH   3  14
ATOM     14  C   UNL     1       2.128   7.944  19.041  0.00  0.00    +0.000 A 
ATOM     15  C   UNL     1       1.496   9.050  18.468  0.00  0.00    +0.000 A 
ATOM     16  C   UNL     1       0.562   9.751  19.212  0.00  0.00    +0.000 A 
ATOM     17  N   UNL     1       0.274   9.477  20.498  0.00  0.00    +0.000 NA
ATOM     18  C   UNL     1       0.956   8.462  21.066  0.00  0.00    +0.000 A 
ATOM     19  C   UNL     1       1.873   7.674  20.389  0.00  0.00    +0.000 A 
ENDBRANCH   3  14
BRANCH   1  20
ATOM     20  N   UNL     1       5.783   6.107  15.776  0.00  0.00    +0.000 N 
ATOM     21  H   UNL     1       6.625   5.588  16.006  0.00  0.00    +0.000 HD
ATOM     22  H   UNL     1       5.673   6.355  14.794  0.00  0.00    +0.000 HD
ENDBRANCH   1  20
TORSDOF 2
ENDMDL
MODEL 6
REMARK VINA RESULT:      -7.2      2.667      3.993
REMARK  Name = 
REMARK  2 active torsions:
REMARK  status: ('A' for Active; 'I' for Inactive)
REMARK    1  A    between atoms: N_1  and  C_2
REMARK    2  A    between atoms: C_4  and  C_5
REMARK                            x       y       z     vdW  Elec       q    Type
REMARK                         _______ _______ _______ _____ _____    ______ ____
ROOT
ATOM      1  C   UNL     1       2.554   3.946  20.600  0.00  0.00    +0.000 A 
ATOM      2  S   UNL     1       1.525   5.319  20.749  0.00  0.00    +0.000 S 
ATOM      3  C   UNL     1       2.485   6.313  19.685  0.00  0.00    +0.000 A 
ATOM      4  C   UNL     1       3.573   5.581  19.277  0.00  0.00    +0.000 A 
ATOM      5  C   UNL     1       3.607   4.257  19.791  0.00  0.00    +0.000 A 
ATOM      6  C   UNL     1       4.778   3.558  19.299  0.00  0.00    +0.000 C 
ATOM      7  O   UNL     1       5.130   2.414  19.513  0.00  0.00    +0.000 OA
ATOM      8  C   UNL     1       5.473   4.572  18.445  0.00  0.00    +0.000 A 
ATOM      9  C   UNL     1       6.663   4.432  17.751  0.00  0.00    +0.000 A 
ATOM     10  C   UNL     1       7.116   5.536  17.025  0.00  0.00    +0.000 A 
ATOM     11  C   UNL     1       6.369   6.727  16.984  0.00  0.00    +0.000 A 
ATOM     12  C   UNL     1       5.153   6.844  17.667  0.00  0.00    +0.000 A 
ATOM     13  C   UNL     1       4.723   5.774  18.424  0.00  0.00    +0.000 A 
ENDROOT
BRANCH   3  14
ATOM     14  C   UNL     1       2.046   7.676  19.370  0.00  0.00    +0.000 A 
ATOM     15  C   UNL     1       2.139   8.174  18.069  0.00  0.00    +0.000 A 
ATOM     16  C   UNL     1       1.545   9.389  17.769  0.00  0.00    +0.000 A 
ATOM     17  N   UNL     1       0.939  10.169  18.683  0.00  0.00    +0.000 NA
ATOM     18  C   UNL     1       0.934   9.718  19.953  0.00  0.00    +0.000 A 
ATOM     19  C   UNL     1       1.459   8.495  20.340  0.00  0.00    +0.000 A 
ENDBRANCH   3  14
BRANCH   1  20
ATOM     20  N   UNL     1       2.283   2.787  21.222  0.00  0.00    +0.000 N 
ATOM     21  H   UNL     1       2.611   1.898  20.856  0.00  0.00    +0.000 HD
ATOM     22  H   UNL     1       1.927   2.766  22.176  0.00  0.00    +0.000 HD
ENDBRANCH   1  20
TORSDOF 2
ENDMDL
MODEL 7
REMARK VINA RESULT:      -7.1      2.673      3.910
REMARK  Name = 
REMARK  2 active torsions:
REMARK  status: ('A' for Active; 'I' for Inactive)
REMARK    1  A    between atoms: N_1  and  C_2
REMARK    2  A    between atoms: C_4  and  C_5
REMARK                            x       y       z     vdW  Elec       q    Type
REMARK                         _______ _______ _______ _____ _____    ______ ____
ROOT
ATOM      1  C   UNL     1       2.597   3.997  20.668  0.00  0.00    +0.000 A 
ATOM      2  S   UNL     1       1.534   5.348  20.779  0.00  0.00    +0.000 S 
ATOM      3  C   UNL     1       2.453   6.325  19.664  0.00  0.00    +0.000 A 
ATOM      4  C   UNL     1       3.555   5.607  19.269  0.00  0.00    +0.000 A 
ATOM      5  C   UNL     1       3.630   4.304  19.832  0.00  0.00    +0.000 A 
ATOM      6  C   UNL     1       4.813   3.618  19.350  0.00  0.00    +0.000 C 
ATOM      7  O   UNL     1       5.198   2.493  19.602  0.00  0.00    +0.000 OA
ATOM      8  C   UNL     1       5.469   4.616  18.448  0.00  0.00    +0.000 A 
ATOM      9  C   UNL     1       6.653   4.480  17.742  0.00  0.00    +0.000 A 
ATOM     10  C   UNL     1       7.067   5.568  16.969  0.00  0.00    +0.000 A 
ATOM     11  C   UNL     1       6.288   6.736  16.894  0.00  0.00    +0.000 A 
ATOM     12  C   UNL     1       5.078   6.848  17.589  0.00  0.00    +0.000 A 
ATOM     13  C   UNL     1       4.688   5.797  18.393  0.00  0.00    +0.000 A 
ENDROOT
BRANCH   3  14
ATOM     14  C   UNL     1       1.974   7.663  19.305  0.00  0.00    +0.000 A 
ATOM     15  C   UNL     1       1.365   8.484  20.257  0.00  0.00    +0.000 A 
ATOM     16  C   UNL     1       1.096   9.804  19.935  0.00  0.00    +0.000 A 
ATOM     17  N   UNL     1       1.320  10.336  18.719  0.00  0.00    +0.000 NA
ATOM     18  C   UNL     1       1.826   9.509  17.782  0.00  0.00    +0.000 A 
ATOM     19  C   UNL     1       2.171   8.188  18.023  0.00  0.00    +0.000 A 
ENDBRANCH   3  14
BRANCH   1  20
ATOM     20  N   UNL     1       2.365   2.856  21.337  0.00  0.00    +0.000 N 
ATOM     21  H   UNL     1       2.282   2.841  22.349  0.00  0.00    +0.000 HD
ATOM     22  H   UNL     1       2.059   2.012  20.856  0.00  0.00    +0.000 HD
ENDBRANCH   1  20
TORSDOF 2
ENDMDL
MODEL 8
REMARK VINA RESULT:      -6.8      2.973      6.048
REMARK  Name = 
REMARK  2 active torsions:
REMARK  status: ('A' for Active; 'I' for Inactive)
REMARK    1  A    between atoms: N_1  and  C_2
REMARK    2  A    between atoms: C_4  and  C_5
REMARK                            x       y       z     vdW  Elec       q    Type
REMARK                         _______ _______ _______ _____ _____    ______ ____
ROOT
ATOM      1  C   UNL     1       3.041   3.570  20.397  0.00  0.00    +0.000 A 
ATOM      2  S   UNL     1       4.239   2.868  19.379  0.00  0.00    +0.000 S 
ATOM      3  C   UNL     1       4.413   4.292  18.387  0.00  0.00    +0.000 A 
ATOM      4  C   UNL     1       3.532   5.243  18.840  0.00  0.00    +0.000 A 
ATOM      5  C   UNL     1       2.767   4.835  19.966  0.00  0.00    +0.000 A 
ATOM      6  C   UNL     1       1.878   5.903  20.382  0.00  0.00    +0.000 C 
ATOM      7  O   UNL     1       1.091   5.923  21.307  0.00  0.00    +0.000 OA
ATOM      8  C   UNL     1       2.153   7.004  19.405  0.00  0.00    +0.000 A 
ATOM      9  C   UNL     1       1.554   8.250  19.333  0.00  0.00    +0.000 A 
ATOM     10  C   UNL     1       1.978   9.108  18.315  0.00  0.00    +0.000 A 
ATOM     11  C   UNL     1       2.996   8.721  17.425  0.00  0.00    +0.000 A 
ATOM     12  C   UNL     1       3.613   7.469  17.528  0.00  0.00    +0.000 A 
ATOM     13  C   UNL     1       3.166   6.598  18.500  0.00  0.00    +0.000 A 
ENDROOT
BRANCH   3  14
ATOM     14  C   UNL     1       5.399   4.306  17.301  0.00  0.00    +0.000 A 
ATOM     15  C   UNL     1       5.008   4.086  15.979  0.00  0.00    +0.000 A 
ATOM     16  C   UNL     1       5.926   4.292  14.962  0.00  0.00    +0.000 A 
ATOM     17  N   UNL     1       7.213   4.623  15.176  0.00  0.00    +0.000 NA
ATOM     18  C   UNL     1       7.600   4.746  16.460  0.00  0.00    +0.000 A 
ATOM     19  C   UNL     1       6.744   4.606  17.541  0.00  0.00    +0.000 A 
ENDBRANCH   3  14
BRANCH   1  20
ATOM     20  N   UNL     1       2.512   2.901  21.435  0.00  0.00    +0.000 N 
ATOM     21  H   UNL     1       1.508   2.856  21.582  0.00  0.00    +0.000 HD
ATOM     22  H   UNL     1       3.068   2.250  21.985  0.00  0.00    +0.000 HD
ENDBRANCH   1  20
TORSDOF 2
ENDMDL
MODEL 9
REMARK VINA RESULT:      -6.7      2.889      5.942
REMARK  Name = 
REMARK  2 active torsions:
REMARK  status: ('A' for Active; 'I' for Inactive)
REMARK    1  A    between atoms: N_1  and  C_2
REMARK    2  A    between atoms: C_4  and  C_5
REMARK                            x       y       z     vdW  Elec       q    Type
REMARK                         _______ _______ _______ _____ _____    ______ ____
ROOT
ATOM      1  C   UNL     1       2.702   2.420  18.683  0.00  0.00    +0.000 A 
ATOM      2  S   UNL     1       3.976   2.064  17.579  0.00  0.00    +0.000 S 
ATOM      3  C   UNL     1       4.311   3.739  17.227  0.00  0.00    +0.000 A 
ATOM      4  C   UNL     1       3.423   4.513  17.934  0.00  0.00    +0.000 A 
ATOM      5  C   UNL     1       2.526   3.771  18.747  0.00  0.00    +0.000 A 
ATOM      6  C   UNL     1       1.639   4.668  19.463  0.00  0.00    +0.000 C 
ATOM      7  O   UNL     1       0.758   4.398  20.255  0.00  0.00    +0.000 OA
ATOM      8  C   UNL     1       2.060   6.032  19.010  0.00  0.00    +0.000 A 
ATOM      9  C   UNL     1       1.521   7.255  19.371  0.00  0.00    +0.000 A 
ATOM     10  C   UNL     1       2.086   8.398  18.800  0.00  0.00    +0.000 A 
ATOM     11  C   UNL     1       3.178   8.298  17.919  0.00  0.00    +0.000 A 
ATOM     12  C   UNL     1       3.732   7.057  17.587  0.00  0.00    +0.000 A 
ATOM     13  C   UNL     1       3.148   5.921  18.109  0.00  0.00    +0.000 A 
ENDROOT
BRANCH   3  14
ATOM     14  C   UNL     1       5.408   4.086  16.318  0.00  0.00    +0.000 A 
ATOM     15  C   UNL     1       5.262   3.945  14.937  0.00  0.00    +0.000 A 
ATOM     16  C   UNL     1       6.241   4.456  14.101  0.00  0.00    +0.000 A 
ATOM     17  N   UNL     1       7.380   5.022  14.544  0.00  0.00    +0.000 NA
ATOM     18  C   UNL     1       7.549   5.072  15.880  0.00  0.00    +0.000 A 
ATOM     19  C   UNL     1       6.605   4.631  16.795  0.00  0.00    +0.000 A 
ENDBRANCH   3  14
BRANCH   1  20
ATOM     20  N   UNL     1       2.038   1.452  19.335  0.00  0.00    +0.000 N 
ATOM     21  H   UNL     1       2.527   0.694  19.802  0.00  0.00    +0.000 HD
ATOM     22  H   UNL     1       1.051   1.547  19.565  0.00  0.00    +0.000 HD
ENDBRANCH   1  20
TORSDOF 2
ENDMDL
