MODEL 1
REMARK VINA RESULT:      -7.2      0.000      0.000
REMARK  Name = 
REMARK  7 active torsions:
REMARK  status: ('A' for Active; 'I' for Inactive)
REMARK    1  A    between atoms: C_1  and  C_2
REMARK    2  A    between atoms: C_2  and  O_3
REMARK    3  A    between atoms: C_2  and  C_4
REMARK    4  A    between atoms: C_4  and  N_5
REMARK    5  A    between atoms: C_9  and  C_11
REMARK    6  A    between atoms: C_15  and  C_16
REMARK    7  A    between atoms: C_16  and  N_17
REMARK                            x       y       z     vdW  Elec       q    Type
REMARK                         _______ _______ _______ _____ _____    ______ ____
ROOT
ATOM      1  N   UNL     1       1.054  10.629  18.681  0.00  0.00    +0.000 NA
ATOM      2  C   UNL     1       1.279  10.261  20.103  0.00  0.00    +0.000 C 
ATOM      3  C   UNL     1       1.160   8.754  20.429  0.00  0.00    +0.000 C 
ATOM      4  N   UNL     1       1.884   7.887  19.493  0.00  0.00    +0.000 N 
ATOM      5  C   UNL     1       2.038   6.551  19.903  0.00  0.00    +0.000 C 
ATOM      6  O   UNL     1       1.596   6.127  20.972  0.00  0.00    +0.000 OA
ATOM      7  C   UNL     1       1.743   8.262  18.078  0.00  0.00    +0.000 C 
ATOM      8  C   UNL     1       1.926   9.775  17.852  0.00  0.00    +0.000 C 
ENDROOT
BRANCH   5   9
ATOM      9  C   UNL     1       2.787   5.599  19.042  0.00  0.00    +0.000 A 
ATOM     10  C   UNL     1       2.086   4.811  18.117  0.00  0.00    +0.000 A 
ATOM     11  C   UNL     1       2.782   3.927  17.289  0.00  0.00    +0.000 A 
ATOM     12  C   UNL     1       4.173   3.838  17.370  0.00  0.00    +0.000 A 
ATOM     13  C   UNL     1       4.881   4.595  18.314  0.00  0.00    +0.000 A 
ATOM     14  C   UNL     1       4.166   5.436  19.179  0.00  0.00    +0.000 A 
BRANCH  13  15
ATOM     15  C   UNL     1       6.390   4.572  18.370  0.00  0.00    +0.000 C 
BRANCH  15  16
ATOM     16  N   UNL     1       6.938   5.881  18.051  0.00  0.00    +0.000 N 
ATOM     17  C   UNL     1       7.882   6.572  18.763  0.00  0.00    +0.000 A 
ATOM     18  C   UNL     1       8.083   7.733  18.055  0.00  0.00    +0.000 A 
ATOM     19  N   UNL     1       7.303   7.755  16.926  0.00  0.00    +0.000 NA
ATOM     20  C   UNL     1       6.631   6.627  16.948  0.00  0.00    +0.000 A 
ENDBRANCH  15  16
ENDBRANCH  13  15
ENDBRANCH   5   9
BRANCH   1  21
ATOM     21  C   UNL     1      -0.378  10.525  18.338  0.00  0.00    +0.000 C 
BRANCH  21  23
ATOM     22  C   UNL     1      -2.749  11.528  18.586  0.00  0.00    +0.000 C 
ATOM     23  C   UNL     1      -1.253  11.794  18.486  0.00  0.00    +0.000 C 
BRANCH  23  24
ATOM     24  O   UNL     1      -1.025  12.638  17.349  0.00  0.00    +0.000 OA
ATOM     25  H   UNL     1      -1.885  13.003  17.076  0.00  0.00    +0.000 HD
ENDBRANCH  23  24
ENDBRANCH  21  23
ENDBRANCH   1  21
TORSDOF 6
ENDMDL
MODEL 2
REMARK VINA RESULT:      -6.7      0.851      1.133
REMARK  Name = 
REMARK  7 active torsions:
REMARK  status: ('A' for Active; 'I' for Inactive)
REMARK    1  A    between atoms: C_1  and  C_2
REMARK    2  A    between atoms: C_2  and  O_3
REMARK    3  A    between atoms: C_2  and  C_4
REMARK    4  A    between atoms: C_4  and  N_5
REMARK    5  A    between atoms: C_9  and  C_11
REMARK    6  A    between atoms: C_15  and  C_16
REMARK    7  A    between atoms: C_16  and  N_17
REMARK                            x       y       z     vdW  Elec       q    Type
REMARK                         _______ _______ _______ _____ _____    ______ ____
ROOT
ATOM      1  N   UNL     1       0.641  10.958  19.085  0.00  0.00    +0.000 NA
ATOM      2  C   UNL     1       1.067  10.493  20.431  0.00  0.00    +0.000 C 
ATOM      3  C   UNL     1       1.066   8.961  20.639  0.00  0.00    +0.000 C 
ATOM      4  N   UNL     1       1.704   8.215  19.550  0.00  0.00    +0.000 N 
ATOM      5  C   UNL     1       1.975   6.862  19.822  0.00  0.00    +0.000 C 
ATOM      6  O   UNL     1       1.697   6.331  20.897  0.00  0.00    +0.000 OA
ATOM      7  C   UNL     1       1.361   8.691  18.200  0.00  0.00    +0.000 C 
ATOM      8  C   UNL     1       1.439  10.225  18.083  0.00  0.00    +0.000 C 
ENDROOT
BRANCH   5   9
ATOM      9  C   UNL     1       2.651   6.027  18.795  0.00  0.00    +0.000 A 
ATOM     10  C   UNL     1       2.125   4.767  18.478  0.00  0.00    +0.000 A 
ATOM     11  C   UNL     1       2.742   3.981  17.501  0.00  0.00    +0.000 A 
ATOM     12  C   UNL     1       3.871   4.456  16.830  0.00  0.00    +0.000 A 
ATOM     13  C   UNL     1       4.426   5.700  17.162  0.00  0.00    +0.000 A 
ATOM     14  C   UNL     1       3.833   6.453  18.185  0.00  0.00    +0.000 A 
BRANCH  13  15
ATOM     15  C   UNL     1       5.599   6.267  16.400  0.00  0.00    +0.000 C 
BRANCH  15  16
ATOM     16  N   UNL     1       6.688   6.603  17.303  0.00  0.00    +0.000 N 
ATOM     17  C   UNL     1       7.264   7.834  17.473  0.00  0.00    +0.000 A 
ATOM     18  C   UNL     1       8.223   7.649  18.440  0.00  0.00    +0.000 A 
ATOM     19  N   UNL     1       8.231   6.347  18.873  0.00  0.00    +0.000 NA
ATOM     20  C   UNL     1       7.295   5.745  18.176  0.00  0.00    +0.000 A 
ENDBRANCH  15  16
ENDBRANCH  13  15
ENDBRANCH   5   9
BRANCH   1  21
ATOM     21  C   UNL     1      -0.816  10.796  18.917  0.00  0.00    +0.000 C 
BRANCH  21  23
ATOM     22  C   UNL     1      -3.124  11.784  18.297  0.00  0.00    +0.000 C 
ATOM     23  C   UNL     1      -1.650  12.053  18.569  0.00  0.00    +0.000 C 
BRANCH  23  24
ATOM     24  O   UNL     1      -1.086  12.663  17.401  0.00  0.00    +0.000 OA
ATOM     25  H   UNL     1      -0.209  12.268  17.255  0.00  0.00    +0.000 HD
ENDBRANCH  23  24
ENDBRANCH  21  23
ENDBRANCH   1  21
TORSDOF 6
ENDMDL
MODEL 3
REMARK VINA RESULT:      -6.6      1.242      1.508
REMARK  Name = 
REMARK  7 active torsions:
REMARK  status: ('A' for Active; 'I' for Inactive)
REMARK    1  A    between atoms: C_1  and  C_2
REMARK    2  A    between atoms: C_2  and  O_3
REMARK    3  A    between atoms: C_2  and  C_4
REMARK    4  A    between atoms: C_4  and  N_5
REMARK    5  A    between atoms: C_9  and  C_11
REMARK    6  A    between atoms: C_15  and  C_16
REMARK    7  A    between atoms: C_16  and  N_17
REMARK                            x       y       z     vdW  Elec       q    Type
REMARK                         _______ _______ _______ _____ _____    ______ ____
ROOT
ATOM      1  N   UNL     1       1.027  10.798  18.811  0.00  0.00    +0.000 NA
ATOM      2  C   UNL     1       1.228  10.448  20.242  0.00  0.00    +0.000 C 
ATOM      3  C   UNL     1       1.015   8.959  20.600  0.00  0.00    +0.000 C 
ATOM      4  N   UNL     1       1.686   8.029  19.686  0.00  0.00    +0.000 N 
ATOM      5  C   UNL     1       1.756   6.695  20.125  0.00  0.00    +0.000 C 
ATOM      6  O   UNL     1       1.287   6.323  21.202  0.00  0.00    +0.000 OA
ATOM      7  C   UNL     1       1.569   8.381  18.262  0.00  0.00    +0.000 C 
ATOM      8  C   UNL     1       1.846   9.874  18.004  0.00  0.00    +0.000 C 
ENDROOT
BRANCH   5   9
ATOM      9  C   UNL     1       2.445   5.680  19.287  0.00  0.00    +0.000 A 
ATOM     10  C   UNL     1       1.685   4.716  18.611  0.00  0.00    +0.000 A 
ATOM     11  C   UNL     1       2.321   3.768  17.804  0.00  0.00    +0.000 A 
ATOM     12  C   UNL     1       3.710   3.791  17.659  0.00  0.00    +0.000 A 
ATOM     13  C   UNL     1       4.484   4.728  18.357  0.00  0.00    +0.000 A 
ATOM     14  C   UNL     1       3.838   5.637  19.209  0.00  0.00    +0.000 A 
BRANCH  13  15
ATOM     15  C   UNL     1       5.977   4.821  18.159  0.00  0.00    +0.000 C 
BRANCH  15  16
ATOM     16  N   UNL     1       6.303   4.958  16.749  0.00  0.00    +0.000 N 
ATOM     17  C   UNL     1       7.043   4.092  15.989  0.00  0.00    +0.000 A 
ATOM     18  C   UNL     1       7.053   4.641  14.728  0.00  0.00    +0.000 A 
ATOM     19  N   UNL     1       6.325   5.804  14.701  0.00  0.00    +0.000 NA
ATOM     20  C   UNL     1       5.883   5.965  15.927  0.00  0.00    +0.000 A 
ENDBRANCH  15  16
ENDBRANCH  13  15
ENDBRANCH   5   9
BRANCH   1  21
ATOM     21  C   UNL     1      -0.407  10.776  18.468  0.00  0.00    +0.000 C 
BRANCH  21  23
ATOM     22  C   UNL     1      -2.566  12.061  19.083  0.00  0.00    +0.000 C 
ATOM     23  C   UNL     1      -1.174  12.121  18.468  0.00  0.00    +0.000 C 
BRANCH  23  24
ATOM     24  O   UNL     1      -1.306  12.569  17.112  0.00  0.00    +0.000 OA
ATOM     25  H   UNL     1      -2.164  13.022  17.032  0.00  0.00    +0.000 HD
ENDBRANCH  23  24
ENDBRANCH  21  23
ENDBRANCH   1  21
TORSDOF 6
ENDMDL
MODEL 4
REMARK VINA RESULT:      -6.5      0.942      1.187
REMARK  Name = 
REMARK  7 active torsions:
REMARK  status: ('A' for Active; 'I' for Inactive)
REMARK    1  A    between atoms: C_1  and  C_2
REMARK    2  A    between atoms: C_2  and  O_3
REMARK    3  A    between atoms: C_2  and  C_4
REMARK    4  A    between atoms: C_4  and  N_5
REMARK    5  A    between atoms: C_9  and  C_11
REMARK    6  A    between atoms: C_15  and  C_16
REMARK    7  A    between atoms: C_16  and  N_17
REMARK                            x       y       z     vdW  Elec       q    Type
REMARK                         _______ _______ _______ _____ _____    ______ ____
ROOT
ATOM      1  N   UNL     1       1.084  10.284  19.112  0.00  0.00    +0.000 NA
ATOM      2  C   UNL     1       1.360   9.780  20.482  0.00  0.00    +0.000 C 
ATOM      3  C   UNL     1       1.315   8.243  20.650  0.00  0.00    +0.000 C 
ATOM      4  N   UNL     1       2.053   7.513  19.614  0.00  0.00    +0.000 N 
ATOM      5  C   UNL     1       2.275   6.149  19.878  0.00  0.00    +0.000 C 
ATOM      6  O   UNL     1       1.877   5.597  20.905  0.00  0.00    +0.000 OA
ATOM      7  C   UNL     1       1.861   8.027  18.249  0.00  0.00    +0.000 C 
ATOM      8  C   UNL     1       1.972   9.562  18.180  0.00  0.00    +0.000 C 
ENDROOT
BRANCH   5   9
ATOM      9  C   UNL     1       3.043   5.328  18.906  0.00  0.00    +0.000 A 
ATOM     10  C   UNL     1       2.356   4.623  17.908  0.00  0.00    +0.000 A 
ATOM     11  C   UNL     1       3.069   3.862  16.978  0.00  0.00    +0.000 A 
ATOM     12  C   UNL     1       4.464   3.818  17.032  0.00  0.00    +0.000 A 
ATOM     13  C   UNL     1       5.160   4.491  18.046  0.00  0.00    +0.000 A 
ATOM     14  C   UNL     1       4.429   5.203  19.008  0.00  0.00    +0.000 A 
BRANCH  13  15
ATOM     15  C   UNL     1       6.669   4.518  18.080  0.00  0.00    +0.000 C 
BRANCH  15  16
ATOM     16  N   UNL     1       7.162   5.883  17.993  0.00  0.00    +0.000 N 
ATOM     17  C   UNL     1       6.813   6.824  17.061  0.00  0.00    +0.000 A 
ATOM     18  C   UNL     1       7.523   7.950  17.408  0.00  0.00    +0.000 A 
ATOM     19  N   UNL     1       8.275   7.722  18.533  0.00  0.00    +0.000 NA
ATOM     20  C   UNL     1       8.033   6.475  18.864  0.00  0.00    +0.000 A 
ENDBRANCH  15  16
ENDBRANCH  13  15
ENDBRANCH   5   9
BRANCH   1  21
ATOM     21  C   UNL     1      -0.349  10.151  18.789  0.00  0.00    +0.000 C 
BRANCH  21  23
ATOM     22  C   UNL     1      -0.755  12.663  18.323  0.00  0.00    +0.000 C 
ATOM     23  C   UNL     1      -1.256  11.390  18.992  0.00  0.00    +0.000 C 
BRANCH  23  24
ATOM     24  O   UNL     1      -1.373  11.641  20.398  0.00  0.00    +0.000 OA
ATOM     25  H   UNL     1      -2.110  12.263  20.528  0.00  0.00    +0.000 HD
ENDBRANCH  23  24
ENDBRANCH  21  23
ENDBRANCH   1  21
TORSDOF 6
ENDMDL
MODEL 5
REMARK VINA RESULT:      -6.5      2.181      2.930
REMARK  Name = 
REMARK  7 active torsions:
REMARK  status: ('A' for Active; 'I' for Inactive)
REMARK    1  A    between atoms: C_1  and  C_2
REMARK    2  A    between atoms: C_2  and  O_3
REMARK    3  A    between atoms: C_2  and  C_4
REMARK    4  A    between atoms: C_4  and  N_5
REMARK    5  A    between atoms: C_9  and  C_11
REMARK    6  A    between atoms: C_15  and  C_16
REMARK    7  A    between atoms: C_16  and  N_17
REMARK                            x       y       z     vdW  Elec       q    Type
REMARK                         _______ _______ _______ _____ _____    ______ ____
ROOT
ATOM      1  N   UNL     1      -0.131  10.201  20.854  0.00  0.00    +0.000 NA
ATOM      2  C   UNL     1      -0.223  10.369  19.380  0.00  0.00    +0.000 C 
ATOM      3  C   UNL     1       0.990   9.853  18.572  0.00  0.00    +0.000 C 
ATOM      4  N   UNL     1       1.436   8.513  18.967  0.00  0.00    +0.000 N 
ATOM      5  C   UNL     1       2.342   7.894  18.086  0.00  0.00    +0.000 C 
ATOM      6  O   UNL     1       2.740   8.434  17.053  0.00  0.00    +0.000 OA
ATOM      7  C   UNL     1       1.474   8.284  20.419  0.00  0.00    +0.000 C 
ATOM      8  C   UNL     1       0.201   8.789  21.125  0.00  0.00    +0.000 C 
ENDROOT
BRANCH   5   9
ATOM      9  C   UNL     1       2.829   6.521  18.378  0.00  0.00    +0.000 A 
ATOM     10  C   UNL     1       1.909   5.531  18.752  0.00  0.00    +0.000 A 
ATOM     11  C   UNL     1       2.353   4.231  19.011  0.00  0.00    +0.000 A 
ATOM     12  C   UNL     1       3.707   3.915  18.881  0.00  0.00    +0.000 A 
ATOM     13  C   UNL     1       4.641   4.904  18.541  0.00  0.00    +0.000 A 
ATOM     14  C   UNL     1       4.191   6.217  18.341  0.00  0.00    +0.000 A 
BRANCH  13  15
ATOM     15  C   UNL     1       6.096   4.571  18.322  0.00  0.00    +0.000 C 
BRANCH  15  16
ATOM     16  N   UNL     1       6.437   4.646  16.911  0.00  0.00    +0.000 N 
ATOM     17  C   UNL     1       5.956   3.849  15.906  0.00  0.00    +0.000 A 
ATOM     18  C   UNL     1       6.553   4.321  14.760  0.00  0.00    +0.000 A 
ATOM     19  N   UNL     1       7.364   5.392  15.041  0.00  0.00    +0.000 NA
ATOM     20  C   UNL     1       7.270   5.567  16.339  0.00  0.00    +0.000 A 
ENDBRANCH  15  16
ENDBRANCH  13  15
ENDBRANCH   5   9
BRANCH   1  21
ATOM     21  C   UNL     1       0.834  11.158  21.426  0.00  0.00    +0.000 C 
BRANCH  21  23
ATOM     22  C   UNL     1       2.056  13.160  20.334  0.00  0.00    +0.000 C 
ATOM     23  C   UNL     1       0.767  12.630  20.949  0.00  0.00    +0.000 C 
BRANCH  23  24
ATOM     24  O   UNL     1       0.436  13.457  22.072  0.00  0.00    +0.000 OA
ATOM     25  H   UNL     1       1.157  13.375  22.721  0.00  0.00    +0.000 HD
ENDBRANCH  23  24
ENDBRANCH  21  23
ENDBRANCH   1  21
TORSDOF 6
ENDMDL
MODEL 6
REMARK VINA RESULT:      -6.3      2.890      4.478
REMARK  Name = 
REMARK  7 active torsions:
REMARK  status: ('A' for Active; 'I' for Inactive)
REMARK    1  A    between atoms: C_1  and  C_2
REMARK    2  A    between atoms: C_2  and  O_3
REMARK    3  A    between atoms: C_2  and  C_4
REMARK    4  A    between atoms: C_4  and  N_5
REMARK    5  A    between atoms: C_9  and  C_11
REMARK    6  A    between atoms: C_15  and  C_16
REMARK    7  A    between atoms: C_16  and  N_17
REMARK                            x       y       z     vdW  Elec       q    Type
REMARK                         _______ _______ _______ _____ _____    ______ ____
ROOT
ATOM      1  N   UNL     1      -0.443   9.627  21.204  0.00  0.00    +0.000 NA
ATOM      2  C   UNL     1      -0.664  10.034  19.792  0.00  0.00    +0.000 C 
ATOM      3  C   UNL     1       0.571   9.935  18.867  0.00  0.00    +0.000 C 
ATOM      4  N   UNL     1       1.301   8.669  18.989  0.00  0.00    +0.000 N 
ATOM      5  C   UNL     1       2.251   8.420  17.982  0.00  0.00    +0.000 C 
ATOM      6  O   UNL     1       2.465   9.207  17.060  0.00  0.00    +0.000 OA
ATOM      7  C   UNL     1       1.480   8.196  20.370  0.00  0.00    +0.000 C 
ATOM      8  C   UNL     1       0.181   8.290  21.194  0.00  0.00    +0.000 C 
ENDROOT
BRANCH   5   9
ATOM      9  C   UNL     1       3.020   7.149  17.995  0.00  0.00    +0.000 A 
ATOM     10  C   UNL     1       4.419   7.190  17.911  0.00  0.00    +0.000 A 
ATOM     11  C   UNL     1       5.153   6.002  17.941  0.00  0.00    +0.000 A 
ATOM     12  C   UNL     1       4.497   4.776  18.071  0.00  0.00    +0.000 A 
ATOM     13  C   UNL     1       3.098   4.719  18.121  0.00  0.00    +0.000 A 
ATOM     14  C   UNL     1       2.369   5.914  18.032  0.00  0.00    +0.000 A 
BRANCH  13  15
ATOM     15  C   UNL     1       2.370   3.414  18.337  0.00  0.00    +0.000 C 
BRANCH  15  16
ATOM     16  N   UNL     1       2.191   3.151  19.756  0.00  0.00    +0.000 N 
ATOM     17  C   UNL     1       1.021   3.222  20.464  0.00  0.00    +0.000 A 
ATOM     18  C   UNL     1       1.359   2.867  21.749  0.00  0.00    +0.000 A 
ATOM     19  N   UNL     1       2.695   2.565  21.833  0.00  0.00    +0.000 NA
ATOM     20  C   UNL     1       3.167   2.738  20.620  0.00  0.00    +0.000 A 
ENDBRANCH  15  16
ENDBRANCH  13  15
ENDBRANCH   5   9
BRANCH   1  21
ATOM     21  C   UNL     1       0.348  10.646  21.920  0.00  0.00    +0.000 C 
BRANCH  21  23
ATOM     22  C   UNL     1      -1.874  11.957  22.109  0.00  0.00    +0.000 C 
ATOM     23  C   UNL     1      -0.396  11.887  22.472  0.00  0.00    +0.000 C 
BRANCH  23  24
ATOM     24  O   UNL     1       0.245  13.064  21.962  0.00  0.00    +0.000 OA
ATOM     25  H   UNL     1      -0.426  13.768  21.912  0.00  0.00    +0.000 HD
ENDBRANCH  23  24
ENDBRANCH  21  23
ENDBRANCH   1  21
TORSDOF 6
ENDMDL
MODEL 7
REMARK VINA RESULT:      -6.3      2.509      8.192
REMARK  Name = 
REMARK  7 active torsions:
REMARK  status: ('A' for Active; 'I' for Inactive)
REMARK    1  A    between atoms: C_1  and  C_2
REMARK    2  A    between atoms: C_2  and  O_3
REMARK    3  A    between atoms: C_2  and  C_4
REMARK    4  A    between atoms: C_4  and  N_5
REMARK    5  A    between atoms: C_9  and  C_11
REMARK    6  A    between atoms: C_15  and  C_16
REMARK    7  A    between atoms: C_16  and  N_17
REMARK                            x       y       z     vdW  Elec       q    Type
REMARK                         _______ _______ _______ _____ _____    ______ ____
ROOT
ATOM      1  N   UNL     1       4.171   4.088  18.647  0.00  0.00    +0.000 NA
ATOM      2  C   UNL     1       4.950   5.183  18.010  0.00  0.00    +0.000 C 
ATOM      3  C   UNL     1       4.120   6.387  17.508  0.00  0.00    +0.000 C 
ATOM      4  N   UNL     1       3.139   6.877  18.482  0.00  0.00    +0.000 N 
ATOM      5  C   UNL     1       2.566   8.126  18.185  0.00  0.00    +0.000 C 
ATOM      6  O   UNL     1       2.860   8.772  17.179  0.00  0.00    +0.000 OA
ATOM      7  C   UNL     1       2.395   5.820  19.185  0.00  0.00    +0.000 C 
ATOM      8  C   UNL     1       3.316   4.691  19.687  0.00  0.00    +0.000 C 
ENDROOT
BRANCH   5   9
ATOM      9  C   UNL     1       1.585   8.726  19.126  0.00  0.00    +0.000 A 
ATOM     10  C   UNL     1       1.528   8.263  20.448  0.00  0.00    +0.000 A 
ATOM     11  C   UNL     1       0.622   8.833  21.347  0.00  0.00    +0.000 A 
ATOM     12  C   UNL     1      -0.214   9.872  20.934  0.00  0.00    +0.000 A 
ATOM     13  C   UNL     1      -0.191  10.321  19.606  0.00  0.00    +0.000 A 
ATOM     14  C   UNL     1       0.682   9.702  18.699  0.00  0.00    +0.000 A 
BRANCH  13  15
ATOM     15  C   UNL     1      -1.030  11.492  19.156  0.00  0.00    +0.000 C 
BRANCH  15  16
ATOM     16  N   UNL     1      -2.164  11.040  18.366  0.00  0.00    +0.000 N 
ATOM     17  C   UNL     1      -3.447  11.517  18.423  0.00  0.00    +0.000 A 
ATOM     18  C   UNL     1      -4.139  10.794  17.480  0.00  0.00    +0.000 A 
ATOM     19  N   UNL     1      -3.307   9.909  16.841  0.00  0.00    +0.000 NA
ATOM     20  C   UNL     1      -2.127  10.084  17.391  0.00  0.00    +0.000 A 
ENDBRANCH  15  16
ENDBRANCH  13  15
ENDBRANCH   5   9
BRANCH   1  21
ATOM     21  C   UNL     1       3.421   3.326  17.630  0.00  0.00    +0.000 C 
BRANCH  21  23
ATOM     22  C   UNL     1       1.795   1.826  18.970  0.00  0.00    +0.000 C 
ATOM     23  C   UNL     1       2.960   1.892  17.992  0.00  0.00    +0.000 C 
BRANCH  23  24
ATOM     24  O   UNL     1       4.069   1.192  18.572  0.00  0.00    +0.000 OA
ATOM     25  H   UNL     1       3.833   0.971  19.489  0.00  0.00    +0.000 HD
ENDBRANCH  23  24
ENDBRANCH  21  23
ENDBRANCH   1  21
TORSDOF 6
ENDMDL
MODEL 8
REMARK VINA RESULT:      -6.2      2.468      8.097
REMARK  Name = 
REMARK  7 active torsions:
REMARK  status: ('A' for Active; 'I' for Inactive)
REMARK    1  A    between atoms: C_1  and  C_2
REMARK    2  A    between atoms: C_2  and  O_3
REMARK    3  A    between atoms: C_2  and  C_4
REMARK    4  A    between atoms: C_4  and  N_5
REMARK    5  A    between atoms: C_9  and  C_11
REMARK    6  A    between atoms: C_15  and  C_16
REMARK    7  A    between atoms: C_16  and  N_17
REMARK                            x       y       z     vdW  Elec       q    Type
REMARK                         _______ _______ _______ _____ _____    ______ ____
ROOT
ATOM      1  N   UNL     1       4.323   4.523  18.709  0.00  0.00    +0.000 NA
ATOM      2  C   UNL     1       4.979   5.649  17.995  0.00  0.00    +0.000 C 
ATOM      3  C   UNL     1       4.030   6.754  17.476  0.00  0.00    +0.000 C 
ATOM      4  N   UNL     1       3.046   7.203  18.467  0.00  0.00    +0.000 N 
ATOM      5  C   UNL     1       2.356   8.384  18.142  0.00  0.00    +0.000 C 
ATOM      6  O   UNL     1       2.556   9.005  17.097  0.00  0.00    +0.000 OA
ATOM      7  C   UNL     1       2.424   6.120  19.245  0.00  0.00    +0.000 C 
ATOM      8  C   UNL     1       3.458   5.098  19.757  0.00  0.00    +0.000 C 
ENDROOT
BRANCH   5   9
ATOM      9  C   UNL     1       1.362   8.941  19.095  0.00  0.00    +0.000 A 
ATOM     10  C   UNL     1       1.472   8.636  20.459  0.00  0.00    +0.000 A 
ATOM     11  C   UNL     1       0.554   9.169  21.368  0.00  0.00    +0.000 A 
ATOM     12  C   UNL     1      -0.461  10.017  20.921  0.00  0.00    +0.000 A 
ATOM     13  C   UNL     1      -0.602  10.302  19.556  0.00  0.00    +0.000 A 
ATOM     14  C   UNL     1       0.290   9.714  18.647  0.00  0.00    +0.000 A 
BRANCH  13  15
ATOM     15  C   UNL     1      -1.644  11.274  19.058  0.00  0.00    +0.000 C 
BRANCH  15  16
ATOM     16  N   UNL     1      -1.175  12.645  19.186  0.00  0.00    +0.000 N 
ATOM     17  C   UNL     1      -0.325  13.304  18.338  0.00  0.00    +0.000 A 
ATOM     18  C   UNL     1      -0.203  14.568  18.868  0.00  0.00    +0.000 A 
ATOM     19  N   UNL     1      -0.969  14.695  19.999  0.00  0.00    +0.000 NA
ATOM     20  C   UNL     1      -1.545  13.527  20.162  0.00  0.00    +0.000 A 
ENDBRANCH  15  16
ENDBRANCH  13  15
ENDBRANCH   5   9
BRANCH   1  21
ATOM     21  C   UNL     1       3.605   3.653  17.758  0.00  0.00    +0.000 C 
BRANCH  21  23
ATOM     22  C   UNL     1       2.015   1.955  18.889  0.00  0.00    +0.000 C 
ATOM     23  C   UNL     1       3.340   2.185  18.174  0.00  0.00    +0.000 C 
BRANCH  23  24
ATOM     24  O   UNL     1       4.396   1.763  19.047  0.00  0.00    +0.000 OA
ATOM     25  H   UNL     1       4.355   2.314  19.848  0.00  0.00    +0.000 HD
ENDBRANCH  23  24
ENDBRANCH  21  23
ENDBRANCH   1  21
TORSDOF 6
ENDMDL
MODEL 9
REMARK VINA RESULT:      -6.1      2.869      8.152
REMARK  Name = 
REMARK  7 active torsions:
REMARK  status: ('A' for Active; 'I' for Inactive)
REMARK    1  A    between atoms: C_1  and  C_2
REMARK    2  A    between atoms: C_2  and  O_3
REMARK    3  A    between atoms: C_2  and  C_4
REMARK    4  A    between atoms: C_4  and  N_5
REMARK    5  A    between atoms: C_9  and  C_11
REMARK    6  A    between atoms: C_15  and  C_16
REMARK    7  A    between atoms: C_16  and  N_17
REMARK                            x       y       z     vdW  Elec       q    Type
REMARK                         _______ _______ _______ _____ _____    ______ ____
ROOT
ATOM      1  N   UNL     1       4.114   4.556  18.412  0.00  0.00    +0.000 NA
ATOM      2  C   UNL     1       4.680   5.739  17.713  0.00  0.00    +0.000 C 
ATOM      3  C   UNL     1       3.684   6.888  17.432  0.00  0.00    +0.000 C 
ATOM      4  N   UNL     1       2.857   7.250  18.587  0.00  0.00    +0.000 N 
ATOM      5  C   UNL     1       2.145   8.457  18.467  0.00  0.00    +0.000 C 
ATOM      6  O   UNL     1       2.205   9.167  17.462  0.00  0.00    +0.000 OA
ATOM      7  C   UNL     1       2.335   6.104  19.348  0.00  0.00    +0.000 C 
ATOM      8  C   UNL     1       3.415   5.039  19.618  0.00  0.00    +0.000 C 
ENDROOT
BRANCH   5   9
ATOM      9  C   UNL     1       1.304   8.931  19.596  0.00  0.00    +0.000 A 
ATOM     10  C   UNL     1       1.386   8.278  20.834  0.00  0.00    +0.000 A 
ATOM     11  C   UNL     1       0.613   8.726  21.909  0.00  0.00    +0.000 A 
ATOM     12  C   UNL     1      -0.226   9.832  21.755  0.00  0.00    +0.000 A 
ATOM     13  C   UNL     1      -0.342  10.471  20.513  0.00  0.00    +0.000 A 
ATOM     14  C   UNL     1       0.394   9.975  19.427  0.00  0.00    +0.000 A 
BRANCH  13  15
ATOM     15  C   UNL     1      -1.185  11.712  20.342  0.00  0.00    +0.000 C 
BRANCH  15  16
ATOM     16  N   UNL     1      -0.833  12.716  21.333  0.00  0.00    +0.000 N 
ATOM     17  C   UNL     1      -1.595  13.122  22.396  0.00  0.00    +0.000 A 
ATOM     18  C   UNL     1      -0.830  14.063  23.044  0.00  0.00    +0.000 A 
ATOM     19  N   UNL     1       0.378  14.223  22.414  0.00  0.00    +0.000 NA
ATOM     20  C   UNL     1       0.349  13.397  21.394  0.00  0.00    +0.000 A 
ENDBRANCH  15  16
ENDBRANCH  13  15
ENDBRANCH   5   9
BRANCH   1  21
ATOM     21  C   UNL     1       3.257   3.776  17.501  0.00  0.00    +0.000 C 
BRANCH  21  23
ATOM     22  C   UNL     1       1.742   2.059  18.705  0.00  0.00    +0.000 C 
ATOM     23  C   UNL     1       2.983   2.293  17.853  0.00  0.00    +0.000 C 
BRANCH  23  24
ATOM     24  O   UNL     1       4.116   1.779  18.567  0.00  0.00    +0.000 OA
ATOM     25  H   UNL     1       4.078   0.808  18.522  0.00  0.00    +0.000 HD
ENDBRANCH  23  24
ENDBRANCH  21  23
ENDBRANCH   1  21
TORSDOF 6
ENDMDL
