MODEL 1
REMARK VINA RESULT:      -8.2      0.000      0.000
REMARK  Name = 
REMARK  11 active torsions:
REMARK  status: ('A' for Active; 'I' for Inactive)
REMARK    1  A    between atoms: C_1  and  N_2
REMARK    2  A    between atoms: N_2  and  C_3
REMARK    3  A    between atoms: N_2  and  C_4
REMARK    4  A    between atoms: C_4  and  C_5
REMARK    5  A    between atoms: C_5  and  C_6
REMARK    6  A    between atoms: C_12  and  C_13
REMARK    7  A    between atoms: C_13  and  C_14
REMARK    8  A    between atoms: C_14  and  N_15
REMARK    9  A    between atoms: C_19  and  C_20
REMARK   10  A    between atoms: C_20  and  C_21
REMARK   11  A    between atoms: C_24  and  N_25
REMARK                            x       y       z     vdW  Elec       q    Type
REMARK                         _______ _______ _______ _____ _____    ______ ____
ROOT
ATOM      1  N   UNL     1       1.476   3.562  19.744  0.00  0.00    +0.000 N 
ATOM      2  C   UNL     1       1.319   3.277  18.423  0.00  0.00    +0.000 C 
ATOM      3  O   UNL     1       0.690   3.908  17.587  0.00  0.00    +0.000 OA
ATOM      4  N   UNL     1       1.999   2.117  18.138  0.00  0.00    +0.000 N 
ATOM      5  C   UNL     1       2.776   1.653  19.260  0.00  0.00    +0.000 C 
ATOM      6  C   UNL     1       2.293   2.636  20.331  0.00  0.00    +0.000 C 
ATOM      7  O   UNL     1       2.644   2.607  21.505  0.00  0.00    +0.000 OA
ATOM      8  H   UNL     1       1.996   1.719  17.211  0.00  0.00    +0.000 HD
ENDROOT
BRANCH   1   9
ATOM      9  C   UNL     1       0.946   4.746  20.396  0.00  0.00    +0.000 C 
BRANCH   9  10
ATOM     10  C   UNL     1       2.040   5.761  20.748  0.00  0.00    +0.000 C 
BRANCH  10  17
ATOM     11  C   UNL     1       0.863  10.681  19.924  0.00  0.00    +0.000 A 
ATOM     12  C   UNL     1       1.047  11.399  18.757  0.00  0.00    +0.000 A 
ATOM     13  N   UNL     1       1.625  10.573  17.832  0.00  0.00    +0.000 N 
ATOM     14  C   UNL     1       1.814   9.319  18.364  0.00  0.00    +0.000 A 
ATOM     15  C   UNL     1       2.375   8.170  17.797  0.00  0.00    +0.000 A 
ATOM     16  C   UNL     1       2.435   7.015  18.588  0.00  0.00    +0.000 A 
ATOM     17  C   UNL     1       1.960   7.007  19.902  0.00  0.00    +0.000 A 
ATOM     18  C   UNL     1       1.401   8.177  20.447  0.00  0.00    +0.000 A 
ATOM     19  C   UNL     1       1.331   9.353  19.672  0.00  0.00    +0.000 A 
ATOM     20  H   UNL     1       1.884  10.841  16.892  0.00  0.00    +0.000 HD
BRANCH  11  21
ATOM     21  C   UNL     1       0.306  11.208  21.212  0.00  0.00    +0.000 C 
BRANCH  21  22
ATOM     22  C   UNL     1      -0.615  12.419  20.972  0.00  0.00    +0.000 C 
BRANCH  22  24
ATOM     23  C   UNL     1      -2.811  13.018  21.741  0.00  0.00    +0.000 C 
ATOM     24  N   UNL     1      -2.055  12.101  20.881  0.00  0.00    +0.000 NA
ATOM     25  C   UNL     1      -2.557  12.191  19.509  0.00  0.00    +0.000 C 
ENDBRANCH  22  24
ENDBRANCH  21  22
ENDBRANCH  11  21
ENDBRANCH  10  17
ENDBRANCH   9  10
ENDBRANCH   1   9
BRANCH   5  26
ATOM     26  C   UNL     1       4.285   1.837  19.075  0.00  0.00    +0.000 C 
BRANCH  26  27
ATOM     27  C   UNL     1       4.672   3.128  18.391  0.00  0.00    +0.000 A 
ATOM     28  C   UNL     1       5.178   4.199  19.145  0.00  0.00    +0.000 A 
ATOM     29  C   UNL     1       5.559   5.390  18.524  0.00  0.00    +0.000 A 
ATOM     30  C   UNL     1       5.436   5.512  17.134  0.00  0.00    +0.000 A 
ATOM     31  C   UNL     1       4.926   4.453  16.371  0.00  0.00    +0.000 A 
ATOM     32  C   UNL     1       4.542   3.267  17.003  0.00  0.00    +0.000 A 
BRANCH  30  33
ATOM     33  N   UNL     1       5.850   6.755  16.472  0.00  0.00    +0.000 N 
ATOM     34  O   UNL     1       5.302   7.048  15.400  0.00  0.00    +0.000 OA
ATOM     35  O   UNL     1       6.728   7.436  17.021  0.00  0.00    +0.000 OA
ENDBRANCH  30  33
ENDBRANCH  26  27
ENDBRANCH   5  26
TORSDOF 9
ENDMDL
MODEL 2
REMARK VINA RESULT:      -8.1      0.889      1.344
REMARK  Name = 
REMARK  11 active torsions:
REMARK  status: ('A' for Active; 'I' for Inactive)
REMARK    1  A    between atoms: C_1  and  N_2
REMARK    2  A    between atoms: N_2  and  C_3
REMARK    3  A    between atoms: N_2  and  C_4
REMARK    4  A    between atoms: C_4  and  C_5
REMARK    5  A    between atoms: C_5  and  C_6
REMARK    6  A    between atoms: C_12  and  C_13
REMARK    7  A    between atoms: C_13  and  C_14
REMARK    8  A    between atoms: C_14  and  N_15
REMARK    9  A    between atoms: C_19  and  C_20
REMARK   10  A    between atoms: C_20  and  C_21
REMARK   11  A    between atoms: C_24  and  N_25
REMARK                            x       y       z     vdW  Elec       q    Type
REMARK                         _______ _______ _______ _____ _____    ______ ____
ROOT
ATOM      1  N   UNL     1       1.500   3.598  19.738  0.00  0.00    +0.000 N 
ATOM      2  C   UNL     1       1.290   3.328  18.421  0.00  0.00    +0.000 C 
ATOM      3  O   UNL     1       0.660   3.988  17.610  0.00  0.00    +0.000 OA
ATOM      4  N   UNL     1       1.914   2.145  18.108  0.00  0.00    +0.000 N 
ATOM      5  C   UNL     1       2.709   1.643  19.202  0.00  0.00    +0.000 C 
ATOM      6  C   UNL     1       2.298   2.636  20.293  0.00  0.00    +0.000 C 
ATOM      7  O   UNL     1       2.685   2.586  21.455  0.00  0.00    +0.000 OA
ATOM      8  H   UNL     1       1.866   1.753  17.179  0.00  0.00    +0.000 HD
ENDROOT
BRANCH   1   9
ATOM      9  C   UNL     1       1.038   4.797  20.414  0.00  0.00    +0.000 C 
BRANCH   9  10
ATOM     10  C   UNL     1       2.168   5.803  20.660  0.00  0.00    +0.000 C 
BRANCH  10  17
ATOM     11  C   UNL     1       0.804  10.693  19.951  0.00  0.00    +0.000 A 
ATOM     12  C   UNL     1       0.912  11.429  18.786  0.00  0.00    +0.000 A 
ATOM     13  N   UNL     1       1.472  10.631  17.825  0.00  0.00    +0.000 N 
ATOM     14  C   UNL     1       1.724   9.378  18.333  0.00  0.00    +0.000 A 
ATOM     15  C   UNL     1       2.293   8.254  17.727  0.00  0.00    +0.000 A 
ATOM     16  C   UNL     1       2.425   7.093  18.499  0.00  0.00    +0.000 A 
ATOM     17  C   UNL     1       2.011   7.055  19.834  0.00  0.00    +0.000 A 
ATOM     18  C   UNL     1       1.442   8.202  20.418  0.00  0.00    +0.000 A 
ATOM     19  C   UNL     1       1.300   9.383  19.662  0.00  0.00    +0.000 A 
ATOM     20  H   UNL     1       1.679  10.917  16.878  0.00  0.00    +0.000 HD
BRANCH  11  21
ATOM     21  C   UNL     1       0.291  11.188  21.269  0.00  0.00    +0.000 C 
BRANCH  21  22
ATOM     22  C   UNL     1      -0.233  12.633  21.161  0.00  0.00    +0.000 C 
BRANCH  22  24
ATOM     23  C   UNL     1       1.499  14.293  21.295  0.00  0.00    +0.000 C 
ATOM     24  N   UNL     1       0.439  13.608  22.044  0.00  0.00    +0.000 NA
ATOM     25  C   UNL     1      -0.493  14.597  22.587  0.00  0.00    +0.000 C 
ENDBRANCH  22  24
ENDBRANCH  21  22
ENDBRANCH  11  21
ENDBRANCH  10  17
ENDBRANCH   9  10
ENDBRANCH   1   9
BRANCH   5  26
ATOM     26  C   UNL     1       4.217   1.769  18.969  0.00  0.00    +0.000 C 
BRANCH  26  27
ATOM     27  C   UNL     1       4.635   3.064  18.311  0.00  0.00    +0.000 A 
ATOM     28  C   UNL     1       5.111   4.128  19.095  0.00  0.00    +0.000 A 
ATOM     29  C   UNL     1       5.520   5.323  18.498  0.00  0.00    +0.000 A 
ATOM     30  C   UNL     1       5.457   5.454  17.106  0.00  0.00    +0.000 A 
ATOM     31  C   UNL     1       4.978   4.403  16.314  0.00  0.00    +0.000 A 
ATOM     32  C   UNL     1       4.565   3.213  16.920  0.00  0.00    +0.000 A 
BRANCH  30  33
ATOM     33  N   UNL     1       5.902   6.701  16.471  0.00  0.00    +0.000 N 
ATOM     34  O   UNL     1       6.988   7.176  16.830  0.00  0.00    +0.000 OA
ATOM     35  O   UNL     1       5.161   7.209  15.616  0.00  0.00    +0.000 OA
ENDBRANCH  30  33
ENDBRANCH  26  27
ENDBRANCH   5  26
TORSDOF 9
ENDMDL
MODEL 3
REMARK VINA RESULT:      -8.1      0.598      1.223
REMARK  Name = 
REMARK  11 active torsions:
REMARK  status: ('A' for Active; 'I' for Inactive)
REMARK    1  A    between atoms: C_1  and  N_2
REMARK    2  A    between atoms: N_2  and  C_3
REMARK    3  A    between atoms: N_2  and  C_4
REMARK    4  A    between atoms: C_4  and  C_5
REMARK    5  A    between atoms: C_5  and  C_6
REMARK    6  A    between atoms: C_12  and  C_13
REMARK    7  A    between atoms: C_13  and  C_14
REMARK    8  A    between atoms: C_14  and  N_15
REMARK    9  A    between atoms: C_19  and  C_20
REMARK   10  A    between atoms: C_20  and  C_21
REMARK   11  A    between atoms: C_24  and  N_25
REMARK                            x       y       z     vdW  Elec       q    Type
REMARK                         _______ _______ _______ _____ _____    ______ ____
ROOT
ATOM      1  N   UNL     1       1.445   3.635  19.654  0.00  0.00    +0.000 N 
ATOM      2  C   UNL     1       1.341   3.402  18.317  0.00  0.00    +0.000 C 
ATOM      3  O   UNL     1       0.785   4.091  17.476  0.00  0.00    +0.000 OA
ATOM      4  N   UNL     1       1.978   2.221  18.024  0.00  0.00    +0.000 N 
ATOM      5  C   UNL     1       2.676   1.682  19.164  0.00  0.00    +0.000 C 
ATOM      6  C   UNL     1       2.187   2.650  20.245  0.00  0.00    +0.000 C 
ATOM      7  O   UNL     1       2.478   2.565  21.433  0.00  0.00    +0.000 OA
ATOM      8  H   UNL     1       2.003   1.855  17.083  0.00  0.00    +0.000 HD
ENDROOT
BRANCH   1   9
ATOM      9  C   UNL     1       0.941   4.821  20.322  0.00  0.00    +0.000 C 
BRANCH   9  10
ATOM     10  C   UNL     1       2.053   5.817  20.668  0.00  0.00    +0.000 C 
BRANCH  10  17
ATOM     11  C   UNL     1       0.783  10.728  19.932  0.00  0.00    +0.000 A 
ATOM     12  C   UNL     1       0.979  11.479  18.788  0.00  0.00    +0.000 A 
ATOM     13  N   UNL     1       1.598  10.688  17.858  0.00  0.00    +0.000 N 
ATOM     14  C   UNL     1       1.803   9.426  18.365  0.00  0.00    +0.000 A 
ATOM     15  C   UNL     1       2.404   8.305  17.785  0.00  0.00    +0.000 A 
ATOM     16  C   UNL     1       2.472   7.133  18.549  0.00  0.00    +0.000 A 
ATOM     17  C   UNL     1       1.965   7.082  19.851  0.00  0.00    +0.000 A 
ATOM     18  C   UNL     1       1.366   8.225  20.409  0.00  0.00    +0.000 A 
ATOM     19  C   UNL     1       1.287   9.418  19.661  0.00  0.00    +0.000 A 
ATOM     20  H   UNL     1       1.873  10.985  16.932  0.00  0.00    +0.000 HD
BRANCH  11  21
ATOM     21  C   UNL     1       0.183  11.211  21.218  0.00  0.00    +0.000 C 
BRANCH  21  22
ATOM     22  C   UNL     1      -1.243  11.754  21.004  0.00  0.00    +0.000 C 
BRANCH  22  24
ATOM     23  C   UNL     1      -1.243  13.051  23.026  0.00  0.00    +0.000 C 
ATOM     24  N   UNL     1      -1.496  13.090  21.581  0.00  0.00    +0.000 NA
ATOM     25  C   UNL     1      -0.664  14.125  20.966  0.00  0.00    +0.000 C 
ENDBRANCH  22  24
ENDBRANCH  21  22
ENDBRANCH  11  21
ENDBRANCH  10  17
ENDBRANCH   9  10
ENDBRANCH   1   9
BRANCH   5  26
ATOM     26  C   UNL     1       4.200   1.798  19.058  0.00  0.00    +0.000 C 
BRANCH  26  27
ATOM     27  C   UNL     1       4.679   3.069  18.397  0.00  0.00    +0.000 A 
ATOM     28  C   UNL     1       4.696   3.169  16.996  0.00  0.00    +0.000 A 
ATOM     29  C   UNL     1       5.116   4.346  16.371  0.00  0.00    +0.000 A 
ATOM     30  C   UNL     1       5.519   5.435  17.154  0.00  0.00    +0.000 A 
ATOM     31  C   UNL     1       5.512   5.346  18.552  0.00  0.00    +0.000 A 
ATOM     32  C   UNL     1       5.096   4.162  19.168  0.00  0.00    +0.000 A 
BRANCH  30  33
ATOM     33  N   UNL     1       5.945   6.680  16.505  0.00  0.00    +0.000 N 
ATOM     34  O   UNL     1       7.073   7.115  16.776  0.00  0.00    +0.000 OA
ATOM     35  O   UNL     1       5.150   7.226  15.727  0.00  0.00    +0.000 OA
ENDBRANCH  30  33
ENDBRANCH  26  27
ENDBRANCH   5  26
TORSDOF 9
ENDMDL
MODEL 4
REMARK VINA RESULT:      -8.0      2.998      5.371
REMARK  Name = 
REMARK  11 active torsions:
REMARK  status: ('A' for Active; 'I' for Inactive)
REMARK    1  A    between atoms: C_1  and  N_2
REMARK    2  A    between atoms: N_2  and  C_3
REMARK    3  A    between atoms: N_2  and  C_4
REMARK    4  A    between atoms: C_4  and  C_5
REMARK    5  A    between atoms: C_5  and  C_6
REMARK    6  A    between atoms: C_12  and  C_13
REMARK    7  A    between atoms: C_13  and  C_14
REMARK    8  A    between atoms: C_14  and  N_15
REMARK    9  A    between atoms: C_19  and  C_20
REMARK   10  A    between atoms: C_20  and  C_21
REMARK   11  A    between atoms: C_24  and  N_25
REMARK                            x       y       z     vdW  Elec       q    Type
REMARK                         _______ _______ _______ _____ _____    ______ ____
ROOT
ATOM      1  N   UNL     1       0.846   9.173  19.519  0.00  0.00    +0.000 N 
ATOM      2  C   UNL     1       0.895   8.477  20.688  0.00  0.00    +0.000 C 
ATOM      3  O   UNL     1       0.148   8.569  21.649  0.00  0.00    +0.000 OA
ATOM      4  N   UNL     1       1.961   7.611  20.640  0.00  0.00    +0.000 N 
ATOM      5  C   UNL     1       2.590   7.593  19.344  0.00  0.00    +0.000 C 
ATOM      6  C   UNL     1       1.833   8.744  18.675  0.00  0.00    +0.000 C 
ATOM      7  O   UNL     1       2.058   9.155  17.543  0.00  0.00    +0.000 OA
ATOM      8  H   UNL     1       2.187   7.011  21.420  0.00  0.00    +0.000 HD
ENDROOT
BRANCH   1   9
ATOM      9  C   UNL     1      -0.184  10.140  19.183  0.00  0.00    +0.000 C 
BRANCH   9  10
ATOM     10  C   UNL     1      -0.626  10.042  17.719  0.00  0.00    +0.000 C 
BRANCH  10  17
ATOM     11  C   UNL     1      -4.980  12.297  19.211  0.00  0.00    +0.000 A 
ATOM     12  C   UNL     1      -6.146  12.426  18.479  0.00  0.00    +0.000 A 
ATOM     13  N   UNL     1      -5.947  11.855  17.252  0.00  0.00    +0.000 N 
ATOM     14  C   UNL     1      -4.674  11.342  17.165  0.00  0.00    +0.000 A 
ATOM     15  C   UNL     1      -4.033  10.688  16.108  0.00  0.00    +0.000 A 
ATOM     16  C   UNL     1      -2.713  10.264  16.308  0.00  0.00    +0.000 A 
ATOM     17  C   UNL     1      -2.051  10.493  17.518  0.00  0.00    +0.000 A 
ATOM     18  C   UNL     1      -2.721  11.154  18.563  0.00  0.00    +0.000 A 
ATOM     19  C   UNL     1      -4.049  11.591  18.386  0.00  0.00    +0.000 A 
ATOM     20  H   UNL     1      -6.632  11.819  16.508  0.00  0.00    +0.000 HD
BRANCH  11  21
ATOM     21  C   UNL     1      -4.736  12.825  20.592  0.00  0.00    +0.000 C 
BRANCH  21  22
ATOM     22  C   UNL     1      -6.036  12.863  21.416  0.00  0.00    +0.000 C 
BRANCH  22  24
ATOM     23  C   UNL     1      -4.839  13.127  23.483  0.00  0.00    +0.000 C 
ATOM     24  N   UNL     1      -5.908  12.382  22.808  0.00  0.00    +0.000 NA
ATOM     25  C   UNL     1      -7.155  12.525  23.560  0.00  0.00    +0.000 C 
ENDBRANCH  22  24
ENDBRANCH  21  22
ENDBRANCH  11  21
ENDBRANCH  10  17
ENDBRANCH   9  10
ENDBRANCH   1   9
BRANCH   5  26
ATOM     26  C   UNL     1       2.323   6.309  18.553  0.00  0.00    +0.000 C 
BRANCH  26  27
ATOM     27  C   UNL     1       3.469   5.880  17.665  0.00  0.00    +0.000 A 
ATOM     28  C   UNL     1       3.600   4.534  17.289  0.00  0.00    +0.000 A 
ATOM     29  C   UNL     1       4.641   4.127  16.452  0.00  0.00    +0.000 A 
ATOM     30  C   UNL     1       5.558   5.075  15.983  0.00  0.00    +0.000 A 
ATOM     31  C   UNL     1       5.443   6.421  16.357  0.00  0.00    +0.000 A 
ATOM     32  C   UNL     1       4.401   6.817  17.200  0.00  0.00    +0.000 A 
BRANCH  30  33
ATOM     33  N   UNL     1       6.646   4.658  15.090  0.00  0.00    +0.000 N 
ATOM     34  O   UNL     1       7.663   5.364  15.050  0.00  0.00    +0.000 OA
ATOM     35  O   UNL     1       6.480   3.626  14.423  0.00  0.00    +0.000 OA
ENDBRANCH  30  33
ENDBRANCH  26  27
ENDBRANCH   5  26
TORSDOF 9
ENDMDL
MODEL 5
REMARK VINA RESULT:      -7.8      2.831      7.857
REMARK  Name = 
REMARK  11 active torsions:
REMARK  status: ('A' for Active; 'I' for Inactive)
REMARK    1  A    between atoms: C_1  and  N_2
REMARK    2  A    between atoms: N_2  and  C_3
REMARK    3  A    between atoms: N_2  and  C_4
REMARK    4  A    between atoms: C_4  and  C_5
REMARK    5  A    between atoms: C_5  and  C_6
REMARK    6  A    between atoms: C_12  and  C_13
REMARK    7  A    between atoms: C_13  and  C_14
REMARK    8  A    between atoms: C_14  and  N_15
REMARK    9  A    between atoms: C_19  and  C_20
REMARK   10  A    between atoms: C_20  and  C_21
REMARK   11  A    between atoms: C_24  and  N_25
REMARK                            x       y       z     vdW  Elec       q    Type
REMARK                         _______ _______ _______ _____ _____    ______ ____
ROOT
ATOM      1  N   UNL     1       1.848   3.114  19.641  0.00  0.00    +0.000 N 
ATOM      2  C   UNL     1       1.965   3.353  20.976  0.00  0.00    +0.000 C 
ATOM      3  O   UNL     1       2.307   2.573  21.851  0.00  0.00    +0.000 OA
ATOM      4  N   UNL     1       1.627   4.662  21.221  0.00  0.00    +0.000 N 
ATOM      5  C   UNL     1       1.407   5.404  20.005  0.00  0.00    +0.000 C 
ATOM      6  C   UNL     1       1.485   4.260  18.989  0.00  0.00    +0.000 C 
ATOM      7  O   UNL     1       1.304   4.392  17.784  0.00  0.00    +0.000 OA
ATOM      8  H   UNL     1       1.632   5.040  22.157  0.00  0.00    +0.000 HD
ENDROOT
BRANCH   1   9
ATOM      9  C   UNL     1       2.178   1.853  19.001  0.00  0.00    +0.000 C 
BRANCH   9  10
ATOM     10  C   UNL     1       3.689   1.604  18.942  0.00  0.00    +0.000 C 
BRANCH  10  17
ATOM     11  C   UNL     1       5.481   4.588  15.180  0.00  0.00    +0.000 A 
ATOM     12  C   UNL     1       6.244   5.733  15.315  0.00  0.00    +0.000 A 
ATOM     13  N   UNL     1       6.438   5.964  16.649  0.00  0.00    +0.000 N 
ATOM     14  C   UNL     1       5.828   4.984  17.397  0.00  0.00    +0.000 A 
ATOM     15  C   UNL     1       5.753   4.818  18.784  0.00  0.00    +0.000 A 
ATOM     16  C   UNL     1       5.056   3.706  19.271  0.00  0.00    +0.000 A 
ATOM     17  C   UNL     1       4.446   2.793  18.406  0.00  0.00    +0.000 A 
ATOM     18  C   UNL     1       4.537   2.985  17.016  0.00  0.00    +0.000 A 
ATOM     19  C   UNL     1       5.232   4.098  16.500  0.00  0.00    +0.000 A 
ATOM     20  H   UNL     1       6.951   6.744  17.037  0.00  0.00    +0.000 HD
BRANCH  11  21
ATOM     21  C   UNL     1       4.989   3.996  13.895  0.00  0.00    +0.000 C 
BRANCH  21  22
ATOM     22  C   UNL     1       6.159   3.596  12.976  0.00  0.00    +0.000 C 
BRANCH  22  24
ATOM     23  C   UNL     1       6.142   1.671  11.537  0.00  0.00    +0.000 C 
ATOM     24  N   UNL     1       5.763   3.085  11.647  0.00  0.00    +0.000 NA
ATOM     25  C   UNL     1       4.327   3.227  11.404  0.00  0.00    +0.000 C 
ENDBRANCH  22  24
ENDBRANCH  21  22
ENDBRANCH  11  21
ENDBRANCH  10  17
ENDBRANCH   9  10
ENDBRANCH   1   9
BRANCH   5  26
ATOM     26  C   UNL     1       2.518   6.410  19.693  0.00  0.00    +0.000 C 
BRANCH  26  27
ATOM     27  C   UNL     1       2.026   7.817  19.445  0.00  0.00    +0.000 A 
ATOM     28  C   UNL     1       2.248   8.430  18.201  0.00  0.00    +0.000 A 
ATOM     29  C   UNL     1       1.781   9.723  17.951  0.00  0.00    +0.000 A 
ATOM     30  C   UNL     1       1.081  10.407  18.952  0.00  0.00    +0.000 A 
ATOM     31  C   UNL     1       0.859   9.810  20.200  0.00  0.00    +0.000 A 
ATOM     32  C   UNL     1       1.336   8.519  20.443  0.00  0.00    +0.000 A 
BRANCH  30  33
ATOM     33  N   UNL     1       0.572  11.759  18.691  0.00  0.00    +0.000 N 
ATOM     34  O   UNL     1       1.393  12.687  18.649  0.00  0.00    +0.000 OA
ATOM     35  O   UNL     1      -0.650  11.895  18.532  0.00  0.00    +0.000 OA
ENDBRANCH  30  33
ENDBRANCH  26  27
ENDBRANCH   5  26
TORSDOF 9
ENDMDL
MODEL 6
REMARK VINA RESULT:      -7.8      3.521      9.073
REMARK  Name = 
REMARK  11 active torsions:
REMARK  status: ('A' for Active; 'I' for Inactive)
REMARK    1  A    between atoms: C_1  and  N_2
REMARK    2  A    between atoms: N_2  and  C_3
REMARK    3  A    between atoms: N_2  and  C_4
REMARK    4  A    between atoms: C_4  and  C_5
REMARK    5  A    between atoms: C_5  and  C_6
REMARK    6  A    between atoms: C_12  and  C_13
REMARK    7  A    between atoms: C_13  and  C_14
REMARK    8  A    between atoms: C_14  and  N_15
REMARK    9  A    between atoms: C_19  and  C_20
REMARK   10  A    between atoms: C_20  and  C_21
REMARK   11  A    between atoms: C_24  and  N_25
REMARK                            x       y       z     vdW  Elec       q    Type
REMARK                         _______ _______ _______ _____ _____    ______ ____
ROOT
ATOM      1  N   UNL     1       1.681   8.525  19.449  0.00  0.00    +0.000 N 
ATOM      2  C   UNL     1       2.187   8.730  18.202  0.00  0.00    +0.000 C 
ATOM      3  O   UNL     1       3.130   8.163  17.671  0.00  0.00    +0.000 OA
ATOM      4  N   UNL     1       1.456   9.717  17.586  0.00  0.00    +0.000 N 
ATOM      5  C   UNL     1       0.312  10.115  18.368  0.00  0.00    +0.000 C 
ATOM      6  C   UNL     1       0.593   9.327  19.651  0.00  0.00    +0.000 C 
ATOM      7  O   UNL     1      -0.099   9.382  20.662  0.00  0.00    +0.000 OA
ATOM      8  H   UNL     1       1.680  10.034  16.654  0.00  0.00    +0.000 HD
ENDROOT
BRANCH   1   9
ATOM      9  C   UNL     1       2.163   7.515  20.374  0.00  0.00    +0.000 C 
BRANCH   9  10
ATOM     10  C   UNL     1       1.116   6.434  20.660  0.00  0.00    +0.000 C 
BRANCH  10  17
ATOM     11  C   UNL     1       3.710   3.303  17.540  0.00  0.00    +0.000 A 
ATOM     12  C   UNL     1       3.702   1.920  17.549  0.00  0.00    +0.000 A 
ATOM     13  N   UNL     1       2.881   1.504  18.562  0.00  0.00    +0.000 N 
ATOM     14  C   UNL     1       2.338   2.587  19.213  0.00  0.00    +0.000 A 
ATOM     15  C   UNL     1       1.464   2.643  20.303  0.00  0.00    +0.000 A 
ATOM     16  C   UNL     1       1.070   3.907  20.759  0.00  0.00    +0.000 A 
ATOM     17  C   UNL     1       1.538   5.078  20.154  0.00  0.00    +0.000 A 
ATOM     18  C   UNL     1       2.417   4.991  19.059  0.00  0.00    +0.000 A 
ATOM     19  C   UNL     1       2.830   3.730  18.583  0.00  0.00    +0.000 A 
ATOM     20  H   UNL     1       2.699   0.540  18.805  0.00  0.00    +0.000 HD
BRANCH  11  21
ATOM     21  C   UNL     1       4.514   4.179  16.629  0.00  0.00    +0.000 C 
BRANCH  21  22
ATOM     22  C   UNL     1       5.893   4.504  17.234  0.00  0.00    +0.000 C 
BRANCH  22  24
ATOM     23  C   UNL     1       6.669   5.505  19.277  0.00  0.00    +0.000 C 
ATOM     24  N   UNL     1       5.951   5.754  18.021  0.00  0.00    +0.000 NA
ATOM     25  C   UNL     1       6.607   6.838  17.289  0.00  0.00    +0.000 C 
ENDBRANCH  22  24
ENDBRANCH  21  22
ENDBRANCH  11  21
ENDBRANCH  10  17
ENDBRANCH   9  10
ENDBRANCH   1   9
BRANCH   5  26
ATOM     26  C   UNL     1      -1.021   9.640  17.785  0.00  0.00    +0.000 C 
BRANCH  26  27
ATOM     27  C   UNL     1      -2.205  10.495  18.173  0.00  0.00    +0.000 A 
ATOM     28  C   UNL     1      -3.478  10.210  17.652  0.00  0.00    +0.000 A 
ATOM     29  C   UNL     1      -4.585  10.979  18.019  0.00  0.00    +0.000 A 
ATOM     30  C   UNL     1      -4.419  12.041  18.917  0.00  0.00    +0.000 A 
ATOM     31  C   UNL     1      -3.154  12.339  19.438  0.00  0.00    +0.000 A 
ATOM     32  C   UNL     1      -2.051  11.568  19.061  0.00  0.00    +0.000 A 
BRANCH  30  33
ATOM     33  N   UNL     1      -5.581  12.843  19.319  0.00  0.00    +0.000 N 
ATOM     34  O   UNL     1      -6.684  12.542  18.841  0.00  0.00    +0.000 OA
ATOM     35  O   UNL     1      -5.390  13.778  20.110  0.00  0.00    +0.000 OA
ENDBRANCH  30  33
ENDBRANCH  26  27
ENDBRANCH   5  26
TORSDOF 9
ENDMDL
MODEL 7
REMARK VINA RESULT:      -7.8      2.892      7.858
REMARK  Name = 
REMARK  11 active torsions:
REMARK  status: ('A' for Active; 'I' for Inactive)
REMARK    1  A    between atoms: C_1  and  N_2
REMARK    2  A    between atoms: N_2  and  C_3
REMARK    3  A    between atoms: N_2  and  C_4
REMARK    4  A    between atoms: C_4  and  C_5
REMARK    5  A    between atoms: C_5  and  C_6
REMARK    6  A    between atoms: C_12  and  C_13
REMARK    7  A    between atoms: C_13  and  C_14
REMARK    8  A    between atoms: C_14  and  N_15
REMARK    9  A    between atoms: C_19  and  C_20
REMARK   10  A    between atoms: C_20  and  C_21
REMARK   11  A    between atoms: C_24  and  N_25
REMARK                            x       y       z     vdW  Elec       q    Type
REMARK                         _______ _______ _______ _____ _____    ______ ____
ROOT
ATOM      1  N   UNL     1       2.038   3.174  19.781  0.00  0.00    +0.000 N 
ATOM      2  C   UNL     1       2.267   3.417  21.101  0.00  0.00    +0.000 C 
ATOM      3  O   UNL     1       2.722   2.653  21.938  0.00  0.00    +0.000 OA
ATOM      4  N   UNL     1       1.894   4.709  21.382  0.00  0.00    +0.000 N 
ATOM      5  C   UNL     1       1.529   5.441  20.195  0.00  0.00    +0.000 C 
ATOM      6  C   UNL     1       1.565   4.302  19.171  0.00  0.00    +0.000 C 
ATOM      7  O   UNL     1       1.269   4.426  17.988  0.00  0.00    +0.000 OA
ATOM      8  H   UNL     1       1.967   5.087  22.315  0.00  0.00    +0.000 HD
ENDROOT
BRANCH   1   9
ATOM      9  C   UNL     1       2.365   1.929  19.108  0.00  0.00    +0.000 C 
BRANCH   9  10
ATOM     10  C   UNL     1       3.876   1.710  18.983  0.00  0.00    +0.000 C 
BRANCH  10  17
ATOM     11  C   UNL     1       5.471   4.590  15.055  0.00  0.00    +0.000 A 
ATOM     12  C   UNL     1       6.200   5.763  15.122  0.00  0.00    +0.000 A 
ATOM     13  N   UNL     1       6.424   6.053  16.440  0.00  0.00    +0.000 N 
ATOM     14  C   UNL     1       5.865   5.087  17.244  0.00  0.00    +0.000 A 
ATOM     15  C   UNL     1       5.833   4.976  18.637  0.00  0.00    +0.000 A 
ATOM     16  C   UNL     1       5.185   3.864  19.189  0.00  0.00    +0.000 A 
ATOM     17  C   UNL     1       4.581   2.898  18.379  0.00  0.00    +0.000 A 
ATOM     18  C   UNL     1       4.627   3.036  16.980  0.00  0.00    +0.000 A 
ATOM     19  C   UNL     1       5.273   4.147  16.401  0.00  0.00    +0.000 A 
ATOM     20  H   UNL     1       6.922   6.864  16.781  0.00  0.00    +0.000 HD
BRANCH  11  21
ATOM     21  C   UNL     1       4.962   3.931  13.809  0.00  0.00    +0.000 C 
BRANCH  21  22
ATOM     22  C   UNL     1       6.116   3.562  12.858  0.00  0.00    +0.000 C 
BRANCH  22  24
ATOM     23  C   UNL     1       5.989   1.598  11.479  0.00  0.00    +0.000 C 
ATOM     24  N   UNL     1       5.697   3.035  11.542  0.00  0.00    +0.000 NA
ATOM     25  C   UNL     1       4.274   3.258  11.284  0.00  0.00    +0.000 C 
ENDBRANCH  22  24
ENDBRANCH  21  22
ENDBRANCH  11  21
ENDBRANCH  10  17
ENDBRANCH   9  10
ENDBRANCH   1   9
BRANCH   5  26
ATOM     26  C   UNL     1       2.560   6.497  19.787  0.00  0.00    +0.000 C 
BRANCH  26  27
ATOM     27  C   UNL     1       1.972   7.862  19.513  0.00  0.00    +0.000 A 
ATOM     28  C   UNL     1       1.285   8.547  20.528  0.00  0.00    +0.000 A 
ATOM     29  C   UNL     1       0.754   9.818  20.295  0.00  0.00    +0.000 A 
ATOM     30  C   UNL     1       0.916  10.412  19.037  0.00  0.00    +0.000 A 
ATOM     31  C   UNL     1       1.594   9.736  18.014  0.00  0.00    +0.000 A 
ATOM     32  C   UNL     1       2.116   8.462  18.255  0.00  0.00    +0.000 A 
BRANCH  30  33
ATOM     33  N   UNL     1       0.376  11.754  18.791  0.00  0.00    +0.000 N 
ATOM     34  O   UNL     1      -0.748  11.838  18.275  0.00  0.00    +0.000 OA
ATOM     35  O   UNL     1       1.078  12.725  19.107  0.00  0.00    +0.000 OA
ENDBRANCH  30  33
ENDBRANCH  26  27
ENDBRANCH   5  26
TORSDOF 9
ENDMDL
MODEL 8
REMARK VINA RESULT:      -7.7      2.844      5.617
REMARK  Name = 
REMARK  11 active torsions:
REMARK  status: ('A' for Active; 'I' for Inactive)
REMARK    1  A    between atoms: C_1  and  N_2
REMARK    2  A    between atoms: N_2  and  C_3
REMARK    3  A    between atoms: N_2  and  C_4
REMARK    4  A    between atoms: C_4  and  C_5
REMARK    5  A    between atoms: C_5  and  C_6
REMARK    6  A    between atoms: C_12  and  C_13
REMARK    7  A    between atoms: C_13  and  C_14
REMARK    8  A    between atoms: C_14  and  N_15
REMARK    9  A    between atoms: C_19  and  C_20
REMARK   10  A    between atoms: C_20  and  C_21
REMARK   11  A    between atoms: C_24  and  N_25
REMARK                            x       y       z     vdW  Elec       q    Type
REMARK                         _______ _______ _______ _____ _____    ______ ____
ROOT
ATOM      1  N   UNL     1       0.685   9.305  19.546  0.00  0.00    +0.000 N 
ATOM      2  C   UNL     1       0.829   8.677  20.745  0.00  0.00    +0.000 C 
ATOM      3  O   UNL     1       0.127   8.784  21.739  0.00  0.00    +0.000 OA
ATOM      4  N   UNL     1       1.934   7.864  20.687  0.00  0.00    +0.000 N 
ATOM      5  C   UNL     1       2.498   7.806  19.361  0.00  0.00    +0.000 C 
ATOM      6  C   UNL     1       1.649   8.880  18.675  0.00  0.00    +0.000 C 
ATOM      7  O   UNL     1       1.796   9.240  17.512  0.00  0.00    +0.000 OA
ATOM      8  H   UNL     1       2.230   7.319  21.483  0.00  0.00    +0.000 HD
ENDROOT
BRANCH   1   9
ATOM      9  C   UNL     1      -0.409  10.201  19.216  0.00  0.00    +0.000 C 
BRANCH   9  10
ATOM     10  C   UNL     1      -0.146  11.640  19.670  0.00  0.00    +0.000 C 
BRANCH  10  17
ATOM     11  C   UNL     1      -4.668  13.067  21.615  0.00  0.00    +0.000 A 
ATOM     12  C   UNL     1      -4.949  13.382  22.931  0.00  0.00    +0.000 A 
ATOM     13  N   UNL     1      -3.800  13.234  23.661  0.00  0.00    +0.000 N 
ATOM     14  C   UNL     1      -2.765  12.838  22.847  0.00  0.00    +0.000 A 
ATOM     15  C   UNL     1      -1.430  12.557  23.153  0.00  0.00    +0.000 A 
ATOM     16  C   UNL     1      -0.587  12.173  22.103  0.00  0.00    +0.000 A 
ATOM     17  C   UNL     1      -1.060  12.065  20.792  0.00  0.00    +0.000 A 
ATOM     18  C   UNL     1      -2.408  12.353  20.513  0.00  0.00    +0.000 A 
ATOM     19  C   UNL     1      -3.277  12.740  21.553  0.00  0.00    +0.000 A 
ATOM     20  H   UNL     1      -3.720  13.386  24.657  0.00  0.00    +0.000 HD
BRANCH  11  21
ATOM     21  C   UNL     1      -5.646  13.046  20.480  0.00  0.00    +0.000 C 
BRANCH  21  22
ATOM     22  C   UNL     1      -6.872  12.173  20.812  0.00  0.00    +0.000 C 
BRANCH  22  24
ATOM     23  C   UNL     1      -7.915  10.011  20.907  0.00  0.00    +0.000 C 
ATOM     24  N   UNL     1      -6.770  10.763  20.382  0.00  0.00    +0.000 NA
ATOM     25  C   UNL     1      -6.724  10.630  18.925  0.00  0.00    +0.000 C 
ENDBRANCH  22  24
ENDBRANCH  21  22
ENDBRANCH  11  21
ENDBRANCH  10  17
ENDBRANCH   9  10
ENDBRANCH   1   9
BRANCH   5  26
ATOM     26  C   UNL     1       2.259   6.469  18.653  0.00  0.00    +0.000 C 
BRANCH  26  27
ATOM     27  C   UNL     1       3.401   6.026  17.768  0.00  0.00    +0.000 A 
ATOM     28  C   UNL     1       4.367   6.956  17.349  0.00  0.00    +0.000 A 
ATOM     29  C   UNL     1       5.439   6.557  16.547  0.00  0.00    +0.000 A 
ATOM     30  C   UNL     1       5.549   5.215  16.164  0.00  0.00    +0.000 A 
ATOM     31  C   UNL     1       4.589   4.279  16.569  0.00  0.00    +0.000 A 
ATOM     32  C   UNL     1       3.516   4.689  17.366  0.00  0.00    +0.000 A 
BRANCH  30  33
ATOM     33  N   UNL     1       6.682   4.784  15.336  0.00  0.00    +0.000 N 
ATOM     34  O   UNL     1       6.620   3.664  14.809  0.00  0.00    +0.000 OA
ATOM     35  O   UNL     1       7.637   5.565  15.216  0.00  0.00    +0.000 OA
ENDBRANCH  30  33
ENDBRANCH  26  27
ENDBRANCH   5  26
TORSDOF 9
ENDMDL
MODEL 9
REMARK VINA RESULT:      -7.7      1.498      1.952
REMARK  Name = 
REMARK  11 active torsions:
REMARK  status: ('A' for Active; 'I' for Inactive)
REMARK    1  A    between atoms: C_1  and  N_2
REMARK    2  A    between atoms: N_2  and  C_3
REMARK    3  A    between atoms: N_2  and  C_4
REMARK    4  A    between atoms: C_4  and  C_5
REMARK    5  A    between atoms: C_5  and  C_6
REMARK    6  A    between atoms: C_12  and  C_13
REMARK    7  A    between atoms: C_13  and  C_14
REMARK    8  A    between atoms: C_14  and  N_15
REMARK    9  A    between atoms: C_19  and  C_20
REMARK   10  A    between atoms: C_20  and  C_21
REMARK   11  A    between atoms: C_24  and  N_25
REMARK                            x       y       z     vdW  Elec       q    Type
REMARK                         _______ _______ _______ _____ _____    ______ ____
ROOT
ATOM      1  N   UNL     1       1.957   3.547  19.375  0.00  0.00    +0.000 N 
ATOM      2  C   UNL     1       1.441   2.544  18.613  0.00  0.00    +0.000 C 
ATOM      3  O   UNL     1       0.277   2.183  18.534  0.00  0.00    +0.000 OA
ATOM      4  N   UNL     1       2.462   1.958  17.905  0.00  0.00    +0.000 N 
ATOM      5  C   UNL     1       3.709   2.664  18.064  0.00  0.00    +0.000 C 
ATOM      6  C   UNL     1       3.299   3.668  19.145  0.00  0.00    +0.000 C 
ATOM      7  O   UNL     1       4.061   4.478  19.662  0.00  0.00    +0.000 OA
ATOM      8  H   UNL     1       2.294   1.177  17.288  0.00  0.00    +0.000 HD
ENDROOT
BRANCH   1   9
ATOM      9  C   UNL     1       1.166   4.429  20.215  0.00  0.00    +0.000 C 
BRANCH   9  10
ATOM     10  C   UNL     1       2.017   5.502  20.902  0.00  0.00    +0.000 C 
BRANCH  10  17
ATOM     11  C   UNL     1       0.110  10.254  21.128  0.00  0.00    +0.000 A 
ATOM     12  C   UNL     1       0.196  11.236  20.158  0.00  0.00    +0.000 A 
ATOM     13  N   UNL     1       0.905  10.732  19.102  0.00  0.00    +0.000 N 
ATOM     14  C   UNL     1       1.278   9.432  19.353  0.00  0.00    +0.000 A 
ATOM     15  C   UNL     1       2.015   8.535  18.574  0.00  0.00    +0.000 A 
ATOM     16  C   UNL     1       2.242   7.254  19.092  0.00  0.00    +0.000 A 
ATOM     17  C   UNL     1       1.757   6.881  20.349  0.00  0.00    +0.000 A 
ATOM     18  C   UNL     1       1.019   7.804  21.112  0.00  0.00    +0.000 A 
ATOM     19  C   UNL     1       0.779   9.100  20.613  0.00  0.00    +0.000 A 
ATOM     20  H   UNL     1       1.131  11.239  18.257  0.00  0.00    +0.000 HD
BRANCH  11  21
ATOM     21  C   UNL     1      -0.536  10.391  22.474  0.00  0.00    +0.000 C 
BRANCH  21  22
ATOM     22  C   UNL     1      -1.070  11.819  22.698  0.00  0.00    +0.000 C 
BRANCH  22  24
ATOM     23  C   UNL     1      -3.132  12.522  23.711  0.00  0.00    +0.000 C 
ATOM     24  N   UNL     1      -2.523  11.983  22.489  0.00  0.00    +0.000 NA
ATOM     25  C   UNL     1      -2.824  12.866  21.362  0.00  0.00    +0.000 C 
ENDBRANCH  22  24
ENDBRANCH  21  22
ENDBRANCH  11  21
ENDBRANCH  10  17
ENDBRANCH   9  10
ENDBRANCH   1   9
BRANCH   5  26
ATOM     26  C   UNL     1       4.135   3.440  16.814  0.00  0.00    +0.000 C 
BRANCH  26  27
ATOM     27  C   UNL     1       5.127   4.547  17.083  0.00  0.00    +0.000 A 
ATOM     28  C   UNL     1       4.783   5.881  16.808  0.00  0.00    +0.000 A 
ATOM     29  C   UNL     1       5.682   6.917  17.071  0.00  0.00    +0.000 A 
ATOM     30  C   UNL     1       6.936   6.618  17.618  0.00  0.00    +0.000 A 
ATOM     31  C   UNL     1       7.294   5.292  17.891  0.00  0.00    +0.000 A 
ATOM     32  C   UNL     1       6.390   4.261  17.618  0.00  0.00    +0.000 A 
BRANCH  30  33
ATOM     33  N   UNL     1       7.879   7.703  17.913  0.00  0.00    +0.000 N 
ATOM     34  O   UNL     1       8.608   7.580  18.907  0.00  0.00    +0.000 OA
ATOM     35  O   UNL     1       7.888   8.682  17.152  0.00  0.00    +0.000 OA
ENDBRANCH  30  33
ENDBRANCH  26  27
ENDBRANCH   5  26
TORSDOF 9
ENDMDL
