MODEL 1
REMARK VINA RESULT:      -8.8      0.000      0.000
REMARK  Name = 
REMARK  9 active torsions:
REMARK  status: ('A' for Active; 'I' for Inactive)
REMARK    1  A    between atoms: C_1  and  C_2
REMARK    2  A    between atoms: C_2  and  C_3
REMARK    3  A    between atoms: C_2  and  C_4
REMARK    4  A    between atoms: C_7  and  C_8
REMARK    5  A    between atoms: C_8  and  C_9
REMARK    6  A    between atoms: C_8  and  N_10
REMARK    7  A    between atoms: C_15  and  C_16
REMARK    8  A    between atoms: C_16  and  C_17
REMARK    9  A    between atoms: C_17  and  C_18
REMARK                            x       y       z     vdW  Elec       q    Type
REMARK                         _______ _______ _______ _____ _____    ______ ____
ROOT
ATOM      1  N   UNL     1       6.111   4.187  18.512  0.00  0.00    +0.000 N 
ATOM      2  C   UNL     1       4.942   4.898  18.370  0.00  0.00    +0.000 A 
ATOM      3  N   UNL     1       4.936   6.141  17.876  0.00  0.00    +0.000 NA
ATOM      4  C   UNL     1       3.739   6.744  17.751  0.00  0.00    +0.000 A 
ATOM      5  C   UNL     1       2.549   6.138  18.074  0.00  0.00    +0.000 A 
ATOM      6  C   UNL     1       2.649   4.864  18.584  0.00  0.00    +0.000 A 
ATOM      7  N   UNL     1       3.836   4.254  18.754  0.00  0.00    +0.000 NA
ATOM      8  H   UNL     1       6.231   4.023  19.508  0.00  0.00    +0.000 HD
ENDROOT
BRANCH   1   9
ATOM      9  C   UNL     1       7.302   4.688  17.842  0.00  0.00    +0.000 C 
ATOM     10  C   UNL     1       7.555   6.148  18.262  0.00  0.00    +0.000 C 
BRANCH   9  14
ATOM     11  C   UNL     1       6.777   4.264  14.322  0.00  0.00    +0.000 A 
ATOM     12  N   UNL     1       7.323   5.487  14.300  0.00  0.00    +0.000 NA
ATOM     13  O   UNL     1       7.590   5.740  15.646  0.00  0.00    +0.000 OA
ATOM     14  C   UNL     1       7.181   4.634  16.339  0.00  0.00    +0.000 A 
ATOM     15  N   UNL     1       6.676   3.696  15.567  0.00  0.00    +0.000 NA
BRANCH  11  17
ATOM     16  C   UNL     1       4.805   3.876  12.849  0.00  0.00    +0.000 C 
ATOM     17  C   UNL     1       6.288   3.588  13.087  0.00  0.00    +0.000 C 
ATOM     18  C   UNL     1       7.119   4.003  11.871  0.00  0.00    +0.000 C 
ENDBRANCH  11  17
ENDBRANCH   9  14
ENDBRANCH   1   9
BRANCH   6  19
ATOM     19  C   UNL     1       1.420   4.075  18.949  0.00  0.00    +0.000 C 
BRANCH  19  20
ATOM     20  C   UNL     1       1.110   4.070  20.447  0.00  0.00    +0.000 C 
BRANCH  20  21
ATOM     21  C   UNL     1       1.589   2.815  21.154  0.00  0.00    +0.000 C 
ATOM     22  F   UNL     1       1.711   1.752  20.332  0.00  0.00    +0.000 F 
ATOM     23  F   UNL     1       2.818   3.034  21.685  0.00  0.00    +0.000 F 
ATOM     24  F   UNL     1       0.777   2.469  22.175  0.00  0.00    +0.000 F 
ENDBRANCH  20  21
ENDBRANCH  19  20
ENDBRANCH   6  19
TORSDOF 6
ENDMDL
MODEL 2
REMARK VINA RESULT:      -8.7      0.782      1.169
REMARK  Name = 
REMARK  9 active torsions:
REMARK  status: ('A' for Active; 'I' for Inactive)
REMARK    1  A    between atoms: C_1  and  C_2
REMARK    2  A    between atoms: C_2  and  C_3
REMARK    3  A    between atoms: C_2  and  C_4
REMARK    4  A    between atoms: C_7  and  C_8
REMARK    5  A    between atoms: C_8  and  C_9
REMARK    6  A    between atoms: C_8  and  N_10
REMARK    7  A    between atoms: C_15  and  C_16
REMARK    8  A    between atoms: C_16  and  C_17
REMARK    9  A    between atoms: C_17  and  C_18
REMARK                            x       y       z     vdW  Elec       q    Type
REMARK                         _______ _______ _______ _____ _____    ______ ____
ROOT
ATOM      1  N   UNL     1       6.450   3.957  18.507  0.00  0.00    +0.000 N 
ATOM      2  C   UNL     1       5.115   4.246  18.334  0.00  0.00    +0.000 A 
ATOM      3  N   UNL     1       4.717   5.373  17.733  0.00  0.00    +0.000 NA
ATOM      4  C   UNL     1       3.391   5.552  17.588  0.00  0.00    +0.000 A 
ATOM      5  C   UNL     1       2.454   4.633  17.993  0.00  0.00    +0.000 A 
ATOM      6  C   UNL     1       2.951   3.508  18.611  0.00  0.00    +0.000 A 
ATOM      7  N   UNL     1       4.270   3.324  18.802  0.00  0.00    +0.000 NA
ATOM      8  H   UNL     1       6.612   3.931  19.510  0.00  0.00    +0.000 HD
ENDROOT
BRANCH   1   9
ATOM      9  C   UNL     1       7.422   4.745  17.764  0.00  0.00    +0.000 C 
ATOM     10  C   UNL     1       7.337   6.219  18.205  0.00  0.00    +0.000 C 
BRANCH   9  14
ATOM     11  C   UNL     1       6.713   4.250  14.286  0.00  0.00    +0.000 A 
ATOM     12  N   UNL     1       7.038   5.549  14.243  0.00  0.00    +0.000 NA
ATOM     13  O   UNL     1       7.359   5.839  15.570  0.00  0.00    +0.000 OA
ATOM     14  C   UNL     1       7.199   4.677  16.274  0.00  0.00    +0.000 A 
ATOM     15  N   UNL     1       6.805   3.669  15.525  0.00  0.00    +0.000 NA
BRANCH  11  17
ATOM     16  C   UNL     1       4.781   3.781  12.785  0.00  0.00    +0.000 C 
ATOM     17  C   UNL     1       6.255   3.504  13.079  0.00  0.00    +0.000 C 
ATOM     18  C   UNL     1       7.121   3.846  11.865  0.00  0.00    +0.000 C 
ENDBRANCH  11  17
ENDBRANCH   9  14
ENDBRANCH   1   9
BRANCH   6  19
ATOM     19  C   UNL     1       2.035   2.408  19.076  0.00  0.00    +0.000 C 
BRANCH  19  20
ATOM     20  C   UNL     1       1.072   2.832  20.186  0.00  0.00    +0.000 C 
BRANCH  20  21
ATOM     21  C   UNL     1       1.743   2.971  21.541  0.00  0.00    +0.000 C 
ATOM     22  F   UNL     1       2.037   4.249  21.863  0.00  0.00    +0.000 F 
ATOM     23  F   UNL     1       0.911   2.512  22.509  0.00  0.00    +0.000 F 
ATOM     24  F   UNL     1       2.877   2.244  21.620  0.00  0.00    +0.000 F 
ENDBRANCH  20  21
ENDBRANCH  19  20
ENDBRANCH   6  19
TORSDOF 6
ENDMDL
MODEL 3
REMARK VINA RESULT:      -8.5      1.029      1.334
REMARK  Name = 
REMARK  9 active torsions:
REMARK  status: ('A' for Active; 'I' for Inactive)
REMARK    1  A    between atoms: C_1  and  C_2
REMARK    2  A    between atoms: C_2  and  C_3
REMARK    3  A    between atoms: C_2  and  C_4
REMARK    4  A    between atoms: C_7  and  C_8
REMARK    5  A    between atoms: C_8  and  C_9
REMARK    6  A    between atoms: C_8  and  N_10
REMARK    7  A    between atoms: C_15  and  C_16
REMARK    8  A    between atoms: C_16  and  C_17
REMARK    9  A    between atoms: C_17  and  C_18
REMARK                            x       y       z     vdW  Elec       q    Type
REMARK                         _______ _______ _______ _____ _____    ______ ____
ROOT
ATOM      1  N   UNL     1       6.030   3.854  17.508  0.00  0.00    +0.000 N 
ATOM      2  C   UNL     1       4.836   4.515  17.692  0.00  0.00    +0.000 A 
ATOM      3  N   UNL     1       4.751   5.845  17.585  0.00  0.00    +0.000 NA
ATOM      4  C   UNL     1       3.534   6.394  17.757  0.00  0.00    +0.000 A 
ATOM      5  C   UNL     1       2.398   5.660  18.000  0.00  0.00    +0.000 A 
ATOM      6  C   UNL     1       2.580   4.300  18.104  0.00  0.00    +0.000 A 
ATOM      7  N   UNL     1       3.792   3.730  17.975  0.00  0.00    +0.000 NA
ATOM      8  H   UNL     1       6.258   3.417  18.396  0.00  0.00    +0.000 HD
ENDROOT
BRANCH   1   9
ATOM      9  C   UNL     1       7.131   4.589  16.903  0.00  0.00    +0.000 C 
ATOM     10  C   UNL     1       7.082   6.060  17.358  0.00  0.00    +0.000 C 
BRANCH   9  14
ATOM     11  C   UNL     1       6.723   4.271  13.356  0.00  0.00    +0.000 A 
ATOM     12  N   UNL     1       7.556   5.320  13.371  0.00  0.00    +0.000 NA
ATOM     13  O   UNL     1       7.799   5.512  14.732  0.00  0.00    +0.000 OA
ATOM     14  C   UNL     1       7.088   4.551  15.396  0.00  0.00    +0.000 A 
ATOM     15  N   UNL     1       6.412   3.759  14.591  0.00  0.00    +0.000 NA
BRANCH  11  17
ATOM     16  C   UNL     1       6.885   2.452  11.660  0.00  0.00    +0.000 C 
ATOM     17  C   UNL     1       6.154   3.724  12.092  0.00  0.00    +0.000 C 
ATOM     18  C   UNL     1       4.654   3.460  12.237  0.00  0.00    +0.000 C 
ENDBRANCH  11  17
ENDBRANCH   9  14
ENDBRANCH   1   9
BRANCH   6  19
ATOM     19  C   UNL     1       1.415   3.376  18.339  0.00  0.00    +0.000 C 
BRANCH  19  20
ATOM     20  C   UNL     1       1.544   2.525  19.602  0.00  0.00    +0.000 C 
BRANCH  20  21
ATOM     21  C   UNL     1       1.382   3.324  20.883  0.00  0.00    +0.000 C 
ATOM     22  F   UNL     1       0.873   2.600  21.903  0.00  0.00    +0.000 F 
ATOM     23  F   UNL     1       2.594   3.771  21.295  0.00  0.00    +0.000 F 
ATOM     24  F   UNL     1       0.602   4.411  20.705  0.00  0.00    +0.000 F 
ENDBRANCH  20  21
ENDBRANCH  19  20
ENDBRANCH   6  19
TORSDOF 6
ENDMDL
MODEL 4
REMARK VINA RESULT:      -8.4      2.830      3.366
REMARK  Name = 
REMARK  9 active torsions:
REMARK  status: ('A' for Active; 'I' for Inactive)
REMARK    1  A    between atoms: C_1  and  C_2
REMARK    2  A    between atoms: C_2  and  C_3
REMARK    3  A    between atoms: C_2  and  C_4
REMARK    4  A    between atoms: C_7  and  C_8
REMARK    5  A    between atoms: C_8  and  C_9
REMARK    6  A    between atoms: C_8  and  N_10
REMARK    7  A    between atoms: C_15  and  C_16
REMARK    8  A    between atoms: C_16  and  C_17
REMARK    9  A    between atoms: C_17  and  C_18
REMARK                            x       y       z     vdW  Elec       q    Type
REMARK                         _______ _______ _______ _____ _____    ______ ____
ROOT
ATOM      1  N   UNL     1       5.115   5.473  17.974  0.00  0.00    +0.000 N 
ATOM      2  C   UNL     1       4.186   4.931  18.833  0.00  0.00    +0.000 A 
ATOM      3  N   UNL     1       4.214   3.635  19.164  0.00  0.00    +0.000 NA
ATOM      4  C   UNL     1       3.278   3.206  20.031  0.00  0.00    +0.000 A 
ATOM      5  C   UNL     1       2.338   4.031  20.600  0.00  0.00    +0.000 A 
ATOM      6  C   UNL     1       2.376   5.345  20.195  0.00  0.00    +0.000 A 
ATOM      7  N   UNL     1       3.277   5.790  19.300  0.00  0.00    +0.000 NA
ATOM      8  H   UNL     1       4.602   5.790  17.156  0.00  0.00    +0.000 HD
ENDROOT
BRANCH   1   9
ATOM      9  C   UNL     1       6.302   4.689  17.668  0.00  0.00    +0.000 C 
ATOM     10  C   UNL     1       7.536   5.343  18.319  0.00  0.00    +0.000 C 
BRANCH   9  14
ATOM     11  C   UNL     1       6.562   4.207  14.126  0.00  0.00    +0.000 A 
ATOM     12  N   UNL     1       7.455   5.197  14.262  0.00  0.00    +0.000 NA
ATOM     13  O   UNL     1       7.445   5.446  15.634  0.00  0.00    +0.000 OA
ATOM     14  C   UNL     1       6.548   4.572  16.184  0.00  0.00    +0.000 A 
ATOM     15  N   UNL     1       5.981   3.785  15.294  0.00  0.00    +0.000 NA
BRANCH  11  17
ATOM     16  C   UNL     1       4.705   3.743  12.531  0.00  0.00    +0.000 C 
ATOM     17  C   UNL     1       6.207   3.633  12.797  0.00  0.00    +0.000 C 
ATOM     18  C   UNL     1       7.003   4.308  11.679  0.00  0.00    +0.000 C 
ENDBRANCH  11  17
ENDBRANCH   9  14
ENDBRANCH   1   9
BRANCH   6  19
ATOM     19  C   UNL     1       1.421   6.361  20.763  0.00  0.00    +0.000 C 
BRANCH  19  20
ATOM     20  C   UNL     1       1.879   7.809  20.584  0.00  0.00    +0.000 C 
BRANCH  20  21
ATOM     21  C   UNL     1       0.797   8.825  20.906  0.00  0.00    +0.000 C 
ATOM     22  F   UNL     1      -0.285   8.281  21.502  0.00  0.00    +0.000 F 
ATOM     23  F   UNL     1       1.286   9.751  21.768  0.00  0.00    +0.000 F 
ATOM     24  F   UNL     1       0.384   9.490  19.807  0.00  0.00    +0.000 F 
ENDBRANCH  20  21
ENDBRANCH  19  20
ENDBRANCH   6  19
TORSDOF 6
ENDMDL
MODEL 5
REMARK VINA RESULT:      -8.3      1.069      1.427
REMARK  Name = 
REMARK  9 active torsions:
REMARK  status: ('A' for Active; 'I' for Inactive)
REMARK    1  A    between atoms: C_1  and  C_2
REMARK    2  A    between atoms: C_2  and  C_3
REMARK    3  A    between atoms: C_2  and  C_4
REMARK    4  A    between atoms: C_7  and  C_8
REMARK    5  A    between atoms: C_8  and  C_9
REMARK    6  A    between atoms: C_8  and  N_10
REMARK    7  A    between atoms: C_15  and  C_16
REMARK    8  A    between atoms: C_16  and  C_17
REMARK    9  A    between atoms: C_17  and  C_18
REMARK                            x       y       z     vdW  Elec       q    Type
REMARK                         _______ _______ _______ _____ _____    ______ ____
ROOT
ATOM      1  N   UNL     1       6.095   4.160  18.514  0.00  0.00    +0.000 N 
ATOM      2  C   UNL     1       4.917   4.868  18.434  0.00  0.00    +0.000 A 
ATOM      3  N   UNL     1       4.873   6.092  17.896  0.00  0.00    +0.000 NA
ATOM      4  C   UNL     1       3.670   6.692  17.839  0.00  0.00    +0.000 A 
ATOM      5  C   UNL     1       2.507   6.101  18.273  0.00  0.00    +0.000 A 
ATOM      6  C   UNL     1       2.647   4.847  18.822  0.00  0.00    +0.000 A 
ATOM      7  N   UNL     1       3.844   4.241  18.924  0.00  0.00    +0.000 NA
ATOM      8  H   UNL     1       6.289   4.033  19.504  0.00  0.00    +0.000 HD
ENDROOT
BRANCH   1   9
ATOM      9  C   UNL     1       7.230   4.634  17.738  0.00  0.00    +0.000 C 
ATOM     10  C   UNL     1       7.557   6.087  18.133  0.00  0.00    +0.000 C 
BRANCH   9  14
ATOM     11  C   UNL     1       6.932   4.732  14.167  0.00  0.00    +0.000 A 
ATOM     12  N   UNL     1       6.070   3.737  14.415  0.00  0.00    +0.000 NA
ATOM     13  O   UNL     1       6.096   3.634  15.806  0.00  0.00    +0.000 OA
ATOM     14  C   UNL     1       6.971   4.586  16.252  0.00  0.00    +0.000 A 
ATOM     15  N   UNL     1       7.509   5.291  15.279  0.00  0.00    +0.000 NA
BRANCH  11  17
ATOM     16  C   UNL     1       8.641   5.829  12.724  0.00  0.00    +0.000 C 
ATOM     17  C   UNL     1       7.261   5.173  12.782  0.00  0.00    +0.000 C 
ATOM     18  C   UNL     1       7.179   4.002  11.802  0.00  0.00    +0.000 C 
ENDBRANCH  11  17
ENDBRANCH   9  14
ENDBRANCH   1   9
BRANCH   6  19
ATOM     19  C   UNL     1       1.449   4.075  19.308  0.00  0.00    +0.000 C 
BRANCH  19  20
ATOM     20  C   UNL     1       1.800   2.748  19.984  0.00  0.00    +0.000 C 
BRANCH  20  21
ATOM     21  C   UNL     1       2.018   2.877  21.481  0.00  0.00    +0.000 C 
ATOM     22  F   UNL     1       3.145   2.272  21.910  0.00  0.00    +0.000 F 
ATOM     23  F   UNL     1       2.134   4.187  21.812  0.00  0.00    +0.000 F 
ATOM     24  F   UNL     1       0.978   2.384  22.186  0.00  0.00    +0.000 F 
ENDBRANCH  20  21
ENDBRANCH  19  20
ENDBRANCH   6  19
TORSDOF 6
ENDMDL
MODEL 6
REMARK VINA RESULT:      -8.3      5.106      7.602
REMARK  Name = 
REMARK  9 active torsions:
REMARK  status: ('A' for Active; 'I' for Inactive)
REMARK    1  A    between atoms: C_1  and  C_2
REMARK    2  A    between atoms: C_2  and  C_3
REMARK    3  A    between atoms: C_2  and  C_4
REMARK    4  A    between atoms: C_7  and  C_8
REMARK    5  A    between atoms: C_8  and  C_9
REMARK    6  A    between atoms: C_8  and  N_10
REMARK    7  A    between atoms: C_15  and  C_16
REMARK    8  A    between atoms: C_16  and  C_17
REMARK    9  A    between atoms: C_17  and  C_18
REMARK                            x       y       z     vdW  Elec       q    Type
REMARK                         _______ _______ _______ _____ _____    ______ ____
ROOT
ATOM      1  N   UNL     1       5.838   6.038  16.073  0.00  0.00    +0.000 N 
ATOM      2  C   UNL     1       6.683   6.444  17.080  0.00  0.00    +0.000 A 
ATOM      3  N   UNL     1       7.095   5.598  18.030  0.00  0.00    +0.000 NA
ATOM      4  C   UNL     1       7.941   6.084  18.957  0.00  0.00    +0.000 A 
ATOM      5  C   UNL     1       8.413   7.375  18.949  0.00  0.00    +0.000 A 
ATOM      6  C   UNL     1       7.930   8.179  17.942  0.00  0.00    +0.000 A 
ATOM      7  N   UNL     1       7.054   7.727  17.027  0.00  0.00    +0.000 NA
ATOM      8  H   UNL     1       4.978   6.569  16.185  0.00  0.00    +0.000 HD
ENDROOT
BRANCH   1   9
ATOM      9  C   UNL     1       5.637   4.609  15.884  0.00  0.00    +0.000 C 
ATOM     10  C   UNL     1       5.326   4.322  14.403  0.00  0.00    +0.000 C 
BRANCH   9  14
ATOM     11  C   UNL     1       2.780   3.671  17.835  0.00  0.00    +0.000 A 
ATOM     12  N   UNL     1       3.302   2.452  17.640  0.00  0.00    +0.000 NA
ATOM     13  O   UNL     1       4.452   2.715  16.896  0.00  0.00    +0.000 OA
ATOM     14  C   UNL     1       4.506   4.071  16.725  0.00  0.00    +0.000 A 
ATOM     15  N   UNL     1       3.499   4.704  17.289  0.00  0.00    +0.000 NA
BRANCH  11  17
ATOM     16  C   UNL     1       0.808   2.548  18.863  0.00  0.00    +0.000 C 
ATOM     17  C   UNL     1       1.497   3.880  18.563  0.00  0.00    +0.000 C 
ATOM     18  C   UNL     1       1.723   4.673  19.852  0.00  0.00    +0.000 C 
ENDBRANCH  11  17
ENDBRANCH   9  14
ENDBRANCH   1   9
BRANCH   6  19
ATOM     19  C   UNL     1       8.389   9.605  17.799  0.00  0.00    +0.000 C 
BRANCH  19  20
ATOM     20  C   UNL     1       9.179  10.124  19.001  0.00  0.00    +0.000 C 
BRANCH  20  21
ATOM     21  C   UNL     1      10.127  11.258  18.652  0.00  0.00    +0.000 C 
ATOM     22  F   UNL     1      11.204  11.323  19.464  0.00  0.00    +0.000 F 
ATOM     23  F   UNL     1      10.603  11.080  17.394  0.00  0.00    +0.000 F 
ATOM     24  F   UNL     1       9.509  12.457  18.672  0.00  0.00    +0.000 F 
ENDBRANCH  20  21
ENDBRANCH  19  20
ENDBRANCH   6  19
TORSDOF 6
ENDMDL
MODEL 7
REMARK VINA RESULT:      -8.3      1.567      1.951
REMARK  Name = 
REMARK  9 active torsions:
REMARK  status: ('A' for Active; 'I' for Inactive)
REMARK    1  A    between atoms: C_1  and  C_2
REMARK    2  A    between atoms: C_2  and  C_3
REMARK    3  A    between atoms: C_2  and  C_4
REMARK    4  A    between atoms: C_7  and  C_8
REMARK    5  A    between atoms: C_8  and  C_9
REMARK    6  A    between atoms: C_8  and  N_10
REMARK    7  A    between atoms: C_15  and  C_16
REMARK    8  A    between atoms: C_16  and  C_17
REMARK    9  A    between atoms: C_17  and  C_18
REMARK                            x       y       z     vdW  Elec       q    Type
REMARK                         _______ _______ _______ _____ _____    ______ ____
ROOT
ATOM      1  N   UNL     1       6.297   4.881  19.005  0.00  0.00    +0.000 N 
ATOM      2  C   UNL     1       5.081   5.490  18.792  0.00  0.00    +0.000 A 
ATOM      3  N   UNL     1       4.946   6.491  17.915  0.00  0.00    +0.000 NA
ATOM      4  C   UNL     1       3.711   7.003  17.759  0.00  0.00    +0.000 A 
ATOM      5  C   UNL     1       2.605   6.532  18.425  0.00  0.00    +0.000 A 
ATOM      6  C   UNL     1       2.838   5.508  19.315  0.00  0.00    +0.000 A 
ATOM      7  N   UNL     1       4.069   5.004  19.516  0.00  0.00    +0.000 NA
ATOM      8  H   UNL     1       6.548   5.067  19.972  0.00  0.00    +0.000 HD
ENDROOT
BRANCH   1   9
ATOM      9  C   UNL     1       7.365   5.136  18.051  0.00  0.00    +0.000 C 
ATOM     10  C   UNL     1       7.777   6.619  18.119  0.00  0.00    +0.000 C 
BRANCH   9  14
ATOM     11  C   UNL     1       6.681   4.609  14.572  0.00  0.00    +0.000 A 
ATOM     12  N   UNL     1       5.979   3.584  15.074  0.00  0.00    +0.000 NA
ATOM     13  O   UNL     1       6.165   3.717  16.450  0.00  0.00    +0.000 OA
ATOM     14  C   UNL     1       6.958   4.816  16.633  0.00  0.00    +0.000 A 
ATOM     15  N   UNL     1       7.299   5.401  15.505  0.00  0.00    +0.000 NA
BRANCH  11  17
ATOM     16  C   UNL     1       8.162   5.459  12.757  0.00  0.00    +0.000 C 
ATOM     17  C   UNL     1       6.805   4.846  13.105  0.00  0.00    +0.000 C 
ATOM     18  C   UNL     1       6.581   3.551  12.322  0.00  0.00    +0.000 C 
ENDBRANCH  11  17
ENDBRANCH   9  14
ENDBRANCH   1   9
BRANCH   6  19
ATOM     19  C   UNL     1       1.709   4.879  20.087  0.00  0.00    +0.000 C 
BRANCH  19  20
ATOM     20  C   UNL     1       1.634   3.358  19.945  0.00  0.00    +0.000 C 
BRANCH  20  21
ATOM     21  C   UNL     1       1.247   2.904  18.549  0.00  0.00    +0.000 C 
ATOM     22  F   UNL     1       0.819   3.911  17.759  0.00  0.00    +0.000 F 
ATOM     23  F   UNL     1       2.327   2.363  17.932  0.00  0.00    +0.000 F 
ATOM     24  F   UNL     1       0.291   1.951  18.575  0.00  0.00    +0.000 F 
ENDBRANCH  20  21
ENDBRANCH  19  20
ENDBRANCH   6  19
TORSDOF 6
ENDMDL
MODEL 8
REMARK VINA RESULT:      -8.3      5.017      7.769
REMARK  Name = 
REMARK  9 active torsions:
REMARK  status: ('A' for Active; 'I' for Inactive)
REMARK    1  A    between atoms: C_1  and  C_2
REMARK    2  A    between atoms: C_2  and  C_3
REMARK    3  A    between atoms: C_2  and  C_4
REMARK    4  A    between atoms: C_7  and  C_8
REMARK    5  A    between atoms: C_8  and  C_9
REMARK    6  A    between atoms: C_8  and  N_10
REMARK    7  A    between atoms: C_15  and  C_16
REMARK    8  A    between atoms: C_16  and  C_17
REMARK    9  A    between atoms: C_17  and  C_18
REMARK                            x       y       z     vdW  Elec       q    Type
REMARK                         _______ _______ _______ _____ _____    ______ ____
ROOT
ATOM      1  N   UNL     1       5.188   5.685  16.708  0.00  0.00    +0.000 N 
ATOM      2  C   UNL     1       6.234   6.126  17.487  0.00  0.00    +0.000 A 
ATOM      3  N   UNL     1       6.773   5.352  18.435  0.00  0.00    +0.000 NA
ATOM      4  C   UNL     1       7.809   5.865  19.125  0.00  0.00    +0.000 A 
ATOM      5  C   UNL     1       8.341   7.108  18.882  0.00  0.00    +0.000 A 
ATOM      6  C   UNL     1       7.718   7.839  17.896  0.00  0.00    +0.000 A 
ATOM      7  N   UNL     1       6.658   7.364  17.218  0.00  0.00    +0.000 NA
ATOM      8  H   UNL     1       4.398   6.288  16.916  0.00  0.00    +0.000 HD
ENDROOT
BRANCH   1   9
ATOM      9  C   UNL     1       4.876   4.264  16.725  0.00  0.00    +0.000 C 
ATOM     10  C   UNL     1       4.724   3.750  15.281  0.00  0.00    +0.000 C 
BRANCH   9  14
ATOM     11  C   UNL     1       1.982   3.787  18.785  0.00  0.00    +0.000 A 
ATOM     12  N   UNL     1       1.503   3.278  17.642  0.00  0.00    +0.000 NA
ATOM     13  O   UNL     1       2.582   3.398  16.766  0.00  0.00    +0.000 OA
ATOM     14  C   UNL     1       3.603   3.964  17.478  0.00  0.00    +0.000 A 
ATOM     15  N   UNL     1       3.283   4.218  18.728  0.00  0.00    +0.000 NA
BRANCH  11  17
ATOM     16  C   UNL     1       1.418   2.747  20.978  0.00  0.00    +0.000 C 
ATOM     17  C   UNL     1       1.148   3.904  20.015  0.00  0.00    +0.000 C 
ATOM     18  C   UNL     1       1.383   5.248  20.708  0.00  0.00    +0.000 C 
ENDBRANCH  11  17
ENDBRANCH   9  14
ENDBRANCH   1   9
BRANCH   6  19
ATOM     19  C   UNL     1       8.220   9.204  17.508  0.00  0.00    +0.000 C 
BRANCH  19  20
ATOM     20  C   UNL     1       8.959   9.935  18.630  0.00  0.00    +0.000 C 
BRANCH  20  21
ATOM     21  C   UNL     1       9.455  11.312  18.224  0.00  0.00    +0.000 C 
ATOM     22  F   UNL     1       9.803  12.085  19.275  0.00  0.00    +0.000 F 
ATOM     23  F   UNL     1      10.564  11.186  17.454  0.00  0.00    +0.000 F 
ATOM     24  F   UNL     1       8.541  11.981  17.490  0.00  0.00    +0.000 F 
ENDBRANCH  20  21
ENDBRANCH  19  20
ENDBRANCH   6  19
TORSDOF 6
ENDMDL
MODEL 9
REMARK VINA RESULT:      -8.2      1.137      1.742
REMARK  Name = 
REMARK  9 active torsions:
REMARK  status: ('A' for Active; 'I' for Inactive)
REMARK    1  A    between atoms: C_1  and  C_2
REMARK    2  A    between atoms: C_2  and  C_3
REMARK    3  A    between atoms: C_2  and  C_4
REMARK    4  A    between atoms: C_7  and  C_8
REMARK    5  A    between atoms: C_8  and  C_9
REMARK    6  A    between atoms: C_8  and  N_10
REMARK    7  A    between atoms: C_15  and  C_16
REMARK    8  A    between atoms: C_16  and  C_17
REMARK    9  A    between atoms: C_17  and  C_18
REMARK                            x       y       z     vdW  Elec       q    Type
REMARK                         _______ _______ _______ _____ _____    ______ ____
ROOT
ATOM      1  N   UNL     1       5.303   5.165  17.884  0.00  0.00    +0.000 N 
ATOM      2  C   UNL     1       4.348   4.176  17.951  0.00  0.00    +0.000 A 
ATOM      3  N   UNL     1       4.572   2.955  17.454  0.00  0.00    +0.000 NA
ATOM      4  C   UNL     1       3.586   2.049  17.591  0.00  0.00    +0.000 A 
ATOM      5  C   UNL     1       2.399   2.312  18.232  0.00  0.00    +0.000 A 
ATOM      6  C   UNL     1       2.249   3.597  18.702  0.00  0.00    +0.000 A 
ATOM      7  N   UNL     1       3.204   4.531  18.544  0.00  0.00    +0.000 NA
ATOM      8  H   UNL     1       4.916   5.902  17.300  0.00  0.00    +0.000 HD
ENDROOT
BRANCH   1   9
ATOM      9  C   UNL     1       6.662   4.780  17.539  0.00  0.00    +0.000 C 
ATOM     10  C   UNL     1       7.655   5.799  18.131  0.00  0.00    +0.000 C 
BRANCH   9  14
ATOM     11  C   UNL     1       6.892   4.357  13.987  0.00  0.00    +0.000 A 
ATOM     12  N   UNL     1       7.606   5.485  14.103  0.00  0.00    +0.000 NA
ATOM     13  O   UNL     1       7.595   5.726  15.477  0.00  0.00    +0.000 OA
ATOM     14  C   UNL     1       6.879   4.710  16.047  0.00  0.00    +0.000 A 
ATOM     15  N   UNL     1       6.428   3.839  15.170  0.00  0.00    +0.000 NA
BRANCH  11  17
ATOM     16  C   UNL     1       5.094   3.606  12.434  0.00  0.00    +0.000 C 
ATOM     17  C   UNL     1       6.600   3.732  12.666  0.00  0.00    +0.000 C 
ATOM     18  C   UNL     1       7.256   4.522  11.531  0.00  0.00    +0.000 C 
ENDBRANCH  11  17
ENDBRANCH   9  14
ENDBRANCH   1   9
BRANCH   6  19
ATOM     19  C   UNL     1       1.009   4.010  19.449  0.00  0.00    +0.000 C 
BRANCH  19  20
ATOM     20  C   UNL     1       0.568   3.009  20.518  0.00  0.00    +0.000 C 
BRANCH  20  21
ATOM     21  C   UNL     1       1.535   2.912  21.685  0.00  0.00    +0.000 C 
ATOM     22  F   UNL     1       0.969   2.426  22.809  0.00  0.00    +0.000 F 
ATOM     23  F   UNL     1       2.547   2.066  21.367  0.00  0.00    +0.000 F 
ATOM     24  F   UNL     1       2.097   4.105  21.975  0.00  0.00    +0.000 F 
ENDBRANCH  20  21
ENDBRANCH  19  20
ENDBRANCH   6  19
TORSDOF 6
ENDMDL
