MODEL 1
REMARK VINA RESULT:      -8.5      0.000      0.000
REMARK  Name = 
REMARK  9 active torsions:
REMARK  status: ('A' for Active; 'I' for Inactive)
REMARK    1  A    between atoms: C_1  and  O_2
REMARK    2  A    between atoms: O_2  and  C_3
REMARK    3  A    between atoms: C_7  and  C_8
REMARK    4  A    between atoms: N_11  and  C_12
REMARK    5  A    between atoms: C_12  and  C_13
REMARK    6  A    between atoms: C_13  and  C_14
REMARK    7  A    between atoms: C_14  and  C_15
REMARK    8  A    between atoms: C_15  and  C_17
REMARK    9  A    between atoms: C_26  and  C_27
REMARK                            x       y       z     vdW  Elec       q    Type
REMARK                         _______ _______ _______ _____ _____    ______ ____
ROOT
ATOM      1  C   UNL     1       4.631   5.257  16.847  0.00  0.00    +0.000 C 
ATOM      2  C   UNL     1       5.971   4.535  16.956  0.00  0.00    +0.000 C 
ATOM      3  C   UNL     1       7.043   5.384  17.639  0.00  0.00    +0.000 C 
ATOM      4  N   UNL     1       7.215   6.753  17.130  0.00  0.00    +0.000 NA
ATOM      5  C   UNL     1       5.940   7.429  16.831  0.00  0.00    +0.000 C 
ATOM      6  C   UNL     1       4.933   6.562  16.080  0.00  0.00    +0.000 C 
ENDROOT
BRANCH   1  11
ATOM      7  C   UNL     1       1.542   8.806  19.481  0.00  0.00    +0.000 A 
ATOM      8  C   UNL     1       1.906   8.838  18.136  0.00  0.00    +0.000 A 
ATOM      9  C   UNL     1       2.656   7.796  17.564  0.00  0.00    +0.000 A 
ATOM     10  C   UNL     1       3.035   6.689  18.356  0.00  0.00    +0.000 A 
ATOM     11  C   UNL     1       3.844   5.502  18.139  0.00  0.00    +0.000 A 
ATOM     12  C   UNL     1       3.697   4.734  19.302  0.00  0.00    +0.000 A 
ATOM     13  C   UNL     1       4.112   3.382  19.764  0.00  0.00    +0.000 C 
ATOM     14  N   UNL     1       3.011   5.493  20.216  0.00  0.00    +0.000 N 
ATOM     15  C   UNL     1       2.592   6.669  19.672  0.00  0.00    +0.000 A 
ATOM     16  C   UNL     1       1.855   7.698  20.264  0.00  0.00    +0.000 A 
ATOM     17  H   UNL     1       2.815   5.209  21.166  0.00  0.00    +0.000 HD
BRANCH   7  19
ATOM     18  C   UNL     1      -0.373  10.153  19.241  0.00  0.00    +0.000 C 
ATOM     19  O   UNL     1       0.840   9.889  19.942  0.00  0.00    +0.000 OA
ENDBRANCH   7  19
ENDBRANCH   1  11
BRANCH   4  20
ATOM     20  C   UNL     1       7.943   7.571  18.130  0.00  0.00    +0.000 C 
BRANCH  20  21
ATOM     21  C   UNL     1       8.127   9.043  17.746  0.00  0.00    +0.000 C 
BRANCH  21  22
ATOM     22  C   UNL     1       8.952   9.804  18.779  0.00  0.00    +0.000 C 
BRANCH  22  23
ATOM     23  C   UNL     1       9.564  11.060  18.192  0.00  0.00    +0.000 C 
ATOM     24  O   UNL     1      10.641  11.055  17.598  0.00  0.00    +0.000 OA
BRANCH  23  25
ATOM     25  C   UNL     1       8.824  12.348  18.349  0.00  0.00    +0.000 A 
ATOM     26  C   UNL     1       7.908  12.807  17.390  0.00  0.00    +0.000 A 
ATOM     27  C   UNL     1       7.246  14.023  17.581  0.00  0.00    +0.000 A 
ATOM     28  C   UNL     1       7.500  14.771  18.725  0.00  0.00    +0.000 A 
ATOM     29  F   UNL     1       6.863  15.936  18.903  0.00  0.00    +0.000 F 
ATOM     30  C   UNL     1       8.399  14.331  19.685  0.00  0.00    +0.000 A 
ATOM     31  C   UNL     1       9.064  13.117  19.498  0.00  0.00    +0.000 A 
ENDBRANCH  23  25
ENDBRANCH  22  23
ENDBRANCH  21  22
ENDBRANCH  20  21
ENDBRANCH   4  20
TORSDOF 7
ENDMDL
MODEL 2
REMARK VINA RESULT:      -8.4      1.437      1.695
REMARK  Name = 
REMARK  9 active torsions:
REMARK  status: ('A' for Active; 'I' for Inactive)
REMARK    1  A    between atoms: C_1  and  O_2
REMARK    2  A    between atoms: O_2  and  C_3
REMARK    3  A    between atoms: C_7  and  C_8
REMARK    4  A    between atoms: N_11  and  C_12
REMARK    5  A    between atoms: C_12  and  C_13
REMARK    6  A    between atoms: C_13  and  C_14
REMARK    7  A    between atoms: C_14  and  C_15
REMARK    8  A    between atoms: C_15  and  C_17
REMARK    9  A    between atoms: C_26  and  C_27
REMARK                            x       y       z     vdW  Elec       q    Type
REMARK                         _______ _______ _______ _____ _____    ______ ____
ROOT
ATOM      1  C   UNL     1       4.743   5.078  16.900  0.00  0.00    +0.000 C 
ATOM      2  C   UNL     1       6.048   4.300  17.044  0.00  0.00    +0.000 C 
ATOM      3  C   UNL     1       7.135   5.101  17.762  0.00  0.00    +0.000 C 
ATOM      4  N   UNL     1       7.378   6.463  17.266  0.00  0.00    +0.000 NA
ATOM      5  C   UNL     1       6.141   7.194  16.934  0.00  0.00    +0.000 C 
ATOM      6  C   UNL     1       5.121   6.372  16.150  0.00  0.00    +0.000 C 
ENDROOT
BRANCH   1  11
ATOM      7  C   UNL     1       1.599   8.680  19.395  0.00  0.00    +0.000 A 
ATOM      8  C   UNL     1       1.990   8.683  18.056  0.00  0.00    +0.000 A 
ATOM      9  C   UNL     1       2.753   7.629  17.523  0.00  0.00    +0.000 A 
ATOM     10  C   UNL     1       3.116   6.540  18.346  0.00  0.00    +0.000 A 
ATOM     11  C   UNL     1       3.930   5.350  18.171  0.00  0.00    +0.000 A 
ATOM     12  C   UNL     1       3.760   4.606  19.346  0.00  0.00    +0.000 A 
ATOM     13  C   UNL     1       4.166   3.264  19.845  0.00  0.00    +0.000 C 
ATOM     14  N   UNL     1       3.055   5.384  20.230  0.00  0.00    +0.000 N 
ATOM     15  C   UNL     1       2.647   6.548  19.652  0.00  0.00    +0.000 A 
ATOM     16  C   UNL     1       1.897   7.588  20.207  0.00  0.00    +0.000 A 
ATOM     17  H   UNL     1       2.840   5.120  21.181  0.00  0.00    +0.000 HD
BRANCH   7  19
ATOM     18  C   UNL     1      -0.051  10.273  18.870  0.00  0.00    +0.000 C 
ATOM     19  O   UNL     1       0.888   9.771  19.818  0.00  0.00    +0.000 OA
ENDBRANCH   7  19
ENDBRANCH   1  11
BRANCH   4  20
ATOM     20  C   UNL     1       8.110   7.246  18.291  0.00  0.00    +0.000 C 
BRANCH  20  21
ATOM     21  C   UNL     1       7.915   8.763  18.202  0.00  0.00    +0.000 C 
BRANCH  21  22
ATOM     22  C   UNL     1       9.238   9.498  18.004  0.00  0.00    +0.000 C 
BRANCH  22  23
ATOM     23  C   UNL     1       9.386  10.655  18.972  0.00  0.00    +0.000 C 
ATOM     24  O   UNL     1       9.138  10.548  20.172  0.00  0.00    +0.000 OA
BRANCH  23  25
ATOM     25  C   UNL     1       9.851  11.970  18.437  0.00  0.00    +0.000 A 
ATOM     26  C   UNL     1       9.234  13.181  18.784  0.00  0.00    +0.000 A 
ATOM     27  C   UNL     1       9.704  14.383  18.250  0.00  0.00    +0.000 A 
ATOM     28  C   UNL     1      10.785  14.371  17.376  0.00  0.00    +0.000 A 
ATOM     29  F   UNL     1      11.232  15.527  16.867  0.00  0.00    +0.000 F 
ATOM     30  C   UNL     1      11.410  13.184  17.025  0.00  0.00    +0.000 A 
ATOM     31  C   UNL     1      10.943  11.979  17.555  0.00  0.00    +0.000 A 
ENDBRANCH  23  25
ENDBRANCH  22  23
ENDBRANCH  21  22
ENDBRANCH  20  21
ENDBRANCH   4  20
TORSDOF 7
ENDMDL
MODEL 3
REMARK VINA RESULT:      -8.2      4.030      5.870
REMARK  Name = 
REMARK  9 active torsions:
REMARK  status: ('A' for Active; 'I' for Inactive)
REMARK    1  A    between atoms: C_1  and  O_2
REMARK    2  A    between atoms: O_2  and  C_3
REMARK    3  A    between atoms: C_7  and  C_8
REMARK    4  A    between atoms: N_11  and  C_12
REMARK    5  A    between atoms: C_12  and  C_13
REMARK    6  A    between atoms: C_13  and  C_14
REMARK    7  A    between atoms: C_14  and  C_15
REMARK    8  A    between atoms: C_15  and  C_17
REMARK    9  A    between atoms: C_26  and  C_27
REMARK                            x       y       z     vdW  Elec       q    Type
REMARK                         _______ _______ _______ _____ _____    ______ ____
ROOT
ATOM      1  C   UNL     1       1.987   5.436  20.811  0.00  0.00    +0.000 C 
ATOM      2  C   UNL     1       3.285   4.633  20.789  0.00  0.00    +0.000 C 
ATOM      3  C   UNL     1       3.597   4.055  19.409  0.00  0.00    +0.000 C 
ATOM      4  N   UNL     1       2.507   3.326  18.744  0.00  0.00    +0.000 NA
ATOM      5  C   UNL     1       1.192   3.974  18.898  0.00  0.00    +0.000 C 
ATOM      6  C   UNL     1       0.898   4.463  20.313  0.00  0.00    +0.000 C 
ENDROOT
BRANCH   1  11
ATOM      7  C   UNL     1      -0.168  10.379  20.767  0.00  0.00    +0.000 A 
ATOM      8  C   UNL     1      -0.208   9.449  21.805  0.00  0.00    +0.000 A 
ATOM      9  C   UNL     1       0.470   8.222  21.703  0.00  0.00    +0.000 A 
ATOM     10  C   UNL     1       1.219   7.929  20.542  0.00  0.00    +0.000 A 
ATOM     11  C   UNL     1       1.964   6.776  20.067  0.00  0.00    +0.000 A 
ATOM     12  C   UNL     1       2.594   7.199  18.889  0.00  0.00    +0.000 A 
ATOM     13  C   UNL     1       3.583   6.638  17.929  0.00  0.00    +0.000 C 
ATOM     14  N   UNL     1       2.106   8.445  18.583  0.00  0.00    +0.000 N 
ATOM     15  C   UNL     1       1.286   8.912  19.565  0.00  0.00    +0.000 A 
ATOM     16  C   UNL     1       0.612  10.134  19.639  0.00  0.00    +0.000 A 
ATOM     17  H   UNL     1       2.344   8.966  17.751  0.00  0.00    +0.000 HD
BRANCH   7  19
ATOM     18  C   UNL     1      -1.363  12.136  19.757  0.00  0.00    +0.000 C 
ATOM     19  O   UNL     1      -0.891  11.527  20.957  0.00  0.00    +0.000 OA
ENDBRANCH   7  19
ENDBRANCH   1  11
BRANCH   4  20
ATOM     20  C   UNL     1       2.793   3.212  17.293  0.00  0.00    +0.000 C 
BRANCH  20  21
ATOM     21  C   UNL     1       4.281   3.178  16.931  0.00  0.00    +0.000 C 
BRANCH  21  22
ATOM     22  C   UNL     1       4.616   4.145  15.799  0.00  0.00    +0.000 C 
BRANCH  22  23
ATOM     23  C   UNL     1       6.111   4.352  15.664  0.00  0.00    +0.000 C 
ATOM     24  O   UNL     1       6.773   3.823  14.772  0.00  0.00    +0.000 OA
BRANCH  23  25
ATOM     25  C   UNL     1       6.796   5.233  16.656  0.00  0.00    +0.000 A 
ATOM     26  C   UNL     1       7.329   4.739  17.856  0.00  0.00    +0.000 A 
ATOM     27  C   UNL     1       7.954   5.607  18.754  0.00  0.00    +0.000 A 
ATOM     28  C   UNL     1       8.047   6.961  18.450  0.00  0.00    +0.000 A 
ATOM     29  F   UNL     1       8.647   7.790  19.315  0.00  0.00    +0.000 F 
ATOM     30  C   UNL     1       7.529   7.467  17.267  0.00  0.00    +0.000 A 
ATOM     31  C   UNL     1       6.902   6.603  16.367  0.00  0.00    +0.000 A 
ENDBRANCH  23  25
ENDBRANCH  22  23
ENDBRANCH  21  22
ENDBRANCH  20  21
ENDBRANCH   4  20
TORSDOF 7
ENDMDL
MODEL 4
REMARK VINA RESULT:      -8.1      3.358      6.929
REMARK  Name = 
REMARK  9 active torsions:
REMARK  status: ('A' for Active; 'I' for Inactive)
REMARK    1  A    between atoms: C_1  and  O_2
REMARK    2  A    between atoms: O_2  and  C_3
REMARK    3  A    between atoms: C_7  and  C_8
REMARK    4  A    between atoms: N_11  and  C_12
REMARK    5  A    between atoms: C_12  and  C_13
REMARK    6  A    between atoms: C_13  and  C_14
REMARK    7  A    between atoms: C_14  and  C_15
REMARK    8  A    between atoms: C_15  and  C_17
REMARK    9  A    between atoms: C_26  and  C_27
REMARK                            x       y       z     vdW  Elec       q    Type
REMARK                         _______ _______ _______ _____ _____    ______ ____
ROOT
ATOM      1  C   UNL     1       3.810   2.258  17.908  0.00  0.00    +0.000 C 
ATOM      2  C   UNL     1       2.459   1.551  17.971  0.00  0.00    +0.000 C 
ATOM      3  C   UNL     1       1.608   2.011  19.154  0.00  0.00    +0.000 C 
ATOM      4  N   UNL     1       2.267   2.021  20.469  0.00  0.00    +0.000 NA
ATOM      5  C   UNL     1       3.651   2.526  20.424  0.00  0.00    +0.000 C 
ATOM      6  C   UNL     1       4.481   1.975  19.268  0.00  0.00    +0.000 C 
ENDROOT
BRANCH   1  11
ATOM      7  C   UNL     1       6.991   6.509  16.965  0.00  0.00    +0.000 A 
ATOM      8  C   UNL     1       7.371   5.169  17.039  0.00  0.00    +0.000 A 
ATOM      9  C   UNL     1       6.414   4.155  17.214  0.00  0.00    +0.000 A 
ATOM     10  C   UNL     1       5.044   4.490  17.300  0.00  0.00    +0.000 A 
ATOM     11  C   UNL     1       3.820   3.748  17.544  0.00  0.00    +0.000 A 
ATOM     12  C   UNL     1       2.781   4.668  17.354  0.00  0.00    +0.000 A 
ATOM     13  C   UNL     1       1.294   4.628  17.315  0.00  0.00    +0.000 C 
ATOM     14  N   UNL     1       3.349   5.908  17.199  0.00  0.00    +0.000 N 
ATOM     15  C   UNL     1       4.708   5.829  17.153  0.00  0.00    +0.000 A 
ATOM     16  C   UNL     1       5.643   6.855  16.988  0.00  0.00    +0.000 A 
ATOM     17  H   UNL     1       2.830   6.769  17.104  0.00  0.00    +0.000 HD
BRANCH   7  19
ATOM     18  C   UNL     1       7.970   8.495  17.759  0.00  0.00    +0.000 C 
ATOM     19  O   UNL     1       8.007   7.417  16.827  0.00  0.00    +0.000 OA
ENDBRANCH   7  19
ENDBRANCH   1  11
BRANCH   4  20
ATOM     20  C   UNL     1       1.499   2.874  21.408  0.00  0.00    +0.000 C 
BRANCH  20  21
ATOM     21  C   UNL     1       2.068   4.282  21.610  0.00  0.00    +0.000 C 
BRANCH  21  22
ATOM     22  C   UNL     1       1.316   5.324  20.786  0.00  0.00    +0.000 C 
BRANCH  22  23
ATOM     23  C   UNL     1       2.231   6.442  20.329  0.00  0.00    +0.000 C 
ATOM     24  O   UNL     1       3.425   6.265  20.095  0.00  0.00    +0.000 OA
BRANCH  23  25
ATOM     25  C   UNL     1       1.649   7.808  20.159  0.00  0.00    +0.000 A 
ATOM     26  C   UNL     1       1.785   8.538  18.969  0.00  0.00    +0.000 A 
ATOM     27  C   UNL     1       1.227   9.815  18.864  0.00  0.00    +0.000 A 
ATOM     28  C   UNL     1       0.538  10.354  19.944  0.00  0.00    +0.000 A 
ATOM     29  F   UNL     1       0.005  11.579  19.839  0.00  0.00    +0.000 F 
ATOM     30  C   UNL     1       0.391   9.646  21.127  0.00  0.00    +0.000 A 
ATOM     31  C   UNL     1       0.948   8.369  21.237  0.00  0.00    +0.000 A 
ENDBRANCH  23  25
ENDBRANCH  22  23
ENDBRANCH  21  22
ENDBRANCH  20  21
ENDBRANCH   4  20
TORSDOF 7
ENDMDL
MODEL 5
REMARK VINA RESULT:      -8.1      4.887      6.282
REMARK  Name = 
REMARK  9 active torsions:
REMARK  status: ('A' for Active; 'I' for Inactive)
REMARK    1  A    between atoms: C_1  and  O_2
REMARK    2  A    between atoms: O_2  and  C_3
REMARK    3  A    between atoms: C_7  and  C_8
REMARK    4  A    between atoms: N_11  and  C_12
REMARK    5  A    between atoms: C_12  and  C_13
REMARK    6  A    between atoms: C_13  and  C_14
REMARK    7  A    between atoms: C_14  and  C_15
REMARK    8  A    between atoms: C_15  and  C_17
REMARK    9  A    between atoms: C_26  and  C_27
REMARK                            x       y       z     vdW  Elec       q    Type
REMARK                         _______ _______ _______ _____ _____    ______ ____
ROOT
ATOM      1  C   UNL     1       2.319   6.333  17.982  0.00  0.00    +0.000 C 
ATOM      2  C   UNL     1       2.740   4.876  17.814  0.00  0.00    +0.000 C 
ATOM      3  C   UNL     1       4.078   4.568  18.485  0.00  0.00    +0.000 C 
ATOM      4  N   UNL     1       5.188   5.483  18.181  0.00  0.00    +0.000 NA
ATOM      5  C   UNL     1       4.784   6.901  18.149  0.00  0.00    +0.000 C 
ATOM      6  C   UNL     1       3.481   7.163  17.399  0.00  0.00    +0.000 C 
ENDROOT
BRANCH   1  11
ATOM      7  C   UNL     1       0.910  10.626  20.926  0.00  0.00    +0.000 A 
ATOM      8  C   UNL     1       0.989  10.544  19.536  0.00  0.00    +0.000 A 
ATOM      9  C   UNL     1       1.296   9.328  18.900  0.00  0.00    +0.000 A 
ATOM     10  C   UNL     1       1.512   8.166  19.674  0.00  0.00    +0.000 A 
ATOM     11  C   UNL     1       1.906   6.799  19.384  0.00  0.00    +0.000 A 
ATOM     12  C   UNL     1       1.795   6.112  20.599  0.00  0.00    +0.000 A 
ATOM     13  C   UNL     1       1.911   4.702  21.060  0.00  0.00    +0.000 C 
ATOM     14  N   UNL     1       1.541   7.040  21.578  0.00  0.00    +0.000 N 
ATOM     15  C   UNL     1       1.356   8.282  21.049  0.00  0.00    +0.000 A 
ATOM     16  C   UNL     1       1.062   9.481  21.704  0.00  0.00    +0.000 A 
ATOM     17  H   UNL     1       1.471   6.831  22.564  0.00  0.00    +0.000 HD
BRANCH   7  19
ATOM     18  C   UNL     1      -0.660  11.998  22.017  0.00  0.00    +0.000 C 
ATOM     19  O   UNL     1       0.638  11.866  21.442  0.00  0.00    +0.000 OA
ENDBRANCH   7  19
ENDBRANCH   1  11
BRANCH   4  20
ATOM     20  C   UNL     1       6.254   5.335  19.201  0.00  0.00    +0.000 C 
BRANCH  20  21
ATOM     21  C   UNL     1       7.672   5.208  18.636  0.00  0.00    +0.000 C 
BRANCH  21  22
ATOM     22  C   UNL     1       7.694   4.451  17.311  0.00  0.00    +0.000 C 
BRANCH  22  23
ATOM     23  C   UNL     1       7.451   5.373  16.134  0.00  0.00    +0.000 C 
ATOM     24  O   UNL     1       7.699   6.577  16.176  0.00  0.00    +0.000 OA
BRANCH  23  25
ATOM     25  C   UNL     1       6.887   4.787  14.881  0.00  0.00    +0.000 A 
ATOM     26  C   UNL     1       7.556   4.867  13.650  0.00  0.00    +0.000 A 
ATOM     27  C   UNL     1       6.982   4.308  12.505  0.00  0.00    +0.000 A 
ATOM     28  C   UNL     1       5.748   3.673  12.594  0.00  0.00    +0.000 A 
ATOM     29  F   UNL     1       5.202   3.140  11.494  0.00  0.00    +0.000 F 
ATOM     30  C   UNL     1       5.075   3.583  13.803  0.00  0.00    +0.000 A 
ATOM     31  C   UNL     1       5.643   4.141  14.950  0.00  0.00    +0.000 A 
ENDBRANCH  23  25
ENDBRANCH  22  23
ENDBRANCH  21  22
ENDBRANCH  20  21
ENDBRANCH   4  20
TORSDOF 7
ENDMDL
MODEL 6
REMARK VINA RESULT:      -8.0      4.678      7.755
REMARK  Name = 
REMARK  9 active torsions:
REMARK  status: ('A' for Active; 'I' for Inactive)
REMARK    1  A    between atoms: C_1  and  O_2
REMARK    2  A    between atoms: O_2  and  C_3
REMARK    3  A    between atoms: C_7  and  C_8
REMARK    4  A    between atoms: N_11  and  C_12
REMARK    5  A    between atoms: C_12  and  C_13
REMARK    6  A    between atoms: C_13  and  C_14
REMARK    7  A    between atoms: C_14  and  C_15
REMARK    8  A    between atoms: C_15  and  C_17
REMARK    9  A    between atoms: C_26  and  C_27
REMARK                            x       y       z     vdW  Elec       q    Type
REMARK                         _______ _______ _______ _____ _____    ______ ____
ROOT
ATOM      1  C   UNL     1       4.982   3.877  18.722  0.00  0.00    +0.000 C 
ATOM      2  C   UNL     1       3.687   3.345  18.115  0.00  0.00    +0.000 C 
ATOM      3  C   UNL     1       2.769   4.460  17.614  0.00  0.00    +0.000 C 
ATOM      4  N   UNL     1       2.505   5.560  18.553  0.00  0.00    +0.000 NA
ATOM      5  C   UNL     1       3.700   5.986  19.304  0.00  0.00    +0.000 C 
ATOM      6  C   UNL     1       4.540   4.834  19.849  0.00  0.00    +0.000 C 
ENDROOT
BRANCH   1  11
ATOM      7  C   UNL     1       6.546   4.241  13.574  0.00  0.00    +0.000 A 
ATOM      8  C   UNL     1       5.347   3.720  14.058  0.00  0.00    +0.000 A 
ATOM      9  C   UNL     1       5.040   3.762  15.430  0.00  0.00    +0.000 A 
ATOM     10  C   UNL     1       5.949   4.357  16.333  0.00  0.00    +0.000 A 
ATOM     11  C   UNL     1       6.005   4.515  17.775  0.00  0.00    +0.000 A 
ATOM     12  C   UNL     1       7.116   5.333  18.018  0.00  0.00    +0.000 A 
ATOM     13  C   UNL     1       7.727   6.006  19.196  0.00  0.00    +0.000 C 
ATOM     14  N   UNL     1       7.782   5.491  16.829  0.00  0.00    +0.000 N 
ATOM     15  C   UNL     1       7.098   4.923  15.797  0.00  0.00    +0.000 A 
ATOM     16  C   UNL     1       7.428   4.883  14.440  0.00  0.00    +0.000 A 
ATOM     17  H   UNL     1       8.655   5.988  16.721  0.00  0.00    +0.000 HD
BRANCH   7  19
ATOM     18  C   UNL     1       6.520   2.811  11.706  0.00  0.00    +0.000 C 
ATOM     19  O   UNL     1       6.758   4.117  12.226  0.00  0.00    +0.000 OA
ENDBRANCH   7  19
ENDBRANCH   1  11
BRANCH   4  20
ATOM     20  C   UNL     1       1.987   6.737  17.813  0.00  0.00    +0.000 C 
BRANCH  20  21
ATOM     21  C   UNL     1       2.706   8.055  18.116  0.00  0.00    +0.000 C 
BRANCH  21  22
ATOM     22  C   UNL     1       1.846   9.267  17.772  0.00  0.00    +0.000 C 
BRANCH  22  23
ATOM     23  C   UNL     1       0.864   9.591  18.880  0.00  0.00    +0.000 C 
ATOM     24  O   UNL     1       1.109   9.370  20.064  0.00  0.00    +0.000 OA
BRANCH  23  25
ATOM     25  C   UNL     1      -0.448  10.201  18.507  0.00  0.00    +0.000 A 
ATOM     26  C   UNL     1      -1.203   9.746  17.416  0.00  0.00    +0.000 A 
ATOM     27  C   UNL     1      -2.421  10.356  17.106  0.00  0.00    +0.000 A 
ATOM     28  C   UNL     1      -2.879  11.412  17.885  0.00  0.00    +0.000 A 
ATOM     29  F   UNL     1      -4.048  11.993  17.584  0.00  0.00    +0.000 F 
ATOM     30  C   UNL     1      -2.148  11.872  18.970  0.00  0.00    +0.000 A 
ATOM     31  C   UNL     1      -0.929  11.267  19.283  0.00  0.00    +0.000 A 
ENDBRANCH  23  25
ENDBRANCH  22  23
ENDBRANCH  21  22
ENDBRANCH  20  21
ENDBRANCH   4  20
TORSDOF 7
ENDMDL
MODEL 7
REMARK VINA RESULT:      -7.9      1.625      1.960
REMARK  Name = 
REMARK  9 active torsions:
REMARK  status: ('A' for Active; 'I' for Inactive)
REMARK    1  A    between atoms: C_1  and  O_2
REMARK    2  A    between atoms: O_2  and  C_3
REMARK    3  A    between atoms: C_7  and  C_8
REMARK    4  A    between atoms: N_11  and  C_12
REMARK    5  A    between atoms: C_12  and  C_13
REMARK    6  A    between atoms: C_13  and  C_14
REMARK    7  A    between atoms: C_14  and  C_15
REMARK    8  A    between atoms: C_15  and  C_17
REMARK    9  A    between atoms: C_26  and  C_27
REMARK                            x       y       z     vdW  Elec       q    Type
REMARK                         _______ _______ _______ _____ _____    ______ ____
ROOT
ATOM      1  C   UNL     1       3.522   5.130  17.595  0.00  0.00    +0.000 C 
ATOM      2  C   UNL     1       4.661   4.158  17.890  0.00  0.00    +0.000 C 
ATOM      3  C   UNL     1       5.921   4.863  18.393  0.00  0.00    +0.000 C 
ATOM      4  N   UNL     1       6.390   6.009  17.600  0.00  0.00    +0.000 NA
ATOM      5  C   UNL     1       5.297   6.881  17.132  0.00  0.00    +0.000 C 
ATOM      6  C   UNL     1       4.095   6.129  16.568  0.00  0.00    +0.000 C 
ENDROOT
BRANCH   1  11
ATOM      7  C   UNL     1       1.293   9.745  19.272  0.00  0.00    +0.000 A 
ATOM      8  C   UNL     1       1.599   9.382  17.961  0.00  0.00    +0.000 A 
ATOM      9  C   UNL     1       2.109   8.106  17.664  0.00  0.00    +0.000 A 
ATOM     10  C   UNL     1       2.299   7.168  18.703  0.00  0.00    +0.000 A 
ATOM     11  C   UNL     1       2.852   5.827  18.785  0.00  0.00    +0.000 A 
ATOM     12  C   UNL     1       2.609   5.403  20.098  0.00  0.00    +0.000 A 
ATOM     13  C   UNL     1       2.773   4.145  20.876  0.00  0.00    +0.000 C 
ATOM     14  N   UNL     1       2.122   6.479  20.797  0.00  0.00    +0.000 N 
ATOM     15  C   UNL     1       1.916   7.550  19.981  0.00  0.00    +0.000 A 
ATOM     16  C   UNL     1       1.418   8.816  20.302  0.00  0.00    +0.000 A 
ATOM     17  H   UNL     1       1.914   6.474  21.785  0.00  0.00    +0.000 HD
BRANCH   7  19
ATOM     18  C   UNL     1      -0.241  11.395  18.594  0.00  0.00    +0.000 C 
ATOM     19  O   UNL     1       0.835  11.023  19.453  0.00  0.00    +0.000 OA
ENDBRANCH   7  19
ENDBRANCH   1  11
BRANCH   4  20
ATOM     20  C   UNL     1       7.317   6.835  18.412  0.00  0.00    +0.000 C 
BRANCH  20  21
ATOM     21  C   UNL     1       8.218   7.773  17.604  0.00  0.00    +0.000 C 
BRANCH  21  22
ATOM     22  C   UNL     1       7.851   9.239  17.813  0.00  0.00    +0.000 C 
BRANCH  22  23
ATOM     23  C   UNL     1       8.877   9.958  18.665  0.00  0.00    +0.000 C 
ATOM     24  O   UNL     1       9.258   9.522  19.749  0.00  0.00    +0.000 OA
BRANCH  23  25
ATOM     25  C   UNL     1       9.441  11.245  18.157  0.00  0.00    +0.000 A 
ATOM     26  C   UNL     1       8.643  12.377  17.936  0.00  0.00    +0.000 A 
ATOM     27  C   UNL     1       9.219  13.555  17.454  0.00  0.00    +0.000 A 
ATOM     28  C   UNL     1      10.585  13.598  17.198  0.00  0.00    +0.000 A 
ATOM     29  F   UNL     1      11.132  14.730  16.735  0.00  0.00    +0.000 F 
ATOM     30  C   UNL     1      11.390  12.489  17.414  0.00  0.00    +0.000 A 
ATOM     31  C   UNL     1      10.819  11.309  17.894  0.00  0.00    +0.000 A 
ENDBRANCH  23  25
ENDBRANCH  22  23
ENDBRANCH  21  22
ENDBRANCH  20  21
ENDBRANCH   4  20
TORSDOF 7
ENDMDL
MODEL 8
REMARK VINA RESULT:      -7.8      2.534      3.689
REMARK  Name = 
REMARK  9 active torsions:
REMARK  status: ('A' for Active; 'I' for Inactive)
REMARK    1  A    between atoms: C_1  and  O_2
REMARK    2  A    between atoms: O_2  and  C_3
REMARK    3  A    between atoms: C_7  and  C_8
REMARK    4  A    between atoms: N_11  and  C_12
REMARK    5  A    between atoms: C_12  and  C_13
REMARK    6  A    between atoms: C_13  and  C_14
REMARK    7  A    between atoms: C_14  and  C_15
REMARK    8  A    between atoms: C_15  and  C_17
REMARK    9  A    between atoms: C_26  and  C_27
REMARK                            x       y       z     vdW  Elec       q    Type
REMARK                         _______ _______ _______ _____ _____    ______ ____
ROOT
ATOM      1  C   UNL     1       4.971   5.103  16.537  0.00  0.00    +0.000 C 
ATOM      2  C   UNL     1       6.297   4.411  16.839  0.00  0.00    +0.000 C 
ATOM      3  C   UNL     1       7.250   5.291  17.647  0.00  0.00    +0.000 C 
ATOM      4  N   UNL     1       7.463   6.657  17.144  0.00  0.00    +0.000 NA
ATOM      5  C   UNL     1       6.227   7.302  16.664  0.00  0.00    +0.000 C 
ATOM      6  C   UNL     1       5.349   6.403  15.798  0.00  0.00    +0.000 C 
ENDROOT
BRANCH   1  11
ATOM      7  C   UNL     1       2.823   2.905  20.969  0.00  0.00    +0.000 A 
ATOM      8  C   UNL     1       3.913   2.436  20.237  0.00  0.00    +0.000 A 
ATOM      9  C   UNL     1       4.414   3.161  19.141  0.00  0.00    +0.000 A 
ATOM     10  C   UNL     1       3.819   4.391  18.783  0.00  0.00    +0.000 A 
ATOM     11  C   UNL     1       4.011   5.348  17.708  0.00  0.00    +0.000 A 
ATOM     12  C   UNL     1       3.182   6.433  18.022  0.00  0.00    +0.000 A 
ATOM     13  C   UNL     1       2.931   7.796  17.478  0.00  0.00    +0.000 C 
ATOM     14  N   UNL     1       2.412   6.069  19.098  0.00  0.00    +0.000 N 
ATOM     15  C   UNL     1       2.781   4.850  19.582  0.00  0.00    +0.000 A 
ATOM     16  C   UNL     1       2.259   4.142  20.669  0.00  0.00    +0.000 A 
ATOM     17  H   UNL     1       1.683   6.639  19.501  0.00  0.00    +0.000 HD
BRANCH   7  19
ATOM     18  C   UNL     1       1.073   2.377  22.451  0.00  0.00    +0.000 C 
ATOM     19  O   UNL     1       2.396   2.103  21.995  0.00  0.00    +0.000 OA
ENDBRANCH   7  19
ENDBRANCH   1  11
BRANCH   4  20
ATOM     20  C   UNL     1       8.033   7.504  18.220  0.00  0.00    +0.000 C 
BRANCH  20  21
ATOM     21  C   UNL     1       7.877   9.012  18.001  0.00  0.00    +0.000 C 
BRANCH  21  22
ATOM     22  C   UNL     1       9.227   9.717  17.906  0.00  0.00    +0.000 C 
BRANCH  22  23
ATOM     23  C   UNL     1       9.470  10.626  19.094  0.00  0.00    +0.000 C 
ATOM     24  O   UNL     1       9.083  10.348  20.228  0.00  0.00    +0.000 OA
BRANCH  23  25
ATOM     25  C   UNL     1      10.207  11.906  18.868  0.00  0.00    +0.000 A 
ATOM     26  C   UNL     1       9.955  12.730  17.761  0.00  0.00    +0.000 A 
ATOM     27  C   UNL     1      10.678  13.913  17.591  0.00  0.00    +0.000 A 
ATOM     28  C   UNL     1      11.643  14.269  18.526  0.00  0.00    +0.000 A 
ATOM     29  F   UNL     1      12.333  15.405  18.360  0.00  0.00    +0.000 F 
ATOM     30  C   UNL     1      11.903  13.469  19.629  0.00  0.00    +0.000 A 
ATOM     31  C   UNL     1      11.184  12.283  19.802  0.00  0.00    +0.000 A 
ENDBRANCH  23  25
ENDBRANCH  22  23
ENDBRANCH  21  22
ENDBRANCH  20  21
ENDBRANCH   4  20
TORSDOF 7
ENDMDL
MODEL 9
REMARK VINA RESULT:      -7.8      2.895      6.944
REMARK  Name = 
REMARK  9 active torsions:
REMARK  status: ('A' for Active; 'I' for Inactive)
REMARK    1  A    between atoms: C_1  and  O_2
REMARK    2  A    between atoms: O_2  and  C_3
REMARK    3  A    between atoms: C_7  and  C_8
REMARK    4  A    between atoms: N_11  and  C_12
REMARK    5  A    between atoms: C_12  and  C_13
REMARK    6  A    between atoms: C_13  and  C_14
REMARK    7  A    between atoms: C_14  and  C_15
REMARK    8  A    between atoms: C_15  and  C_17
REMARK    9  A    between atoms: C_26  and  C_27
REMARK                            x       y       z     vdW  Elec       q    Type
REMARK                         _______ _______ _______ _____ _____    ______ ____
ROOT
ATOM      1  C   UNL     1       5.090   3.238  17.796  0.00  0.00    +0.000 C 
ATOM      2  C   UNL     1       3.728   2.746  17.315  0.00  0.00    +0.000 C 
ATOM      3  C   UNL     1       2.600   3.725  17.638  0.00  0.00    +0.000 C 
ATOM      4  N   UNL     1       2.533   4.211  19.025  0.00  0.00    +0.000 NA
ATOM      5  C   UNL     1       3.855   4.525  19.598  0.00  0.00    +0.000 C 
ATOM      6  C   UNL     1       4.926   3.477  19.311  0.00  0.00    +0.000 C 
ENDROOT
BRANCH   1  11
ATOM      7  C   UNL     1       8.184   7.608  18.439  0.00  0.00    +0.000 A 
ATOM      8  C   UNL     1       8.022   6.549  19.331  0.00  0.00    +0.000 A 
ATOM      9  C   UNL     1       7.238   5.432  18.993  0.00  0.00    +0.000 A 
ATOM     10  C   UNL     1       6.618   5.368  17.725  0.00  0.00    +0.000 A 
ATOM     11  C   UNL     1       5.710   4.441  17.074  0.00  0.00    +0.000 A 
ATOM     12  C   UNL     1       5.595   4.896  15.754  0.00  0.00    +0.000 A 
ATOM     13  C   UNL     1       4.956   4.420  14.497  0.00  0.00    +0.000 C 
ATOM     14  N   UNL     1       6.231   6.110  15.678  0.00  0.00    +0.000 N 
ATOM     15  C   UNL     1       6.864   6.413  16.846  0.00  0.00    +0.000 A 
ATOM     16  C   UNL     1       7.630   7.538  17.163  0.00  0.00    +0.000 A 
ATOM     17  H   UNL     1       6.255   6.695  14.855  0.00  0.00    +0.000 HD
BRANCH   7  19
ATOM     18  C   UNL     1       8.648   9.908  18.256  0.00  0.00    +0.000 C 
ATOM     19  O   UNL     1       8.940   8.661  18.883  0.00  0.00    +0.000 OA
ENDBRANCH   7  19
ENDBRANCH   1  11
BRANCH   4  20
ATOM     20  C   UNL     1       1.705   5.440  19.086  0.00  0.00    +0.000 C 
BRANCH  20  21
ATOM     21  C   UNL     1       1.975   6.454  17.969  0.00  0.00    +0.000 C 
BRANCH  21  22
ATOM     22  C   UNL     1       2.721   7.682  18.482  0.00  0.00    +0.000 C 
BRANCH  22  23
ATOM     23  C   UNL     1       1.841   8.916  18.474  0.00  0.00    +0.000 C 
ATOM     24  O   UNL     1       1.714   9.631  17.482  0.00  0.00    +0.000 OA
BRANCH  23  25
ATOM     25  C   UNL     1       1.104   9.267  19.725  0.00  0.00    +0.000 A 
ATOM     26  C   UNL     1       1.318   8.593  20.936  0.00  0.00    +0.000 A 
ATOM     27  C   UNL     1       0.597   8.956  22.076  0.00  0.00    +0.000 A 
ATOM     28  C   UNL     1      -0.329   9.990  22.003  0.00  0.00    +0.000 A 
ATOM     29  F   UNL     1      -1.018  10.335  23.099  0.00  0.00    +0.000 F 
ATOM     30  C   UNL     1      -0.551  10.671  20.816  0.00  0.00    +0.000 A 
ATOM     31  C   UNL     1       0.165  10.310  19.672  0.00  0.00    +0.000 A 
ENDBRANCH  23  25
ENDBRANCH  22  23
ENDBRANCH  21  22
ENDBRANCH  20  21
ENDBRANCH   4  20
TORSDOF 7
ENDMDL
