MODEL 1
REMARK VINA RESULT:      -8.0      0.000      0.000
REMARK  Name = 
REMARK  2 active torsions:
REMARK  status: ('A' for Active; 'I' for Inactive)
REMARK    1  A    between atoms: C_1  and  C_2
REMARK    2  A    between atoms: C_8  and  C_9
REMARK                            x       y       z     vdW  Elec       q    Type
REMARK                         _______ _______ _______ _____ _____    ______ ____
ROOT
ATOM      1  C   UNL     1       1.479   6.980  20.957  0.00  0.00    +0.000 C 
ATOM      2  C   UNL     1       1.867   5.715  20.244  0.00  0.00    +0.000 A 
ATOM      3  C   UNL     1       1.128   4.550  20.456  0.00  0.00    +0.000 A 
ATOM      4  C   UNL     1       1.452   3.363  19.802  0.00  0.00    +0.000 A 
ATOM      5  C   UNL     1       2.546   3.375  18.928  0.00  0.00    +0.000 A 
ATOM      6  N   UNL     1       3.049   2.349  18.168  0.00  0.00    +0.000 N 
ATOM      7  C   UNL     1       4.123   2.783  17.449  0.00  0.00    +0.000 A 
ATOM      8  C   UNL     1       4.326   4.130  17.707  0.00  0.00    +0.000 A 
ATOM      9  C   UNL     1       3.322   4.511  18.673  0.00  0.00    +0.000 A 
ATOM     10  C   UNL     1       2.964   5.702  19.352  0.00  0.00    +0.000 A 
ATOM     11  H   UNL     1       2.664   1.416  18.143  0.00  0.00    +0.000 HD
ENDROOT
BRANCH   8  12
ATOM     12  C   UNL     1       5.399   4.921  17.020  0.00  0.00    +0.000 C 
ATOM     13  C   UNL     1       5.399   4.827  15.493  0.00  0.00    +0.000 C 
ATOM     14  C   UNL     1       6.853   4.977  15.149  0.00  0.00    +0.000 C 
ATOM     15  O   UNL     1       7.303   5.234  14.049  0.00  0.00    +0.000 OA
ATOM     16  N   UNL     1       7.587   4.747  16.267  0.00  0.00    +0.000 N 
ATOM     17  C   UNL     1       6.831   4.636  17.393  0.00  0.00    +0.000 C 
ATOM     18  O   UNL     1       7.288   4.450  18.509  0.00  0.00    +0.000 OA
ATOM     19  H   UNL     1       8.595   4.749  16.280  0.00  0.00    +0.000 HD
ENDBRANCH   8  12
TORSDOF 1
ENDMDL
MODEL 2
REMARK VINA RESULT:      -7.8      2.708      5.875
REMARK  Name = 
REMARK  2 active torsions:
REMARK  status: ('A' for Active; 'I' for Inactive)
REMARK    1  A    between atoms: C_1  and  C_2
REMARK    2  A    between atoms: C_8  and  C_9
REMARK                            x       y       z     vdW  Elec       q    Type
REMARK                         _______ _______ _______ _____ _____    ______ ____
ROOT
ATOM      1  C   UNL     1       6.073   3.712  14.578  0.00  0.00    +0.000 C 
ATOM      2  C   UNL     1       5.389   4.637  15.546  0.00  0.00    +0.000 A 
ATOM      3  C   UNL     1       5.449   6.016  15.342  0.00  0.00    +0.000 A 
ATOM      4  C   UNL     1       4.816   6.901  16.212  0.00  0.00    +0.000 A 
ATOM      5  C   UNL     1       4.120   6.362  17.301  0.00  0.00    +0.000 A 
ATOM      6  N   UNL     1       3.416   7.018  18.279  0.00  0.00    +0.000 N 
ATOM      7  C   UNL     1       2.883   6.119  19.155  0.00  0.00    +0.000 A 
ATOM      8  C   UNL     1       3.211   4.837  18.741  0.00  0.00    +0.000 A 
ATOM      9  C   UNL     1       4.023   4.990  17.557  0.00  0.00    +0.000 A 
ATOM     10  C   UNL     1       4.676   4.117  16.651  0.00  0.00    +0.000 A 
ATOM     11  H   UNL     1       3.302   8.021  18.326  0.00  0.00    +0.000 HD
ENDROOT
BRANCH   8  12
ATOM     12  C   UNL     1       2.721   3.617  19.463  0.00  0.00    +0.000 C 
ATOM     13  C   UNL     1       1.595   3.864  20.467  0.00  0.00    +0.000 C 
ATOM     14  C   UNL     1       1.841   2.813  21.511  0.00  0.00    +0.000 C 
ATOM     15  O   UNL     1       1.048   2.451  22.360  0.00  0.00    +0.000 OA
ATOM     16  N   UNL     1       3.109   2.353  21.371  0.00  0.00    +0.000 N 
ATOM     17  C   UNL     1       3.727   2.813  20.248  0.00  0.00    +0.000 C 
ATOM     18  O   UNL     1       4.861   2.509  19.916  0.00  0.00    +0.000 OA
ATOM     19  H   UNL     1       3.524   1.670  21.984  0.00  0.00    +0.000 HD
ENDBRANCH   8  12
TORSDOF 1
ENDMDL
MODEL 3
REMARK VINA RESULT:      -7.7      1.949      2.438
REMARK  Name = 
REMARK  2 active torsions:
REMARK  status: ('A' for Active; 'I' for Inactive)
REMARK    1  A    between atoms: C_1  and  C_2
REMARK    2  A    between atoms: C_8  and  C_9
REMARK                            x       y       z     vdW  Elec       q    Type
REMARK                         _______ _______ _______ _____ _____    ______ ____
ROOT
ATOM      1  C   UNL     1       1.536   9.599  18.077  0.00  0.00    +0.000 C 
ATOM      2  C   UNL     1       2.206   8.304  18.441  0.00  0.00    +0.000 A 
ATOM      3  C   UNL     1       1.887   7.676  19.646  0.00  0.00    +0.000 A 
ATOM      4  C   UNL     1       2.481   6.469  20.009  0.00  0.00    +0.000 A 
ATOM      5  C   UNL     1       3.411   5.906  19.127  0.00  0.00    +0.000 A 
ATOM      6  N   UNL     1       4.113   4.734  19.252  0.00  0.00    +0.000 N 
ATOM      7  C   UNL     1       4.914   4.549  18.165  0.00  0.00    +0.000 A 
ATOM      8  C   UNL     1       4.725   5.601  17.280  0.00  0.00    +0.000 A 
ATOM      9  C   UNL     1       3.770   6.486  17.905  0.00  0.00    +0.000 A 
ATOM     10  C   UNL     1       3.146   7.712  17.565  0.00  0.00    +0.000 A 
ATOM     11  H   UNL     1       4.030   4.100  20.034  0.00  0.00    +0.000 HD
ENDROOT
BRANCH   8  12
ATOM     12  C   UNL     1       5.420   5.661  15.953  0.00  0.00    +0.000 C 
ATOM     13  C   UNL     1       5.189   4.453  15.043  0.00  0.00    +0.000 C 
ATOM     14  C   UNL     1       6.474   4.368  14.269  0.00  0.00    +0.000 C 
ATOM     15  O   UNL     1       6.649   3.735  13.245  0.00  0.00    +0.000 OA
ATOM     16  N   UNL     1       7.419   5.093  14.919  0.00  0.00    +0.000 N 
ATOM     17  C   UNL     1       6.918   5.827  15.951  0.00  0.00    +0.000 C 
ATOM     18  O   UNL     1       7.588   6.565  16.654  0.00  0.00    +0.000 OA
ATOM     19  H   UNL     1       8.377   5.156  14.615  0.00  0.00    +0.000 HD
ENDBRANCH   8  12
TORSDOF 1
ENDMDL
MODEL 4
REMARK VINA RESULT:      -7.6      3.081      6.031
REMARK  Name = 
REMARK  2 active torsions:
REMARK  status: ('A' for Active; 'I' for Inactive)
REMARK    1  A    between atoms: C_1  and  C_2
REMARK    2  A    between atoms: C_8  and  C_9
REMARK                            x       y       z     vdW  Elec       q    Type
REMARK                         _______ _______ _______ _____ _____    ______ ____
ROOT
ATOM      1  C   UNL     1       5.856   3.456  15.633  0.00  0.00    +0.000 C 
ATOM      2  C   UNL     1       5.181   4.651  16.246  0.00  0.00    +0.000 A 
ATOM      3  C   UNL     1       5.517   5.933  15.810  0.00  0.00    +0.000 A 
ATOM      4  C   UNL     1       4.901   7.062  16.348  0.00  0.00    +0.000 A 
ATOM      5  C   UNL     1       3.937   6.869  17.344  0.00  0.00    +0.000 A 
ATOM      6  N   UNL     1       3.193   7.808  18.012  0.00  0.00    +0.000 N 
ATOM      7  C   UNL     1       2.361   7.199  18.904  0.00  0.00    +0.000 A 
ATOM      8  C   UNL     1       2.529   5.825  18.812  0.00  0.00    +0.000 A 
ATOM      9  C   UNL     1       3.556   5.610  17.820  0.00  0.00    +0.000 A 
ATOM     10  C   UNL     1       4.199   4.482  17.251  0.00  0.00    +0.000 A 
ATOM     11  H   UNL     1       3.250   8.803  17.848  0.00  0.00    +0.000 HD
ENDROOT
BRANCH   8  12
ATOM     12  C   UNL     1       1.711   4.866  19.625  0.00  0.00    +0.000 C 
ATOM     13  C   UNL     1       2.320   4.470  20.971  0.00  0.00    +0.000 C 
ATOM     14  C   UNL     1       1.815   3.069  21.167  0.00  0.00    +0.000 C 
ATOM     15  O   UNL     1       1.817   2.451  22.214  0.00  0.00    +0.000 OA
ATOM     16  N   UNL     1       1.381   2.595  19.972  0.00  0.00    +0.000 N 
ATOM     17  C   UNL     1       1.346   3.545  18.998  0.00  0.00    +0.000 C 
ATOM     18  O   UNL     1       0.968   3.342  17.856  0.00  0.00    +0.000 OA
ATOM     19  H   UNL     1       1.034   1.659  19.839  0.00  0.00    +0.000 HD
ENDBRANCH   8  12
TORSDOF 1
ENDMDL
MODEL 5
REMARK VINA RESULT:      -7.6      2.064      2.655
REMARK  Name = 
REMARK  2 active torsions:
REMARK  status: ('A' for Active; 'I' for Inactive)
REMARK    1  A    between atoms: C_1  and  C_2
REMARK    2  A    between atoms: C_8  and  C_9
REMARK                            x       y       z     vdW  Elec       q    Type
REMARK                         _______ _______ _______ _____ _____    ______ ____
ROOT
ATOM      1  C   UNL     1       1.069   3.850  20.639  0.00  0.00    +0.000 C 
ATOM      2  C   UNL     1       2.090   3.575  19.571  0.00  0.00    +0.000 A 
ATOM      3  C   UNL     1       1.930   2.473  18.731  0.00  0.00    +0.000 A 
ATOM      4  C   UNL     1       2.851   2.195  17.722  0.00  0.00    +0.000 A 
ATOM      5  C   UNL     1       3.946   3.056  17.582  0.00  0.00    +0.000 A 
ATOM      6  N   UNL     1       4.969   3.002  16.669  0.00  0.00    +0.000 N 
ATOM      7  C   UNL     1       5.833   4.036  16.872  0.00  0.00    +0.000 A 
ATOM      8  C   UNL     1       5.366   4.816  17.920  0.00  0.00    +0.000 A 
ATOM      9  C   UNL     1       4.160   4.177  18.391  0.00  0.00    +0.000 A 
ATOM     10  C   UNL     1       3.203   4.433  19.405  0.00  0.00    +0.000 A 
ATOM     11  H   UNL     1       5.053   2.300  15.947  0.00  0.00    +0.000 HD
ENDROOT
BRANCH   8  12
ATOM     12  C   UNL     1       6.065   6.070  18.353  0.00  0.00    +0.000 C 
ATOM     13  C   UNL     1       6.452   7.022  17.220  0.00  0.00    +0.000 C 
ATOM     14  C   UNL     1       7.700   7.675  17.744  0.00  0.00    +0.000 C 
ATOM     15  O   UNL     1       8.209   8.690  17.310  0.00  0.00    +0.000 OA
ATOM     16  N   UNL     1       8.183   6.924  18.765  0.00  0.00    +0.000 N 
ATOM     17  C   UNL     1       7.337   5.928  19.149  0.00  0.00    +0.000 C 
ATOM     18  O   UNL     1       7.563   5.150  20.061  0.00  0.00    +0.000 OA
ATOM     19  H   UNL     1       9.039   7.135  19.253  0.00  0.00    +0.000 HD
ENDBRANCH   8  12
TORSDOF 1
ENDMDL
MODEL 6
REMARK VINA RESULT:      -7.6      2.784      6.123
REMARK  Name = 
REMARK  2 active torsions:
REMARK  status: ('A' for Active; 'I' for Inactive)
REMARK    1  A    between atoms: C_1  and  C_2
REMARK    2  A    between atoms: C_8  and  C_9
REMARK                            x       y       z     vdW  Elec       q    Type
REMARK                         _______ _______ _______ _____ _____    ______ ____
ROOT
ATOM      1  C   UNL     1       6.298   3.616  12.526  0.00  0.00    +0.000 C 
ATOM      2  C   UNL     1       6.242   4.069  13.958  0.00  0.00    +0.000 A 
ATOM      3  C   UNL     1       7.189   4.978  14.432  0.00  0.00    +0.000 A 
ATOM      4  C   UNL     1       7.159   5.429  15.750  0.00  0.00    +0.000 A 
ATOM      5  C   UNL     1       6.150   4.937  16.586  0.00  0.00    +0.000 A 
ATOM      6  N   UNL     1       5.906   5.233  17.903  0.00  0.00    +0.000 N 
ATOM      7  C   UNL     1       4.819   4.540  18.346  0.00  0.00    +0.000 A 
ATOM      8  C   UNL     1       4.307   3.787  17.300  0.00  0.00    +0.000 A 
ATOM      9  C   UNL     1       5.172   4.027  16.169  0.00  0.00    +0.000 A 
ATOM     10  C   UNL     1       5.229   3.591  14.822  0.00  0.00    +0.000 A 
ATOM     11  H   UNL     1       6.450   5.884  18.452  0.00  0.00    +0.000 HD
ENDROOT
BRANCH   8  12
ATOM     12  C   UNL     1       3.068   2.955  17.449  0.00  0.00    +0.000 C 
ATOM     13  C   UNL     1       1.838   3.706  17.960  0.00  0.00    +0.000 C 
ATOM     14  C   UNL     1       1.093   2.648  18.724  0.00  0.00    +0.000 C 
ATOM     15  O   UNL     1      -0.069   2.708  19.077  0.00  0.00    +0.000 OA
ATOM     16  N   UNL     1       1.944   1.623  18.982  0.00  0.00    +0.000 N 
ATOM     17  C   UNL     1       3.139   1.741  18.340  0.00  0.00    +0.000 C 
ATOM     18  O   UNL     1       4.040   0.922  18.414  0.00  0.00    +0.000 OA
ATOM     19  H   UNL     1       1.688   0.810  19.519  0.00  0.00    +0.000 HD
ENDBRANCH   8  12
TORSDOF 1
ENDMDL
MODEL 7
REMARK VINA RESULT:      -7.3      2.503      6.020
REMARK  Name = 
REMARK  2 active torsions:
REMARK  status: ('A' for Active; 'I' for Inactive)
REMARK    1  A    between atoms: C_1  and  C_2
REMARK    2  A    between atoms: C_8  and  C_9
REMARK                            x       y       z     vdW  Elec       q    Type
REMARK                         _______ _______ _______ _____ _____    ______ ____
ROOT
ATOM      1  C   UNL     1       5.630   3.796  13.443  0.00  0.00    +0.000 C 
ATOM      2  C   UNL     1       5.868   4.286  14.844  0.00  0.00    +0.000 A 
ATOM      3  C   UNL     1       7.025   5.011  15.135  0.00  0.00    +0.000 A 
ATOM      4  C   UNL     1       7.270   5.491  16.419  0.00  0.00    +0.000 A 
ATOM      5  C   UNL     1       6.321   5.220  17.411  0.00  0.00    +0.000 A 
ATOM      6  N   UNL     1       6.330   5.590  18.732  0.00  0.00    +0.000 N 
ATOM      7  C   UNL     1       5.211   5.126  19.357  0.00  0.00    +0.000 A 
ATOM      8  C   UNL     1       4.422   4.458  18.432  0.00  0.00    +0.000 A 
ATOM      9  C   UNL     1       5.142   4.502  17.181  0.00  0.00    +0.000 A 
ATOM     10  C   UNL     1       4.921   4.030  15.863  0.00  0.00    +0.000 A 
ATOM     11  H   UNL     1       7.059   6.138  19.166  0.00  0.00    +0.000 HD
ENDROOT
BRANCH   8  12
ATOM     12  C   UNL     1       3.086   3.880  18.793  0.00  0.00    +0.000 C 
ATOM     13  C   UNL     1       2.603   4.196  20.209  0.00  0.00    +0.000 C 
ATOM     14  C   UNL     1       1.788   2.984  20.563  0.00  0.00    +0.000 C 
ATOM     15  O   UNL     1       0.992   2.903  21.479  0.00  0.00    +0.000 OA
ATOM     16  N   UNL     1       2.113   1.982  19.709  0.00  0.00    +0.000 N 
ATOM     17  C   UNL     1       2.914   2.386  18.685  0.00  0.00    +0.000 C 
ATOM     18  O   UNL     1       3.307   1.653  17.792  0.00  0.00    +0.000 OA
ATOM     19  H   UNL     1       1.728   1.053  19.770  0.00  0.00    +0.000 HD
ENDBRANCH   8  12
TORSDOF 1
ENDMDL
MODEL 8
REMARK VINA RESULT:      -7.3      2.454      6.349
REMARK  Name = 
REMARK  2 active torsions:
REMARK  status: ('A' for Active; 'I' for Inactive)
REMARK    1  A    between atoms: C_1  and  C_2
REMARK    2  A    between atoms: C_8  and  C_9
REMARK                            x       y       z     vdW  Elec       q    Type
REMARK                         _______ _______ _______ _____ _____    ______ ____
ROOT
ATOM      1  C   UNL     1       4.943   2.841  11.532  0.00  0.00    +0.000 C 
ATOM      2  C   UNL     1       5.672   3.622  12.589  0.00  0.00    +0.000 A 
ATOM      3  C   UNL     1       6.976   4.057  12.350  0.00  0.00    +0.000 A 
ATOM      4  C   UNL     1       7.677   4.794  13.303  0.00  0.00    +0.000 A 
ATOM      5  C   UNL     1       7.031   5.082  14.511  0.00  0.00    +0.000 A 
ATOM      6  N   UNL     1       7.500   5.791  15.587  0.00  0.00    +0.000 N 
ATOM      7  C   UNL     1       6.550   5.844  16.564  0.00  0.00    +0.000 A 
ATOM      8  C   UNL     1       5.412   5.183  16.123  0.00  0.00    +0.000 A 
ATOM      9  C   UNL     1       5.725   4.676  14.808  0.00  0.00    +0.000 A 
ATOM     10  C   UNL     1       5.040   3.930  13.816  0.00  0.00    +0.000 A 
ATOM     11  H   UNL     1       8.413   6.221  15.634  0.00  0.00    +0.000 HD
ENDROOT
BRANCH   8  12
ATOM     12  C   UNL     1       4.161   5.115  16.947  0.00  0.00    +0.000 C 
ATOM     13  C   UNL     1       3.951   6.286  17.907  0.00  0.00    +0.000 C 
ATOM     14  C   UNL     1       3.204   5.654  19.047  0.00  0.00    +0.000 C 
ATOM     15  O   UNL     1       2.590   6.247  19.913  0.00  0.00    +0.000 OA
ATOM     16  N   UNL     1       3.355   4.308  18.968  0.00  0.00    +0.000 N 
ATOM     17  C   UNL     1       3.957   3.901  17.817  0.00  0.00    +0.000 C 
ATOM     18  O   UNL     1       4.171   2.734  17.531  0.00  0.00    +0.000 OA
ATOM     19  H   UNL     1       2.979   3.666  19.648  0.00  0.00    +0.000 HD
ENDBRANCH   8  12
TORSDOF 1
ENDMDL
MODEL 9
REMARK VINA RESULT:      -7.3      2.424      6.357
REMARK  Name = 
REMARK  2 active torsions:
REMARK  status: ('A' for Active; 'I' for Inactive)
REMARK    1  A    between atoms: C_1  and  C_2
REMARK    2  A    between atoms: C_8  and  C_9
REMARK                            x       y       z     vdW  Elec       q    Type
REMARK                         _______ _______ _______ _____ _____    ______ ____
ROOT
ATOM      1  C   UNL     1       5.510   2.531  11.458  0.00  0.00    +0.000 C 
ATOM      2  C   UNL     1       6.107   3.424  12.509  0.00  0.00    +0.000 A 
ATOM      3  C   UNL     1       7.126   4.312  12.164  0.00  0.00    +0.000 A 
ATOM      4  C   UNL     1       7.692   5.163  13.111  0.00  0.00    +0.000 A 
ATOM      5  C   UNL     1       7.208   5.096  14.423  0.00  0.00    +0.000 A 
ATOM      6  N   UNL     1       7.592   5.828  15.518  0.00  0.00    +0.000 N 
ATOM      7  C   UNL     1       6.865   5.455  16.609  0.00  0.00    +0.000 A 
ATOM      8  C   UNL     1       5.958   4.475  16.234  0.00  0.00    +0.000 A 
ATOM      9  C   UNL     1       6.189   4.229  14.829  0.00  0.00    +0.000 A 
ATOM     10  C   UNL     1       5.632   3.379  13.841  0.00  0.00    +0.000 A 
ATOM     11  H   UNL     1       8.301   6.548  15.503  0.00  0.00    +0.000 HD
ENDROOT
BRANCH   8  12
ATOM     12  C   UNL     1       4.967   3.895  17.198  0.00  0.00    +0.000 C 
ATOM     13  C   UNL     1       3.500   4.179  16.872  0.00  0.00    +0.000 C 
ATOM     14  C   UNL     1       2.859   4.229  18.229  0.00  0.00    +0.000 C 
ATOM     15  O   UNL     1       1.666   4.161  18.458  0.00  0.00    +0.000 OA
ATOM     16  N   UNL     1       3.832   4.393  19.160  0.00  0.00    +0.000 N 
ATOM     17  C   UNL     1       5.089   4.282  18.650  0.00  0.00    +0.000 C 
ATOM     18  O   UNL     1       6.109   4.373  19.314  0.00  0.00    +0.000 OA
ATOM     19  H   UNL     1       3.647   4.497  20.145  0.00  0.00    +0.000 HD
ENDBRANCH   8  12
TORSDOF 1
ENDMDL
