MODEL 1
REMARK VINA RESULT:      -7.9      0.000      0.000
REMARK  Name = 
REMARK  14 active torsions:
REMARK  status: ('A' for Active; 'I' for Inactive)
REMARK    1  A    between atoms: C_1  and  O_2
REMARK    2  A    between atoms: O_2  and  C_3
REMARK    3  A    between atoms: C_3  and  C_5
REMARK    4  A    between atoms: C_10  and  O_11
REMARK    5  A    between atoms: C_12  and  C_13
REMARK    6  A    between atoms: C_13  and  C_14
REMARK    7  A    between atoms: C_14  and  C_15
REMARK    8  A    between atoms: C_15  and  C_16
REMARK    9  A    between atoms: C_16  and  C_17
REMARK   10  A    between atoms: C_17  and  C_18
REMARK   11  A    between atoms: C_19  and  O_20
REMARK   12  A    between atoms: C_25  and  C_26
REMARK   13  A    between atoms: C_26  and  O_28
REMARK   14  A    between atoms: O_28  and  C_29
REMARK                            x       y       z     vdW  Elec       q    Type
REMARK                         _______ _______ _______ _____ _____    ______ ____
ROOT
ATOM      1  C   UNL     1       8.637   9.167  18.515  0.00  0.00    +0.000 C 
ENDROOT
BRANCH   1   2
ATOM      2  C   UNL     1       8.838  10.620  18.062  0.00  0.00    +0.000 C 
BRANCH   2   3
ATOM      3  C   UNL     1       9.703  11.439  19.026  0.00  0.00    +0.000 C 
BRANCH   3  10
ATOM      4  C   UNL     1       9.633  13.907  18.279  0.00  0.00    +0.000 A 
ATOM      5  N   UNL     1      10.212  14.979  17.672  0.00  0.00    +0.000 NA
ATOM      6  C   UNL     1      11.435  14.827  17.182  0.00  0.00    +0.000 A 
ATOM      7  N   UNL     1      11.998  15.907  16.541  0.00  0.00    +0.000 N 
ATOM      8  N   UNL     1      12.130  13.696  17.230  0.00  0.00    +0.000 NA
ATOM      9  C   UNL     1      11.521  12.678  17.842  0.00  0.00    +0.000 A 
ATOM     10  C   UNL     1      10.260  12.681  18.393  0.00  0.00    +0.000 A 
ATOM     11  H   UNL     1      11.278  16.546  16.240  0.00  0.00    +0.000 HD
ATOM     12  H   UNL     1      12.668  15.607  15.847  0.00  0.00    +0.000 HD
BRANCH   4  13
ATOM     13  C   UNL     1       8.243  14.156  18.801  0.00  0.00    +0.000 C 
ATOM     14  O   UNL     1       7.961  14.442  19.954  0.00  0.00    +0.000 OA
BRANCH  13  16
ATOM     15  C   UNL     1       6.095  14.678  17.948  0.00  0.00    +0.000 C 
ATOM     16  O   UNL     1       7.343  14.001  17.794  0.00  0.00    +0.000 OA
ENDBRANCH  13  16
ENDBRANCH   4  13
BRANCH   9  17
ATOM     17  O   UNL     1      12.290  11.552  17.876  0.00  0.00    +0.000 OA
ATOM     18  H   UNL     1      12.800  11.666  17.049  0.00  0.00    +0.000 HD
ENDBRANCH   9  17
ENDBRANCH   3  10
ENDBRANCH   2   3
ENDBRANCH   1   2
BRANCH   1  19
ATOM     19  C   UNL     1       7.590   8.372  17.727  0.00  0.00    +0.000 C 
BRANCH  19  20
ATOM     20  C   UNL     1       7.962   6.899  17.527  0.00  0.00    +0.000 C 
BRANCH  20  21
ATOM     21  C   UNL     1       6.841   5.988  17.942  0.00  0.00    +0.000 A 
ATOM     22  C   UNL     1       6.775   5.437  19.210  0.00  0.00    +0.000 A 
ATOM     23  N   UNL     1       5.813   4.606  19.628  0.00  0.00    +0.000 NA
ATOM     24  C   UNL     1       4.877   4.274  18.753  0.00  0.00    +0.000 A 
ATOM     25  N   UNL     1       3.881   3.425  19.178  0.00  0.00    +0.000 N 
ATOM     26  N   UNL     1       4.817   4.733  17.513  0.00  0.00    +0.000 NA
ATOM     27  C   UNL     1       5.807   5.570  17.108  0.00  0.00    +0.000 A 
ATOM     28  H   UNL     1       3.805   3.466  20.186  0.00  0.00    +0.000 HD
ATOM     29  H   UNL     1       3.040   3.571  18.639  0.00  0.00    +0.000 HD
BRANCH  22  30
ATOM     30  O   UNL     1       7.695   5.662  20.187  0.00  0.00    +0.000 OA
ATOM     31  H   UNL     1       8.517   6.043  19.844  0.00  0.00    +0.000 HD
ENDBRANCH  22  30
BRANCH  27  32
ATOM     32  C   UNL     1       5.705   5.998  15.662  0.00  0.00    +0.000 C 
ATOM     33  O   UNL     1       4.957   6.859  15.226  0.00  0.00    +0.000 OA
BRANCH  32  34
ATOM     34  O   UNL     1       6.578   5.280  14.903  0.00  0.00    +0.000 OA
ATOM     35  C   UNL     1       6.045   4.092  14.318  0.00  0.00    +0.000 C 
ENDBRANCH  32  34
ENDBRANCH  27  32
ENDBRANCH  20  21
ENDBRANCH  19  20
ENDBRANCH   1  19
TORSDOF 12
ENDMDL
MODEL 2
REMARK VINA RESULT:      -7.7      4.614      8.831
REMARK  Name = 
REMARK  14 active torsions:
REMARK  status: ('A' for Active; 'I' for Inactive)
REMARK    1  A    between atoms: C_1  and  O_2
REMARK    2  A    between atoms: O_2  and  C_3
REMARK    3  A    between atoms: C_3  and  C_5
REMARK    4  A    between atoms: C_10  and  O_11
REMARK    5  A    between atoms: C_12  and  C_13
REMARK    6  A    between atoms: C_13  and  C_14
REMARK    7  A    between atoms: C_14  and  C_15
REMARK    8  A    between atoms: C_15  and  C_16
REMARK    9  A    between atoms: C_16  and  C_17
REMARK   10  A    between atoms: C_17  and  C_18
REMARK   11  A    between atoms: C_19  and  O_20
REMARK   12  A    between atoms: C_25  and  C_26
REMARK   13  A    between atoms: C_26  and  O_28
REMARK   14  A    between atoms: O_28  and  C_29
REMARK                            x       y       z     vdW  Elec       q    Type
REMARK                         _______ _______ _______ _____ _____    ______ ____
ROOT
ATOM      1  C   UNL     1       4.382   3.244  18.297  0.00  0.00    +0.000 C 
ENDROOT
BRANCH   1   2
ATOM      2  C   UNL     1       3.655   3.806  17.068  0.00  0.00    +0.000 C 
BRANCH   2   3
ATOM      3  C   UNL     1       2.203   4.206  17.356  0.00  0.00    +0.000 C 
BRANCH   3  10
ATOM      4  C   UNL     1       1.595   4.854  19.778  0.00  0.00    +0.000 A 
ATOM      5  N   UNL     1       1.507   5.780  20.772  0.00  0.00    +0.000 NA
ATOM      6  C   UNL     1       1.919   7.013  20.506  0.00  0.00    +0.000 A 
ATOM      7  N   UNL     1       1.796   7.950  21.506  0.00  0.00    +0.000 N 
ATOM      8  N   UNL     1       2.400   7.410  19.333  0.00  0.00    +0.000 NA
ATOM      9  C   UNL     1       2.472   6.463  18.396  0.00  0.00    +0.000 A 
ATOM     10  C   UNL     1       2.082   5.149  18.520  0.00  0.00    +0.000 A 
ATOM     11  H   UNL     1       1.103   7.652  22.178  0.00  0.00    +0.000 HD
ATOM     12  H   UNL     1       1.695   8.879  21.122  0.00  0.00    +0.000 HD
BRANCH   4  13
ATOM     13  C   UNL     1       1.099   3.482  20.154  0.00  0.00    +0.000 C 
ATOM     14  O   UNL     1       0.426   2.755  19.442  0.00  0.00    +0.000 OA
BRANCH  13  16
ATOM     15  C   UNL     1       2.718   2.438  21.532  0.00  0.00    +0.000 C 
ATOM     16  O   UNL     1       1.504   3.182  21.416  0.00  0.00    +0.000 OA
ENDBRANCH  13  16
ENDBRANCH   4  13
BRANCH   9  17
ATOM     17  O   UNL     1       2.989   6.925  17.222  0.00  0.00    +0.000 OA
ATOM     18  H   UNL     1       2.491   7.762  17.132  0.00  0.00    +0.000 HD
ENDBRANCH   9  17
ENDBRANCH   3  10
ENDBRANCH   2   3
ENDBRANCH   1   2
BRANCH   1  19
ATOM     19  C   UNL     1       5.461   4.155  18.894  0.00  0.00    +0.000 C 
BRANCH  19  20
ATOM     20  C   UNL     1       6.718   4.267  18.025  0.00  0.00    +0.000 C 
BRANCH  20  21
ATOM     21  C   UNL     1       7.235   5.678  17.986  0.00  0.00    +0.000 A 
ATOM     22  C   UNL     1       7.936   6.232  19.043  0.00  0.00    +0.000 A 
ATOM     23  N   UNL     1       8.402   7.486  19.072  0.00  0.00    +0.000 NA
ATOM     24  C   UNL     1       8.147   8.250  18.022  0.00  0.00    +0.000 A 
ATOM     25  N   UNL     1       8.629   9.540  18.042  0.00  0.00    +0.000 N 
ATOM     26  N   UNL     1       7.493   7.846  16.944  0.00  0.00    +0.000 NA
ATOM     27  C   UNL     1       7.025   6.571  16.939  0.00  0.00    +0.000 A 
ATOM     28  H   UNL     1       9.408   9.603  18.683  0.00  0.00    +0.000 HD
ATOM     29  H   UNL     1       8.768   9.878  17.101  0.00  0.00    +0.000 HD
BRANCH  22  30
ATOM     30  O   UNL     1       8.227   5.568  20.195  0.00  0.00    +0.000 OA
ATOM     31  H   UNL     1       8.128   6.126  20.981  0.00  0.00    +0.000 HD
ENDBRANCH  22  30
BRANCH  27  32
ATOM     32  C   UNL     1       6.234   6.206  15.704  0.00  0.00    +0.000 C 
ATOM     33  O   UNL     1       5.124   6.628  15.419  0.00  0.00    +0.000 OA
BRANCH  32  34
ATOM     34  O   UNL     1       6.944   5.330  14.941  0.00  0.00    +0.000 OA
ATOM     35  C   UNL     1       6.168   4.339  14.268  0.00  0.00    +0.000 C 
ENDBRANCH  32  34
ENDBRANCH  27  32
ENDBRANCH  20  21
ENDBRANCH  19  20
ENDBRANCH   1  19
TORSDOF 12
ENDMDL
MODEL 3
REMARK VINA RESULT:      -7.6      0.595      9.726
REMARK  Name = 
REMARK  14 active torsions:
REMARK  status: ('A' for Active; 'I' for Inactive)
REMARK    1  A    between atoms: C_1  and  O_2
REMARK    2  A    between atoms: O_2  and  C_3
REMARK    3  A    between atoms: C_3  and  C_5
REMARK    4  A    between atoms: C_10  and  O_11
REMARK    5  A    between atoms: C_12  and  C_13
REMARK    6  A    between atoms: C_13  and  C_14
REMARK    7  A    between atoms: C_14  and  C_15
REMARK    8  A    between atoms: C_15  and  C_16
REMARK    9  A    between atoms: C_16  and  C_17
REMARK   10  A    between atoms: C_17  and  C_18
REMARK   11  A    between atoms: C_19  and  O_20
REMARK   12  A    between atoms: C_25  and  C_26
REMARK   13  A    between atoms: C_26  and  O_28
REMARK   14  A    between atoms: O_28  and  C_29
REMARK                            x       y       z     vdW  Elec       q    Type
REMARK                         _______ _______ _______ _____ _____    ______ ____
ROOT
ATOM      1  C   UNL     1       8.458   8.925  18.359  0.00  0.00    +0.000 C 
ENDROOT
BRANCH   1   2
ATOM      2  C   UNL     1       7.451   8.134  17.512  0.00  0.00    +0.000 C 
BRANCH   2   3
ATOM      3  C   UNL     1       7.804   6.647  17.388  0.00  0.00    +0.000 C 
BRANCH   3  10
ATOM      4  C   UNL     1       5.690   5.184  17.170  0.00  0.00    +0.000 A 
ATOM      5  N   UNL     1       4.735   4.390  17.726  0.00  0.00    +0.000 NA
ATOM      6  C   UNL     1       4.813   4.149  19.028  0.00  0.00    +0.000 A 
ATOM      7  N   UNL     1       3.824   3.372  19.588  0.00  0.00    +0.000 N 
ATOM      8  N   UNL     1       5.750   4.641  19.831  0.00  0.00    +0.000 NA
ATOM      9  C   UNL     1       6.667   5.407  19.235  0.00  0.00    +0.000 A 
ATOM     10  C   UNL     1       6.716   5.748  17.903  0.00  0.00    +0.000 A 
ATOM     11  H   UNL     1       3.004   3.377  18.999  0.00  0.00    +0.000 HD
ATOM     12  H   UNL     1       3.693   3.599  20.563  0.00  0.00    +0.000 HD
BRANCH   4  13
ATOM     13  C   UNL     1       5.529   5.417  15.691  0.00  0.00    +0.000 C 
ATOM     14  O   UNL     1       5.226   6.479  15.171  0.00  0.00    +0.000 OA
BRANCH  13  16
ATOM     15  C   UNL     1       6.406   4.376  13.752  0.00  0.00    +0.000 C 
ATOM     16  O   UNL     1       5.760   4.257  15.020  0.00  0.00    +0.000 OA
ENDBRANCH  13  16
ENDBRANCH   4  13
BRANCH   9  17
ATOM     17  O   UNL     1       7.611   5.867  20.105  0.00  0.00    +0.000 OA
ATOM     18  H   UNL     1       7.842   6.715  19.675  0.00  0.00    +0.000 HD
ENDBRANCH   9  17
ENDBRANCH   3  10
ENDBRANCH   2   3
ENDBRANCH   1   2
BRANCH   1  19
ATOM     19  C   UNL     1       8.786  10.331  17.844  0.00  0.00    +0.000 C 
BRANCH  19  20
ATOM     20  C   UNL     1       9.443  11.231  18.896  0.00  0.00    +0.000 C 
BRANCH  20  21
ATOM     21  C   UNL     1      10.112  12.419  18.262  0.00  0.00    +0.000 A 
ATOM     22  C   UNL     1      11.418  12.369  17.806  0.00  0.00    +0.000 A 
ATOM     23  N   UNL     1      12.069  13.398  17.252  0.00  0.00    +0.000 NA
ATOM     24  C   UNL     1      11.419  14.547  17.161  0.00  0.00    +0.000 A 
ATOM     25  N   UNL     1      12.081  15.609  16.587  0.00  0.00    +0.000 N 
ATOM     26  N   UNL     1      10.168  14.731  17.553  0.00  0.00    +0.000 NA
ATOM     27  C   UNL     1       9.528  13.674  18.117  0.00  0.00    +0.000 A 
ATOM     28  H   UNL     1      12.826  15.267  15.995  0.00  0.00    +0.000 HD
ATOM     29  H   UNL     1      11.422  16.257  16.183  0.00  0.00    +0.000 HD
BRANCH  22  30
ATOM     30  O   UNL     1      12.208  11.263  17.880  0.00  0.00    +0.000 OA
ATOM     31  H   UNL     1      13.141  11.481  18.018  0.00  0.00    +0.000 HD
ENDBRANCH  22  30
BRANCH  27  32
ATOM     32  C   UNL     1       8.128  13.981  18.596  0.00  0.00    +0.000 C 
ATOM     33  O   UNL     1       7.130  14.030  17.894  0.00  0.00    +0.000 OA
BRANCH  32  34
ATOM     34  O   UNL     1       8.135  14.196  19.940  0.00  0.00    +0.000 OA
ATOM     35  C   UNL     1       7.759  15.511  20.350  0.00  0.00    +0.000 C 
ENDBRANCH  32  34
ENDBRANCH  27  32
ENDBRANCH  20  21
ENDBRANCH  19  20
ENDBRANCH   1  19
TORSDOF 12
ENDMDL
MODEL 4
REMARK VINA RESULT:      -7.4      5.350      7.051
REMARK  Name = 
REMARK  14 active torsions:
REMARK  status: ('A' for Active; 'I' for Inactive)
REMARK    1  A    between atoms: C_1  and  O_2
REMARK    2  A    between atoms: O_2  and  C_3
REMARK    3  A    between atoms: C_3  and  C_5
REMARK    4  A    between atoms: C_10  and  O_11
REMARK    5  A    between atoms: C_12  and  C_13
REMARK    6  A    between atoms: C_13  and  C_14
REMARK    7  A    between atoms: C_14  and  C_15
REMARK    8  A    between atoms: C_15  and  C_16
REMARK    9  A    between atoms: C_16  and  C_17
REMARK   10  A    between atoms: C_17  and  C_18
REMARK   11  A    between atoms: C_19  and  O_20
REMARK   12  A    between atoms: C_25  and  C_26
REMARK   13  A    between atoms: C_26  and  O_28
REMARK   14  A    between atoms: O_28  and  C_29
REMARK                            x       y       z     vdW  Elec       q    Type
REMARK                         _______ _______ _______ _____ _____    ______ ____
ROOT
ATOM      1  C   UNL     1       2.127   7.868  17.847  0.00  0.00    +0.000 C 
ENDROOT
BRANCH   1   2
ATOM      2  C   UNL     1       1.711   8.799  18.995  0.00  0.00    +0.000 C 
BRANCH   2   3
ATOM      3  C   UNL     1       0.839   9.973  18.535  0.00  0.00    +0.000 C 
BRANCH   3  10
ATOM      4  C   UNL     1       0.969  11.889  20.258  0.00  0.00    +0.000 A 
ATOM      5  N   UNL     1       1.446  13.102  20.648  0.00  0.00    +0.000 NA
ATOM      6  C   UNL     1       2.291  13.724  19.837  0.00  0.00    +0.000 A 
ATOM      7  N   UNL     1       2.742  14.966  20.224  0.00  0.00    +0.000 N 
ATOM      8  N   UNL     1       2.695  13.252  18.663  0.00  0.00    +0.000 NA
ATOM      9  C   UNL     1       2.204  12.056  18.330  0.00  0.00    +0.000 A 
ATOM     10  C   UNL     1       1.320  11.294  19.061  0.00  0.00    +0.000 A 
ATOM     11  H   UNL     1       2.109  15.370  20.899  0.00  0.00    +0.000 HD
ATOM     12  H   UNL     1       2.982  15.531  19.422  0.00  0.00    +0.000 HD
BRANCH   4  13
ATOM     13  C   UNL     1       0.009  11.251  21.227  0.00  0.00    +0.000 C 
ATOM     14  O   UNL     1      -1.203  11.398  21.222  0.00  0.00    +0.000 OA
BRANCH  13  16
ATOM     15  C   UNL     1       0.026   9.344  22.632  0.00  0.00    +0.000 C 
ATOM     16  O   UNL     1       0.700  10.494  22.121  0.00  0.00    +0.000 OA
ENDBRANCH  13  16
ENDBRANCH   4  13
BRANCH   9  17
ATOM     17  O   UNL     1       2.667  11.615  17.126  0.00  0.00    +0.000 OA
ATOM     18  H   UNL     1       2.061  12.092  16.523  0.00  0.00    +0.000 HD
ENDBRANCH   9  17
ENDBRANCH   3  10
ENDBRANCH   2   3
ENDBRANCH   1   2
BRANCH   1  19
ATOM     19  C   UNL     1       3.600   7.952  17.435  0.00  0.00    +0.000 C 
BRANCH  19  20
ATOM     20  C   UNL     1       4.205   6.600  17.044  0.00  0.00    +0.000 C 
BRANCH  20  21
ATOM     21  C   UNL     1       5.360   6.236  17.935  0.00  0.00    +0.000 A 
ATOM     22  C   UNL     1       6.637   6.721  17.714  0.00  0.00    +0.000 A 
ATOM     23  N   UNL     1       7.705   6.416  18.461  0.00  0.00    +0.000 NA
ATOM     24  C   UNL     1       7.521   5.572  19.465  0.00  0.00    +0.000 A 
ATOM     25  N   UNL     1       8.613   5.260  20.242  0.00  0.00    +0.000 N 
ATOM     26  N   UNL     1       6.353   5.041  19.789  0.00  0.00    +0.000 NA
ATOM     27  C   UNL     1       5.284   5.359  19.013  0.00  0.00    +0.000 A 
ATOM     28  H   UNL     1       9.309   5.989  20.162  0.00  0.00    +0.000 HD
ATOM     29  H   UNL     1       8.320   4.992  21.169  0.00  0.00    +0.000 HD
BRANCH  22  30
ATOM     30  O   UNL     1       6.969   7.559  16.695  0.00  0.00    +0.000 OA
ATOM     31  H   UNL     1       6.574   8.438  16.792  0.00  0.00    +0.000 HD
ENDBRANCH  22  30
BRANCH  27  32
ATOM     32  C   UNL     1       4.002   4.663  19.407  0.00  0.00    +0.000 C 
ATOM     33  O   UNL     1       3.036   5.193  19.933  0.00  0.00    +0.000 OA
BRANCH  32  34
ATOM     34  O   UNL     1       4.075   3.341  19.087  0.00  0.00    +0.000 OA
ATOM     35  C   UNL     1       3.520   2.989  17.820  0.00  0.00    +0.000 C 
ENDBRANCH  32  34
ENDBRANCH  27  32
ENDBRANCH  20  21
ENDBRANCH  19  20
ENDBRANCH   1  19
TORSDOF 12
ENDMDL
MODEL 5
REMARK VINA RESULT:      -7.3      6.625      8.813
REMARK  Name = 
REMARK  14 active torsions:
REMARK  status: ('A' for Active; 'I' for Inactive)
REMARK    1  A    between atoms: C_1  and  O_2
REMARK    2  A    between atoms: O_2  and  C_3
REMARK    3  A    between atoms: C_3  and  C_5
REMARK    4  A    between atoms: C_10  and  O_11
REMARK    5  A    between atoms: C_12  and  C_13
REMARK    6  A    between atoms: C_13  and  C_14
REMARK    7  A    between atoms: C_14  and  C_15
REMARK    8  A    between atoms: C_15  and  C_16
REMARK    9  A    between atoms: C_16  and  C_17
REMARK   10  A    between atoms: C_17  and  C_18
REMARK   11  A    between atoms: C_19  and  O_20
REMARK   12  A    between atoms: C_25  and  C_26
REMARK   13  A    between atoms: C_26  and  O_28
REMARK   14  A    between atoms: O_28  and  C_29
REMARK                            x       y       z     vdW  Elec       q    Type
REMARK                         _______ _______ _______ _____ _____    ______ ____
ROOT
ATOM      1  C   UNL     1       1.917   6.823  20.346  0.00  0.00    +0.000 C 
ENDROOT
BRANCH   1   2
ATOM      2  C   UNL     1       1.568   8.078  21.158  0.00  0.00    +0.000 C 
BRANCH   2   3
ATOM      3  C   UNL     1       0.059   8.325  21.270  0.00  0.00    +0.000 C 
BRANCH   3  10
ATOM      4  C   UNL     1      -0.527  10.719  20.507  0.00  0.00    +0.000 A 
ATOM      5  N   UNL     1      -0.811  12.018  20.793  0.00  0.00    +0.000 NA
ATOM      6  C   UNL     1      -0.857  12.374  22.070  0.00  0.00    +0.000 A 
ATOM      7  N   UNL     1      -1.112  13.698  22.349  0.00  0.00    +0.000 N 
ATOM      8  N   UNL     1      -0.631  11.553  23.090  0.00  0.00    +0.000 NA
ATOM      9  C   UNL     1      -0.364  10.289  22.756  0.00  0.00    +0.000 A 
ATOM     10  C   UNL     1      -0.279   9.773  21.483  0.00  0.00    +0.000 A 
ATOM     11  H   UNL     1      -0.894  14.270  21.547  0.00  0.00    +0.000 HD
ATOM     12  H   UNL     1      -0.703  13.967  23.232  0.00  0.00    +0.000 HD
BRANCH   4  13
ATOM     13  C   UNL     1      -0.485  10.395  19.036  0.00  0.00    +0.000 C 
ATOM     14  O   UNL     1       0.530  10.220  18.380  0.00  0.00    +0.000 OA
BRANCH  13  16
ATOM     15  C   UNL     1      -1.885   9.947  17.180  0.00  0.00    +0.000 C 
ATOM     16  O   UNL     1      -1.751  10.342  18.545  0.00  0.00    +0.000 OA
ENDBRANCH  13  16
ENDBRANCH   4  13
BRANCH   9  17
ATOM     17  O   UNL     1      -0.160   9.491  23.842  0.00  0.00    +0.000 OA
ATOM     18  H   UNL     1      -1.061   9.488  24.225  0.00  0.00    +0.000 HD
ENDBRANCH   9  17
ENDBRANCH   3  10
ENDBRANCH   2   3
ENDBRANCH   1   2
BRANCH   1  19
ATOM     19  C   UNL     1       2.095   7.045  18.840  0.00  0.00    +0.000 C 
BRANCH  19  20
ATOM     20  C   UNL     1       2.344   5.753  18.055  0.00  0.00    +0.000 C 
BRANCH  20  21
ATOM     21  C   UNL     1       3.791   5.349  18.107  0.00  0.00    +0.000 A 
ATOM     22  C   UNL     1       4.778   6.074  17.462  0.00  0.00    +0.000 A 
ATOM     23  N   UNL     1       6.077   5.751  17.458  0.00  0.00    +0.000 NA
ATOM     24  C   UNL     1       6.428   4.647  18.097  0.00  0.00    +0.000 A 
ATOM     25  N   UNL     1       7.763   4.312  18.102  0.00  0.00    +0.000 N 
ATOM     26  N   UNL     1       5.588   3.866  18.758  0.00  0.00    +0.000 NA
ATOM     27  C   UNL     1       4.274   4.210  18.744  0.00  0.00    +0.000 A 
ATOM     28  H   UNL     1       8.322   5.137  17.932  0.00  0.00    +0.000 HD
ATOM     29  H   UNL     1       7.984   3.757  18.915  0.00  0.00    +0.000 HD
BRANCH  22  30
ATOM     30  O   UNL     1       4.544   7.202  16.737  0.00  0.00    +0.000 OA
ATOM     31  H   UNL     1       4.764   7.094  15.800  0.00  0.00    +0.000 HD
ENDBRANCH  22  30
BRANCH  27  32
ATOM     32  C   UNL     1       3.371   3.235  19.465  0.00  0.00    +0.000 C 
ATOM     33  O   UNL     1       2.844   2.252  18.968  0.00  0.00    +0.000 OA
BRANCH  32  34
ATOM     34  O   UNL     1       3.228   3.611  20.765  0.00  0.00    +0.000 OA
ATOM     35  C   UNL     1       1.979   3.268  21.366  0.00  0.00    +0.000 C 
ENDBRANCH  32  34
ENDBRANCH  27  32
ENDBRANCH  20  21
ENDBRANCH  19  20
ENDBRANCH   1  19
TORSDOF 12
ENDMDL
MODEL 6
REMARK VINA RESULT:      -7.3      6.521      8.943
REMARK  Name = 
REMARK  14 active torsions:
REMARK  status: ('A' for Active; 'I' for Inactive)
REMARK    1  A    between atoms: C_1  and  O_2
REMARK    2  A    between atoms: O_2  and  C_3
REMARK    3  A    between atoms: C_3  and  C_5
REMARK    4  A    between atoms: C_10  and  O_11
REMARK    5  A    between atoms: C_12  and  C_13
REMARK    6  A    between atoms: C_13  and  C_14
REMARK    7  A    between atoms: C_14  and  C_15
REMARK    8  A    between atoms: C_15  and  C_16
REMARK    9  A    between atoms: C_16  and  C_17
REMARK   10  A    between atoms: C_17  and  C_18
REMARK   11  A    between atoms: C_19  and  O_20
REMARK   12  A    between atoms: C_25  and  C_26
REMARK   13  A    between atoms: C_26  and  O_28
REMARK   14  A    between atoms: O_28  and  C_29
REMARK                            x       y       z     vdW  Elec       q    Type
REMARK                         _______ _______ _______ _____ _____    ______ ____
ROOT
ATOM      1  C   UNL     1       2.297   8.758  17.766  0.00  0.00    +0.000 C 
ENDROOT
BRANCH   1   2
ATOM      2  C   UNL     1       1.456   9.899  18.352  0.00  0.00    +0.000 C 
BRANCH   2   3
ATOM      3  C   UNL     1       0.295   9.407  19.225  0.00  0.00    +0.000 C 
BRANCH   3  10
ATOM      4  C   UNL     1      -0.984  11.304  20.417  0.00  0.00    +0.000 A 
ATOM      5  N   UNL     1      -2.017  12.189  20.468  0.00  0.00    +0.000 NA
ATOM      6  C   UNL     1      -2.868  12.204  19.451  0.00  0.00    +0.000 A 
ATOM      7  N   UNL     1      -3.928  13.078  19.527  0.00  0.00    +0.000 N 
ATOM      8  N   UNL     1      -2.792  11.405  18.392  0.00  0.00    +0.000 NA
ATOM      9  C   UNL     1      -1.757  10.562  18.388  0.00  0.00    +0.000 A 
ATOM     10  C   UNL     1      -0.798  10.427  19.366  0.00  0.00    +0.000 A 
ATOM     11  H   UNL     1      -4.095  13.340  20.488  0.00  0.00    +0.000 HD
ATOM     12  H   UNL     1      -4.719  12.737  18.999  0.00  0.00    +0.000 HD
BRANCH   4  13
ATOM     13  C   UNL     1      -0.066  11.342  21.611  0.00  0.00    +0.000 C 
ATOM     14  O   UNL     1       1.051  11.835  21.628  0.00  0.00    +0.000 OA
BRANCH  13  16
ATOM     15  C   UNL     1      -0.019   9.563  23.174  0.00  0.00    +0.000 C 
ATOM     16  O   UNL     1      -0.666  10.730  22.666  0.00  0.00    +0.000 OA
ENDBRANCH  13  16
ENDBRANCH   4  13
BRANCH   9  17
ATOM     17  O   UNL     1      -1.721   9.783  17.270  0.00  0.00    +0.000 OA
ATOM     18  H   UNL     1      -2.604   9.978  16.895  0.00  0.00    +0.000 HD
ENDBRANCH   9  17
ENDBRANCH   3  10
ENDBRANCH   2   3
ENDBRANCH   1   2
BRANCH   1  19
ATOM     19  C   UNL     1       2.427   7.515  18.653  0.00  0.00    +0.000 C 
BRANCH  19  20
ATOM     20  C   UNL     1       2.579   6.211  17.863  0.00  0.00    +0.000 C 
BRANCH  20  21
ATOM     21  C   UNL     1       3.979   5.673  17.955  0.00  0.00    +0.000 A 
ATOM     22  C   UNL     1       4.984   6.092  17.102  0.00  0.00    +0.000 A 
ATOM     23  N   UNL     1       6.241   5.634  17.125  0.00  0.00    +0.000 NA
ATOM     24  C   UNL     1       6.528   4.697  18.014  0.00  0.00    +0.000 A 
ATOM     25  N   UNL     1       7.820   4.226  18.048  0.00  0.00    +0.000 N 
ATOM     26  N   UNL     1       5.664   4.211  18.892  0.00  0.00    +0.000 NA
ATOM     27  C   UNL     1       4.392   4.686  18.846  0.00  0.00    +0.000 A 
ATOM     28  H   UNL     1       8.444   4.911  17.644  0.00  0.00    +0.000 HD
ATOM     29  H   UNL     1       8.043   3.874  18.968  0.00  0.00    +0.000 HD
BRANCH  22  30
ATOM     30  O   UNL     1       4.811   7.017  16.118  0.00  0.00    +0.000 OA
ATOM     31  H   UNL     1       5.232   7.864  16.325  0.00  0.00    +0.000 HD
ENDBRANCH  22  30
BRANCH  27  32
ATOM     32  C   UNL     1       3.452   4.036  19.835  0.00  0.00    +0.000 C 
ATOM     33  O   UNL     1       2.882   4.604  20.754  0.00  0.00    +0.000 OA
BRANCH  32  34
ATOM     34  O   UNL     1       3.325   2.711  19.552  0.00  0.00    +0.000 OA
ATOM     35  C   UNL     1       2.055   2.316  19.034  0.00  0.00    +0.000 C 
ENDBRANCH  32  34
ENDBRANCH  27  32
ENDBRANCH  20  21
ENDBRANCH  19  20
ENDBRANCH   1  19
TORSDOF 12
ENDMDL
MODEL 7
REMARK VINA RESULT:      -7.2      5.783      9.585
REMARK  Name = 
REMARK  14 active torsions:
REMARK  status: ('A' for Active; 'I' for Inactive)
REMARK    1  A    between atoms: C_1  and  O_2
REMARK    2  A    between atoms: O_2  and  C_3
REMARK    3  A    between atoms: C_3  and  C_5
REMARK    4  A    between atoms: C_10  and  O_11
REMARK    5  A    between atoms: C_12  and  C_13
REMARK    6  A    between atoms: C_13  and  C_14
REMARK    7  A    between atoms: C_14  and  C_15
REMARK    8  A    between atoms: C_15  and  C_16
REMARK    9  A    between atoms: C_16  and  C_17
REMARK   10  A    between atoms: C_17  and  C_18
REMARK   11  A    between atoms: C_19  and  O_20
REMARK   12  A    between atoms: C_25  and  C_26
REMARK   13  A    between atoms: C_26  and  O_28
REMARK   14  A    between atoms: O_28  and  C_29
REMARK                            x       y       z     vdW  Elec       q    Type
REMARK                         _______ _______ _______ _____ _____    ______ ____
ROOT
ATOM      1  C   UNL     1       2.075   7.665  18.081  0.00  0.00    +0.000 C 
ENDROOT
BRANCH   1   2
ATOM      2  C   UNL     1       3.492   7.934  17.555  0.00  0.00    +0.000 C 
BRANCH   2   3
ATOM      3  C   UNL     1       4.193   6.674  17.035  0.00  0.00    +0.000 C 
BRANCH   3  10
ATOM      4  C   UNL     1       5.256   5.332  18.965  0.00  0.00    +0.000 A 
ATOM      5  N   UNL     1       6.335   5.001  19.726  0.00  0.00    +0.000 NA
ATOM      6  C   UNL     1       7.497   5.570  19.432  0.00  0.00    +0.000 A 
ATOM      7  N   UNL     1       8.575   5.254  20.228  0.00  0.00    +0.000 N 
ATOM      8  N   UNL     1       7.678   6.451  18.455  0.00  0.00    +0.000 NA
ATOM      9  C   UNL     1       6.591   6.736  17.734  0.00  0.00    +0.000 A 
ATOM     10  C   UNL     1       5.324   6.232  17.919  0.00  0.00    +0.000 A 
ATOM     11  H   UNL     1       8.257   4.902  21.119  0.00  0.00    +0.000 HD
ATOM     12  H   UNL     1       9.247   6.008  20.243  0.00  0.00    +0.000 HD
BRANCH   4  13
ATOM     13  C   UNL     1       3.974   4.651  19.366  0.00  0.00    +0.000 C 
ATOM     14  O   UNL     1       3.188   5.062  20.205  0.00  0.00    +0.000 OA
BRANCH  13  16
ATOM     15  C   UNL     1       3.455   2.341  19.405  0.00  0.00    +0.000 C 
ATOM     16  O   UNL     1       3.829   3.499  18.659  0.00  0.00    +0.000 OA
ENDBRANCH  13  16
ENDBRANCH   4  13
BRANCH   9  17
ATOM     17  O   UNL     1       6.843   7.630  16.736  0.00  0.00    +0.000 OA
ATOM     18  H   UNL     1       7.418   7.087  16.159  0.00  0.00    +0.000 HD
ENDBRANCH   9  17
ENDBRANCH   3  10
ENDBRANCH   2   3
ENDBRANCH   1   2
BRANCH   1  19
ATOM     19  C   UNL     1       1.477   8.773  18.953  0.00  0.00    +0.000 C 
BRANCH  19  20
ATOM     20  C   UNL     1       1.270  10.096  18.208  0.00  0.00    +0.000 C 
BRANCH  20  21
ATOM     21  C   UNL     1      -0.022  10.754  18.605  0.00  0.00    +0.000 A 
ATOM     22  C   UNL     1      -1.204  10.518  17.927  0.00  0.00    +0.000 A 
ATOM     23  N   UNL     1      -2.377  11.089  18.223  0.00  0.00    +0.000 NA
ATOM     24  C   UNL     1      -2.392  11.959  19.221  0.00  0.00    +0.000 A 
ATOM     25  N   UNL     1      -3.597  12.546  19.535  0.00  0.00    +0.000 N 
ATOM     26  N   UNL     1      -1.336  12.272  19.954  0.00  0.00    +0.000 NA
ATOM     27  C   UNL     1      -0.155  11.684  19.632  0.00  0.00    +0.000 A 
ATOM     28  H   UNL     1      -4.356  11.966  19.204  0.00  0.00    +0.000 HD
ATOM     29  H   UNL     1      -3.609  12.826  20.505  0.00  0.00    +0.000 HD
BRANCH  22  30
ATOM     30  O   UNL     1      -1.316   9.681  16.859  0.00  0.00    +0.000 OA
ATOM     31  H   UNL     1      -1.597  10.140  16.054  0.00  0.00    +0.000 HD
ENDBRANCH  22  30
BRANCH  27  32
ATOM     32  C   UNL     1       1.015  12.142  20.472  0.00  0.00    +0.000 C 
ATOM     33  O   UNL     1       1.415  11.599  21.491  0.00  0.00    +0.000 OA
BRANCH  32  34
ATOM     34  O   UNL     1       1.570  13.258  19.926  0.00  0.00    +0.000 OA
ATOM     35  C   UNL     1       2.803  13.676  20.512  0.00  0.00    +0.000 C 
ENDBRANCH  32  34
ENDBRANCH  27  32
ENDBRANCH  20  21
ENDBRANCH  19  20
ENDBRANCH   1  19
TORSDOF 12
ENDMDL
MODEL 8
REMARK VINA RESULT:      -7.2      6.762     10.724
REMARK  Name = 
REMARK  14 active torsions:
REMARK  status: ('A' for Active; 'I' for Inactive)
REMARK    1  A    between atoms: C_1  and  O_2
REMARK    2  A    between atoms: O_2  and  C_3
REMARK    3  A    between atoms: C_3  and  C_5
REMARK    4  A    between atoms: C_10  and  O_11
REMARK    5  A    between atoms: C_12  and  C_13
REMARK    6  A    between atoms: C_13  and  C_14
REMARK    7  A    between atoms: C_14  and  C_15
REMARK    8  A    between atoms: C_15  and  C_16
REMARK    9  A    between atoms: C_16  and  C_17
REMARK   10  A    between atoms: C_17  and  C_18
REMARK   11  A    between atoms: C_19  and  O_20
REMARK   12  A    between atoms: C_25  and  C_26
REMARK   13  A    between atoms: C_26  and  O_28
REMARK   14  A    between atoms: O_28  and  C_29
REMARK                            x       y       z     vdW  Elec       q    Type
REMARK                         _______ _______ _______ _____ _____    ______ ____
ROOT
ATOM      1  C   UNL     1       2.555   8.521  17.808  0.00  0.00    +0.000 C 
ENDROOT
BRANCH   1   2
ATOM      2  C   UNL     1       2.466   7.304  18.739  0.00  0.00    +0.000 C 
BRANCH   2   3
ATOM      3  C   UNL     1       2.315   5.977  17.986  0.00  0.00    +0.000 C 
BRANCH   3  10
ATOM      4  C   UNL     1       4.461   4.604  18.389  0.00  0.00    +0.000 A 
ATOM      5  N   UNL     1       5.109   3.561  18.977  0.00  0.00    +0.000 NA
ATOM      6  C   UNL     1       4.412   2.780  19.792  0.00  0.00    +0.000 A 
ATOM      7  N   UNL     1       5.068   1.709  20.356  0.00  0.00    +0.000 N 
ATOM      8  N   UNL     1       3.121   2.935  20.063  0.00  0.00    +0.000 NA
ATOM      9  C   UNL     1       2.534   3.976  19.466  0.00  0.00    +0.000 A 
ATOM     10  C   UNL     1       3.122   4.868  18.598  0.00  0.00    +0.000 A 
ATOM     11  H   UNL     1       5.885   1.476  19.810  0.00  0.00    +0.000 HD
ATOM     12  H   UNL     1       4.424   0.960  20.565  0.00  0.00    +0.000 HD
BRANCH   4  13
ATOM     13  C   UNL     1       5.318   5.438  17.473  0.00  0.00    +0.000 C 
ATOM     14  O   UNL     1       5.963   6.419  17.808  0.00  0.00    +0.000 OA
BRANCH  13  16
ATOM     15  C   UNL     1       6.478   4.475  15.647  0.00  0.00    +0.000 C 
ATOM     16  O   UNL     1       5.252   4.941  16.210  0.00  0.00    +0.000 OA
ENDBRANCH  13  16
ENDBRANCH   4  13
BRANCH   9  17
ATOM     17  O   UNL     1       1.217   4.094  19.796  0.00  0.00    +0.000 OA
ATOM     18  H   UNL     1       0.805   3.921  18.926  0.00  0.00    +0.000 HD
ENDBRANCH   9  17
ENDBRANCH   3  10
ENDBRANCH   2   3
ENDBRANCH   1   2
BRANCH   1  19
ATOM     19  C   UNL     1       1.529   9.627  18.075  0.00  0.00    +0.000 C 
BRANCH  19  20
ATOM     20  C   UNL     1       0.659   9.372  19.310  0.00  0.00    +0.000 C 
BRANCH  20  21
ATOM     21  C   UNL     1      -0.505  10.320  19.368  0.00  0.00    +0.000 A 
ATOM     22  C   UNL     1      -1.460  10.371  18.368  0.00  0.00    +0.000 A 
ATOM     23  N   UNL     1      -2.505  11.207  18.357  0.00  0.00    +0.000 NA
ATOM     24  C   UNL     1      -2.611  12.058  19.366  0.00  0.00    +0.000 A 
ATOM     25  N   UNL     1      -3.687  12.916  19.364  0.00  0.00    +0.000 N 
ATOM     26  N   UNL     1      -1.772  12.112  20.388  0.00  0.00    +0.000 NA
ATOM     27  C   UNL     1      -0.715  11.258  20.376  0.00  0.00    +0.000 A 
ATOM     28  H   UNL     1      -4.428  12.533  18.794  0.00  0.00    +0.000 HD
ATOM     29  H   UNL     1      -3.917  13.193  20.307  0.00  0.00    +0.000 HD
BRANCH  22  30
ATOM     30  O   UNL     1      -1.444   9.583  17.259  0.00  0.00    +0.000 OA
ATOM     31  H   UNL     1      -2.300   9.164  17.087  0.00  0.00    +0.000 HD
ENDBRANCH  22  30
BRANCH  27  32
ATOM     32  C   UNL     1       0.230  11.425  21.542  0.00  0.00    +0.000 C 
ATOM     33  O   UNL     1       0.031  11.035  22.682  0.00  0.00    +0.000 OA
BRANCH  32  34
ATOM     34  O   UNL     1       1.354  12.079  21.138  0.00  0.00    +0.000 OA
ATOM     35  C   UNL     1       1.227  13.496  21.022  0.00  0.00    +0.000 C 
ENDBRANCH  32  34
ENDBRANCH  27  32
ENDBRANCH  20  21
ENDBRANCH  19  20
ENDBRANCH   1  19
TORSDOF 12
ENDMDL
MODEL 9
REMARK VINA RESULT:      -7.2      5.679     10.574
REMARK  Name = 
REMARK  14 active torsions:
REMARK  status: ('A' for Active; 'I' for Inactive)
REMARK    1  A    between atoms: C_1  and  O_2
REMARK    2  A    between atoms: O_2  and  C_3
REMARK    3  A    between atoms: C_3  and  C_5
REMARK    4  A    between atoms: C_10  and  O_11
REMARK    5  A    between atoms: C_12  and  C_13
REMARK    6  A    between atoms: C_13  and  C_14
REMARK    7  A    between atoms: C_14  and  C_15
REMARK    8  A    between atoms: C_15  and  C_16
REMARK    9  A    between atoms: C_16  and  C_17
REMARK   10  A    between atoms: C_17  and  C_18
REMARK   11  A    between atoms: C_19  and  O_20
REMARK   12  A    between atoms: C_25  and  C_26
REMARK   13  A    between atoms: C_26  and  O_28
REMARK   14  A    between atoms: O_28  and  C_29
REMARK                            x       y       z     vdW  Elec       q    Type
REMARK                         _______ _______ _______ _____ _____    ______ ____
ROOT
ATOM      1  C   UNL     1       1.941   8.077  17.908  0.00  0.00    +0.000 C 
ENDROOT
BRANCH   1   2
ATOM      2  C   UNL     1       3.156   7.151  18.055  0.00  0.00    +0.000 C 
BRANCH   2   3
ATOM      3  C   UNL     1       3.136   6.331  19.351  0.00  0.00    +0.000 C 
BRANCH   3  10
ATOM      4  C   UNL     1       4.642   4.283  18.908  0.00  0.00    +0.000 A 
ATOM      5  N   UNL     1       4.794   2.949  18.690  0.00  0.00    +0.000 NA
ATOM      6  C   UNL     1       3.704   2.193  18.692  0.00  0.00    +0.000 A 
ATOM      7  N   UNL     1       3.864   0.850  18.438  0.00  0.00    +0.000 N 
ATOM      8  N   UNL     1       2.471   2.651  18.879  0.00  0.00    +0.000 NA
ATOM      9  C   UNL     1       2.376   3.965  19.096  0.00  0.00    +0.000 A 
ATOM     10  C   UNL     1       3.410   4.873  19.119  0.00  0.00    +0.000 A 
ATOM     11  H   UNL     1       4.736   0.690  17.955  0.00  0.00    +0.000 HD
ATOM     12  H   UNL     1       3.030   0.457  18.025  0.00  0.00    +0.000 HD
BRANCH   4  13
ATOM     13  C   UNL     1       5.924   5.074  18.881  0.00  0.00    +0.000 C 
ATOM     14  O   UNL     1       6.616   5.330  19.854  0.00  0.00    +0.000 OA
BRANCH  13  16
ATOM     15  C   UNL     1       7.314   4.866  16.975  0.00  0.00    +0.000 C 
ATOM     16  O   UNL     1       6.187   5.472  17.609  0.00  0.00    +0.000 OA
ENDBRANCH  13  16
ENDBRANCH   4  13
BRANCH   9  17
ATOM     17  O   UNL     1       1.091   4.372  19.298  0.00  0.00    +0.000 OA
ATOM     18  H   UNL     1       1.126   5.262  18.893  0.00  0.00    +0.000 HD
ENDBRANCH   9  17
ENDBRANCH   3  10
ENDBRANCH   2   3
ENDBRANCH   1   2
BRANCH   1  19
ATOM     19  C   UNL     1       1.667   8.996  19.103  0.00  0.00    +0.000 C 
BRANCH  19  20
ATOM     20  C   UNL     1       0.717  10.154  18.781  0.00  0.00    +0.000 C 
BRANCH  20  21
ATOM     21  C   UNL     1       1.231  11.455  19.331  0.00  0.00    +0.000 A 
ATOM     22  C   UNL     1       2.138  12.238  18.637  0.00  0.00    +0.000 A 
ATOM     23  N   UNL     1       2.643  13.393  19.085  0.00  0.00    +0.000 NA
ATOM     24  C   UNL     1       2.262  13.795  20.288  0.00  0.00    +0.000 A 
ATOM     25  N   UNL     1       2.773  14.985  20.752  0.00  0.00    +0.000 N 
ATOM     26  N   UNL     1       1.398  13.147  21.053  0.00  0.00    +0.000 NA
ATOM     27  C   UNL     1       0.902  11.974  20.580  0.00  0.00    +0.000 A 
ATOM     28  H   UNL     1       3.075  15.554  19.973  0.00  0.00    +0.000 HD
ATOM     29  H   UNL     1       2.141  15.403  21.419  0.00  0.00    +0.000 HD
BRANCH  22  30
ATOM     30  O   UNL     1       2.641  11.917  17.414  0.00  0.00    +0.000 OA
ATOM     31  H   UNL     1       2.541  12.634  16.771  0.00  0.00    +0.000 HD
ENDBRANCH  22  30
BRANCH  27  32
ATOM     32  C   UNL     1      -0.026  11.263  21.538  0.00  0.00    +0.000 C 
ATOM     33  O   UNL     1      -1.242  11.374  21.566  0.00  0.00    +0.000 OA
BRANCH  32  34
ATOM     34  O   UNL     1       0.693  10.467  22.376  0.00  0.00    +0.000 OA
ATOM     35  C   UNL     1      -0.072   9.537  23.142  0.00  0.00    +0.000 C 
ENDBRANCH  32  34
ENDBRANCH  27  32
ENDBRANCH  20  21
ENDBRANCH  19  20
ENDBRANCH   1  19
TORSDOF 12
ENDMDL
