MODEL 1
REMARK VINA RESULT:      -7.9      0.000      0.000
REMARK  Name = 
REMARK  9 active torsions:
REMARK  status: ('A' for Active; 'I' for Inactive)
REMARK    1  A    between atoms: C_1  and  O_2
REMARK    2  A    between atoms: O_2  and  C_3
REMARK    3  A    between atoms: C_6  and  C_7
REMARK    4  A    between atoms: C_8  and  C_9
REMARK    5  A    between atoms: C_13  and  O_14
REMARK    6  A    between atoms: O_14  and  C_15
REMARK    7  A    between atoms: C_16  and  O_17
REMARK    8  A    between atoms: O_17  and  C_18
REMARK    9  A    between atoms: N_22  and  C_23
REMARK                            x       y       z     vdW  Elec       q    Type
REMARK                         _______ _______ _______ _____ _____    ______ ____
ROOT
ATOM      1  C   UNL     1       2.923   4.219  19.107  0.00  0.00    +0.000 A 
ATOM      2  C   UNL     1       3.872   3.519  18.353  0.00  0.00    +0.000 A 
ATOM      3  N   UNL     1       3.793   2.207  18.653  0.00  0.00    +0.000 NA
ATOM      4  C   UNL     1       2.834   2.115  19.591  0.00  0.00    +0.000 A 
ATOM      5  N   UNL     1       2.289   3.311  19.891  0.00  0.00    +0.000 N 
ATOM      6  C   UNL     1       1.179   3.498  20.826  0.00  0.00    +0.000 C 
ENDROOT
BRANCH   1  10
ATOM      7  C   UNL     1       1.936   8.426  18.847  0.00  0.00    +0.000 A 
ATOM      8  C   UNL     1       2.278   7.707  17.688  0.00  0.00    +0.000 A 
ATOM      9  C   UNL     1       2.597   6.350  17.761  0.00  0.00    +0.000 A 
ATOM     10  C   UNL     1       2.577   5.672  18.990  0.00  0.00    +0.000 A 
ATOM     11  C   UNL     1       2.241   6.405  20.148  0.00  0.00    +0.000 A 
ATOM     12  C   UNL     1       1.922   7.761  20.077  0.00  0.00    +0.000 A 
ATOM     13  F   UNL     1       1.607   8.428  21.215  0.00  0.00    +0.000 F 
BRANCH   7  15
ATOM     14  C   UNL     1       0.348  10.259  18.695  0.00  0.00    +0.000 C 
ATOM     15  O   UNL     1       1.623   9.747  18.815  0.00  0.00    +0.000 OA
ENDBRANCH   7  15
ENDBRANCH   1  10
BRANCH   2  16
ATOM     16  C   UNL     1       4.870   4.053  17.393  0.00  0.00    +0.000 A 
ATOM     17  C   UNL     1       4.810   3.686  16.048  0.00  0.00    +0.000 A 
ATOM     18  C   UNL     1       5.719   4.201  15.116  0.00  0.00    +0.000 A 
ATOM     19 BR   UNL     1       5.418   3.613  13.310  0.00  0.00    +0.000 Br
ATOM     20  C   UNL     1       6.746   5.096  15.547  0.00  0.00    +0.000 A 
ATOM     21  C   UNL     1       6.824   5.435  16.913  0.00  0.00    +0.000 A 
ATOM     22  C   UNL     1       5.889   4.911  17.819  0.00  0.00    +0.000 A 
BRANCH  20  23
ATOM     23  O   UNL     1       7.680   5.663  14.734  0.00  0.00    +0.000 OA
ATOM     24  C   UNL     1       7.968   5.388  13.417  0.00  0.00    +0.000 C 
ENDBRANCH  20  23
BRANCH  21  25
ATOM     25  O   UNL     1       7.815   6.275  17.324  0.00  0.00    +0.000 OA
ATOM     26  C   UNL     1       7.661   7.610  17.649  0.00  0.00    +0.000 C 
ENDBRANCH  21  25
ENDBRANCH   2  16
TORSDOF 5
ENDMDL
MODEL 2
REMARK VINA RESULT:      -7.4      1.028      1.395
REMARK  Name = 
REMARK  9 active torsions:
REMARK  status: ('A' for Active; 'I' for Inactive)
REMARK    1  A    between atoms: C_1  and  O_2
REMARK    2  A    between atoms: O_2  and  C_3
REMARK    3  A    between atoms: C_6  and  C_7
REMARK    4  A    between atoms: C_8  and  C_9
REMARK    5  A    between atoms: C_13  and  O_14
REMARK    6  A    between atoms: O_14  and  C_15
REMARK    7  A    between atoms: C_16  and  O_17
REMARK    8  A    between atoms: O_17  and  C_18
REMARK    9  A    between atoms: N_22  and  C_23
REMARK                            x       y       z     vdW  Elec       q    Type
REMARK                         _______ _______ _______ _____ _____    ______ ____
ROOT
ATOM      1  C   UNL     1       2.848   3.797  18.957  0.00  0.00    +0.000 A 
ATOM      2  C   UNL     1       3.760   3.165  18.103  0.00  0.00    +0.000 A 
ATOM      3  N   UNL     1       3.608   1.830  18.206  0.00  0.00    +0.000 NA
ATOM      4  C   UNL     1       2.642   1.652  19.126  0.00  0.00    +0.000 A 
ATOM      5  N   UNL     1       2.163   2.818  19.602  0.00  0.00    +0.000 N 
ATOM      6  C   UNL     1       1.063   2.925  20.561  0.00  0.00    +0.000 C 
ENDROOT
BRANCH   1  10
ATOM      7  C   UNL     1       2.070   8.050  19.173  0.00  0.00    +0.000 A 
ATOM      8  C   UNL     1       1.917   7.244  20.315  0.00  0.00    +0.000 A 
ATOM      9  C   UNL     1       2.166   5.872  20.256  0.00  0.00    +0.000 A 
ATOM     10  C   UNL     1       2.582   5.267  19.059  0.00  0.00    +0.000 A 
ATOM     11  C   UNL     1       2.724   6.084  17.917  0.00  0.00    +0.000 A 
ATOM     12  C   UNL     1       2.475   7.455  17.974  0.00  0.00    +0.000 A 
ATOM     13  F   UNL     1       2.623   8.203  16.852  0.00  0.00    +0.000 F 
BRANCH   7  15
ATOM     14  C   UNL     1       0.587   9.975  19.169  0.00  0.00    +0.000 C 
ATOM     15  O   UNL     1       1.834   9.387  19.191  0.00  0.00    +0.000 OA
ENDBRANCH   7  15
ENDBRANCH   1  10
BRANCH   2  16
ATOM     16  C   UNL     1       4.787   3.781  17.228  0.00  0.00    +0.000 A 
ATOM     17  C   UNL     1       4.739   3.580  15.847  0.00  0.00    +0.000 A 
ATOM     18  C   UNL     1       5.677   4.175  14.996  0.00  0.00    +0.000 A 
ATOM     19 BR   UNL     1       5.389   3.818  13.128  0.00  0.00    +0.000 Br
ATOM     20  C   UNL     1       6.722   4.981  15.545  0.00  0.00    +0.000 A 
ATOM     21  C   UNL     1       6.787   5.151  16.942  0.00  0.00    +0.000 A 
ATOM     22  C   UNL     1       5.824   4.550  17.766  0.00  0.00    +0.000 A 
BRANCH  20  23
ATOM     23  O   UNL     1       7.685   5.613  14.818  0.00  0.00    +0.000 OA
ATOM     24  C   UNL     1       7.982   5.494  13.480  0.00  0.00    +0.000 C 
ENDBRANCH  20  23
BRANCH  21  25
ATOM     25  O   UNL     1       7.795   5.905  17.464  0.00  0.00    +0.000 OA
ATOM     26  C   UNL     1       7.840   6.419  18.747  0.00  0.00    +0.000 C 
ENDBRANCH  21  25
ENDBRANCH   2  16
TORSDOF 5
ENDMDL
MODEL 3
REMARK VINA RESULT:      -7.3      2.852      6.559
REMARK  Name = 
REMARK  9 active torsions:
REMARK  status: ('A' for Active; 'I' for Inactive)
REMARK    1  A    between atoms: C_1  and  O_2
REMARK    2  A    between atoms: O_2  and  C_3
REMARK    3  A    between atoms: C_6  and  C_7
REMARK    4  A    between atoms: C_8  and  C_9
REMARK    5  A    between atoms: C_13  and  O_14
REMARK    6  A    between atoms: O_14  and  C_15
REMARK    7  A    between atoms: C_16  and  O_17
REMARK    8  A    between atoms: O_17  and  C_18
REMARK    9  A    between atoms: N_22  and  C_23
REMARK                            x       y       z     vdW  Elec       q    Type
REMARK                         _______ _______ _______ _____ _____    ______ ____
ROOT
ATOM      1  C   UNL     1       2.899   4.833  19.337  0.00  0.00    +0.000 A 
ATOM      2  C   UNL     1       1.896   5.484  20.066  0.00  0.00    +0.000 A 
ATOM      3  N   UNL     1       1.057   4.563  20.580  0.00  0.00    +0.000 NA
ATOM      4  C   UNL     1       1.523   3.377  20.149  0.00  0.00    +0.000 A 
ATOM      5  N   UNL     1       2.632   3.503  19.395  0.00  0.00    +0.000 N 
ATOM      6  C   UNL     1       3.390   2.376  18.851  0.00  0.00    +0.000 C 
ENDROOT
BRANCH   1  10
ATOM      7  C   UNL     1       6.440   6.598  17.581  0.00  0.00    +0.000 A 
ATOM      8  C   UNL     1       5.197   6.713  16.934  0.00  0.00    +0.000 A 
ATOM      9  C   UNL     1       4.049   6.148  17.492  0.00  0.00    +0.000 A 
ATOM     10  C   UNL     1       4.108   5.460  18.715  0.00  0.00    +0.000 A 
ATOM     11  C   UNL     1       5.362   5.343  19.351  0.00  0.00    +0.000 A 
ATOM     12  C   UNL     1       6.510   5.906  18.795  0.00  0.00    +0.000 A 
ATOM     13  F   UNL     1       7.695   5.769  19.439  0.00  0.00    +0.000 F 
BRANCH   7  15
ATOM     14  C   UNL     1       8.144   8.326  17.459  0.00  0.00    +0.000 C 
ATOM     15  O   UNL     1       7.578   7.131  17.067  0.00  0.00    +0.000 OA
ENDBRANCH   7  15
ENDBRANCH   1  10
BRANCH   2  16
ATOM     16  C   UNL     1       1.689   6.940  20.258  0.00  0.00    +0.000 A 
ATOM     17  C   UNL     1       1.837   7.814  19.179  0.00  0.00    +0.000 A 
ATOM     18  C   UNL     1       1.616   9.188  19.325  0.00  0.00    +0.000 A 
ATOM     19 BR   UNL     1       1.814  10.199  17.701  0.00  0.00    +0.000 Br
ATOM     20  C   UNL     1       1.260   9.717  20.604  0.00  0.00    +0.000 A 
ATOM     21  C   UNL     1       1.147   8.835  21.698  0.00  0.00    +0.000 A 
ATOM     22  C   UNL     1       1.364   7.461  21.514  0.00  0.00    +0.000 A 
BRANCH  20  23
ATOM     23  O   UNL     1       1.015  11.032  20.866  0.00  0.00    +0.000 OA
ATOM     24  C   UNL     1      -0.049  11.811  20.476  0.00  0.00    +0.000 C 
ENDBRANCH  20  23
BRANCH  21  25
ATOM     25  O   UNL     1       0.824   9.345  22.920  0.00  0.00    +0.000 OA
ATOM     26  C   UNL     1      -0.456   9.581  23.385  0.00  0.00    +0.000 C 
ENDBRANCH  21  25
ENDBRANCH   2  16
TORSDOF 5
ENDMDL
MODEL 4
REMARK VINA RESULT:      -7.3      2.771      6.538
REMARK  Name = 
REMARK  9 active torsions:
REMARK  status: ('A' for Active; 'I' for Inactive)
REMARK    1  A    between atoms: C_1  and  O_2
REMARK    2  A    between atoms: O_2  and  C_3
REMARK    3  A    between atoms: C_6  and  C_7
REMARK    4  A    between atoms: C_8  and  C_9
REMARK    5  A    between atoms: C_13  and  O_14
REMARK    6  A    between atoms: O_14  and  C_15
REMARK    7  A    between atoms: C_16  and  O_17
REMARK    8  A    between atoms: O_17  and  C_18
REMARK    9  A    between atoms: N_22  and  C_23
REMARK                            x       y       z     vdW  Elec       q    Type
REMARK                         _______ _______ _______ _____ _____    ______ ____
ROOT
ATOM      1  C   UNL     1       2.842   4.622  19.356  0.00  0.00    +0.000 A 
ATOM      2  C   UNL     1       1.830   5.291  20.055  0.00  0.00    +0.000 A 
ATOM      3  N   UNL     1       0.965   4.386  20.552  0.00  0.00    +0.000 NA
ATOM      4  C   UNL     1       1.426   3.190  20.141  0.00  0.00    +0.000 A 
ATOM      5  N   UNL     1       2.556   3.296  19.415  0.00  0.00    +0.000 N 
ATOM      6  C   UNL     1       3.311   2.154  18.898  0.00  0.00    +0.000 C 
ENDROOT
BRANCH   1  10
ATOM      7  C   UNL     1       6.362   6.415  17.586  0.00  0.00    +0.000 A 
ATOM      8  C   UNL     1       6.439   5.805  18.851  0.00  0.00    +0.000 A 
ATOM      9  C   UNL     1       5.310   5.223  19.429  0.00  0.00    +0.000 A 
ATOM     10  C   UNL     1       4.076   5.227  18.760  0.00  0.00    +0.000 A 
ATOM     11  C   UNL     1       4.007   5.851  17.497  0.00  0.00    +0.000 A 
ATOM     12  C   UNL     1       5.135   6.433  16.916  0.00  0.00    +0.000 A 
ATOM     13  F   UNL     1       5.024   7.023  15.700  0.00  0.00    +0.000 F 
BRANCH   7  15
ATOM     14  C   UNL     1       8.043   8.161  17.410  0.00  0.00    +0.000 C 
ATOM     15  O   UNL     1       7.437   6.994  16.993  0.00  0.00    +0.000 OA
ENDBRANCH   7  15
ENDBRANCH   1  10
BRANCH   2  16
ATOM     16  C   UNL     1       1.638   6.751  20.231  0.00  0.00    +0.000 A 
ATOM     17  C   UNL     1       1.854   7.618  19.159  0.00  0.00    +0.000 A 
ATOM     18  C   UNL     1       1.648   8.997  19.290  0.00  0.00    +0.000 A 
ATOM     19 BR   UNL     1       1.943   9.997  17.674  0.00  0.00    +0.000 Br
ATOM     20  C   UNL     1       1.239   9.536  20.548  0.00  0.00    +0.000 A 
ATOM     21  C   UNL     1       1.058   8.661  21.638  0.00  0.00    +0.000 A 
ATOM     22  C   UNL     1       1.261   7.282  21.469  0.00  0.00    +0.000 A 
BRANCH  20  23
ATOM     23  O   UNL     1       1.004  10.856  20.794  0.00  0.00    +0.000 OA
ATOM     24  C   UNL     1      -0.047  11.642  20.382  0.00  0.00    +0.000 C 
ENDBRANCH  20  23
BRANCH  21  25
ATOM     25  O   UNL     1       0.685   9.180  22.841  0.00  0.00    +0.000 OA
ATOM     26  C   UNL     1      -0.611   9.449  23.239  0.00  0.00    +0.000 C 
ENDBRANCH  21  25
ENDBRANCH   2  16
TORSDOF 5
ENDMDL
MODEL 5
REMARK VINA RESULT:      -7.2      2.484      6.294
REMARK  Name = 
REMARK  9 active torsions:
REMARK  status: ('A' for Active; 'I' for Inactive)
REMARK    1  A    between atoms: C_1  and  O_2
REMARK    2  A    between atoms: O_2  and  C_3
REMARK    3  A    between atoms: C_6  and  C_7
REMARK    4  A    between atoms: C_8  and  C_9
REMARK    5  A    between atoms: C_13  and  O_14
REMARK    6  A    between atoms: O_14  and  C_15
REMARK    7  A    between atoms: C_16  and  O_17
REMARK    8  A    between atoms: O_17  and  C_18
REMARK    9  A    between atoms: N_22  and  C_23
REMARK                            x       y       z     vdW  Elec       q    Type
REMARK                         _______ _______ _______ _____ _____    ______ ____
ROOT
ATOM      1  C   UNL     1       3.439   4.013  19.856  0.00  0.00    +0.000 A 
ATOM      2  C   UNL     1       2.521   4.773  20.590  0.00  0.00    +0.000 A 
ATOM      3  N   UNL     1       2.020   4.017  21.587  0.00  0.00    +0.000 NA
ATOM      4  C   UNL     1       2.601   2.812  21.446  0.00  0.00    +0.000 A 
ATOM      5  N   UNL     1       3.461   2.773  20.409  0.00  0.00    +0.000 N 
ATOM      6  C   UNL     1       4.283   1.613  20.065  0.00  0.00    +0.000 C 
ENDROOT
BRANCH   1  10
ATOM      7  C   UNL     1       6.061   5.414  16.710  0.00  0.00    +0.000 A 
ATOM      8  C   UNL     1       4.863   4.751  16.389  0.00  0.00    +0.000 A 
ATOM      9  C   UNL     1       4.010   4.297  17.396  0.00  0.00    +0.000 A 
ATOM     10  C   UNL     1       4.325   4.496  18.750  0.00  0.00    +0.000 A 
ATOM     11  C   UNL     1       5.534   5.154  19.060  0.00  0.00    +0.000 A 
ATOM     12  C   UNL     1       6.388   5.610  18.055  0.00  0.00    +0.000 A 
ATOM     13  F   UNL     1       7.541   6.236  18.398  0.00  0.00    +0.000 F 
BRANCH   7  15
ATOM     14  C   UNL     1       7.189   5.231  14.565  0.00  0.00    +0.000 C 
ATOM     15  O   UNL     1       6.916   5.868  15.758  0.00  0.00    +0.000 OA
ENDBRANCH   7  15
ENDBRANCH   1  10
BRANCH   2  16
ATOM     16  C   UNL     1       2.078   6.169  20.355  0.00  0.00    +0.000 A 
ATOM     17  C   UNL     1       2.517   6.860  19.224  0.00  0.00    +0.000 A 
ATOM     18  C   UNL     1       2.089   8.166  18.962  0.00  0.00    +0.000 A 
ATOM     19 BR   UNL     1       2.764   8.906  17.320  0.00  0.00    +0.000 Br
ATOM     20  C   UNL     1       1.211   8.822  19.879  0.00  0.00    +0.000 A 
ATOM     21  C   UNL     1       0.800   8.134  21.038  0.00  0.00    +0.000 A 
ATOM     22  C   UNL     1       1.238   6.820  21.264  0.00  0.00    +0.000 A 
BRANCH  20  23
ATOM     23  O   UNL     1       0.725  10.086  19.728  0.00  0.00    +0.000 OA
ATOM     24  C   UNL     1      -0.312  10.529  18.941  0.00  0.00    +0.000 C 
ENDBRANCH  20  23
BRANCH  21  25
ATOM     25  O   UNL     1      -0.024   8.768  21.919  0.00  0.00    +0.000 OA
ATOM     26  C   UNL     1       0.363   9.351  23.111  0.00  0.00    +0.000 C 
ENDBRANCH  21  25
ENDBRANCH   2  16
TORSDOF 5
ENDMDL
MODEL 6
REMARK VINA RESULT:      -7.2      1.398      2.210
REMARK  Name = 
REMARK  9 active torsions:
REMARK  status: ('A' for Active; 'I' for Inactive)
REMARK    1  A    between atoms: C_1  and  O_2
REMARK    2  A    between atoms: O_2  and  C_3
REMARK    3  A    between atoms: C_6  and  C_7
REMARK    4  A    between atoms: C_8  and  C_9
REMARK    5  A    between atoms: C_13  and  O_14
REMARK    6  A    between atoms: O_14  and  C_15
REMARK    7  A    between atoms: C_16  and  O_17
REMARK    8  A    between atoms: O_17  and  C_18
REMARK    9  A    between atoms: N_22  and  C_23
REMARK                            x       y       z     vdW  Elec       q    Type
REMARK                         _______ _______ _______ _____ _____    ______ ____
ROOT
ATOM      1  C   UNL     1       2.825   4.235  18.942  0.00  0.00    +0.000 A 
ATOM      2  C   UNL     1       3.804   3.570  18.194  0.00  0.00    +0.000 A 
ATOM      3  N   UNL     1       3.700   2.244  18.411  0.00  0.00    +0.000 NA
ATOM      4  C   UNL     1       2.695   2.107  19.295  0.00  0.00    +0.000 A 
ATOM      5  N   UNL     1       2.146   3.288  19.639  0.00  0.00    +0.000 N 
ATOM      6  C   UNL     1       0.994   3.432  20.529  0.00  0.00    +0.000 C 
ENDROOT
BRANCH   1  10
ATOM      7  C   UNL     1       1.892   8.462  18.885  0.00  0.00    +0.000 A 
ATOM      8  C   UNL     1       2.160   7.780  17.685  0.00  0.00    +0.000 A 
ATOM      9  C   UNL     1       2.461   6.417  17.692  0.00  0.00    +0.000 A 
ATOM     10  C   UNL     1       2.496   5.695  18.896  0.00  0.00    +0.000 A 
ATOM     11  C   UNL     1       2.234   6.391  20.095  0.00  0.00    +0.000 A 
ATOM     12  C   UNL     1       1.933   7.753  20.090  0.00  0.00    +0.000 A 
ATOM     13  F   UNL     1       1.690   8.383  21.266  0.00  0.00    +0.000 F 
BRANCH   7  15
ATOM     14  C   UNL     1       0.328  10.322  18.875  0.00  0.00    +0.000 C 
ATOM     15  O   UNL     1       1.599   9.787  18.917  0.00  0.00    +0.000 OA
ENDBRANCH   7  15
ENDBRANCH   1  10
BRANCH   2  16
ATOM     16  C   UNL     1       4.851   4.150  17.317  0.00  0.00    +0.000 A 
ATOM     17  C   UNL     1       5.628   5.218  17.770  0.00  0.00    +0.000 A 
ATOM     18  C   UNL     1       6.643   5.762  16.976  0.00  0.00    +0.000 A 
ATOM     19 BR   UNL     1       7.630   7.183  17.817  0.00  0.00    +0.000 Br
ATOM     20  C   UNL     1       6.876   5.240  15.666  0.00  0.00    +0.000 A 
ATOM     21  C   UNL     1       6.065   4.186  15.200  0.00  0.00    +0.000 A 
ATOM     22  C   UNL     1       5.063   3.655  16.027  0.00  0.00    +0.000 A 
BRANCH  20  23
ATOM     23  O   UNL     1       7.835   5.684  14.807  0.00  0.00    +0.000 OA
ATOM     24  C   UNL     1       7.922   5.522  13.443  0.00  0.00    +0.000 C 
ENDBRANCH  20  23
BRANCH  21  25
ATOM     25  O   UNL     1       6.277   3.702  13.944  0.00  0.00    +0.000 OA
ATOM     26  C   UNL     1       5.299   3.422  13.009  0.00  0.00    +0.000 C 
ENDBRANCH  21  25
ENDBRANCH   2  16
TORSDOF 5
ENDMDL
MODEL 7
REMARK VINA RESULT:      -7.1      3.336      6.482
REMARK  Name = 
REMARK  9 active torsions:
REMARK  status: ('A' for Active; 'I' for Inactive)
REMARK    1  A    between atoms: C_1  and  O_2
REMARK    2  A    between atoms: O_2  and  C_3
REMARK    3  A    between atoms: C_6  and  C_7
REMARK    4  A    between atoms: C_8  and  C_9
REMARK    5  A    between atoms: C_13  and  O_14
REMARK    6  A    between atoms: O_14  and  C_15
REMARK    7  A    between atoms: C_16  and  O_17
REMARK    8  A    between atoms: O_17  and  C_18
REMARK    9  A    between atoms: N_22  and  C_23
REMARK                            x       y       z     vdW  Elec       q    Type
REMARK                         _______ _______ _______ _____ _____    ______ ____
ROOT
ATOM      1  C   UNL     1       3.057   4.840  19.360  0.00  0.00    +0.000 A 
ATOM      2  C   UNL     1       1.973   5.460  19.994  0.00  0.00    +0.000 A 
ATOM      3  N   UNL     1       1.194   4.516  20.558  0.00  0.00    +0.000 NA
ATOM      4  C   UNL     1       1.776   3.343  20.250  0.00  0.00    +0.000 A 
ATOM      5  N   UNL     1       2.901   3.502  19.525  0.00  0.00    +0.000 N 
ATOM      6  C   UNL     1       3.774   2.403  19.109  0.00  0.00    +0.000 C 
ENDROOT
BRANCH   1  10
ATOM      7  C   UNL     1       6.506   6.748  17.570  0.00  0.00    +0.000 A 
ATOM      8  C   UNL     1       5.252   6.816  16.937  0.00  0.00    +0.000 A 
ATOM      9  C   UNL     1       4.134   6.205  17.507  0.00  0.00    +0.000 A 
ATOM     10  C   UNL     1       4.233   5.516  18.726  0.00  0.00    +0.000 A 
ATOM     11  C   UNL     1       5.498   5.446  19.348  0.00  0.00    +0.000 A 
ATOM     12  C   UNL     1       6.617   6.056  18.781  0.00  0.00    +0.000 A 
ATOM     13  F   UNL     1       7.814   5.963  19.411  0.00  0.00    +0.000 F 
BRANCH   7  15
ATOM     14  C   UNL     1       8.160   8.524  17.460  0.00  0.00    +0.000 C 
ATOM     15  O   UNL     1       7.616   7.327  17.045  0.00  0.00    +0.000 OA
ENDBRANCH   7  15
ENDBRANCH   1  10
BRANCH   2  16
ATOM     16  C   UNL     1       1.635   6.903  20.049  0.00  0.00    +0.000 A 
ATOM     17  C   UNL     1       1.113   7.454  21.221  0.00  0.00    +0.000 A 
ATOM     18  C   UNL     1       0.816   8.818  21.310  0.00  0.00    +0.000 A 
ATOM     19 BR   UNL     1       0.166   9.376  23.032  0.00  0.00    +0.000 Br
ATOM     20  C   UNL     1       1.021   9.664  20.177  0.00  0.00    +0.000 A 
ATOM     21  C   UNL     1       1.514   9.097  18.984  0.00  0.00    +0.000 A 
ATOM     22  C   UNL     1       1.813   7.727  18.933  0.00  0.00    +0.000 A 
BRANCH  20  23
ATOM     23  O   UNL     1       0.774  11.004  20.146  0.00  0.00    +0.000 OA
ATOM     24  C   UNL     1      -0.429  11.662  20.047  0.00  0.00    +0.000 C 
ENDBRANCH  20  23
BRANCH  21  25
ATOM     25  O   UNL     1       1.692   9.902  17.900  0.00  0.00    +0.000 OA
ATOM     26  C   UNL     1       2.555  10.979  17.825  0.00  0.00    +0.000 C 
ENDBRANCH  21  25
ENDBRANCH   2  16
TORSDOF 5
ENDMDL
MODEL 8
REMARK VINA RESULT:      -7.1      2.964      6.166
REMARK  Name = 
REMARK  9 active torsions:
REMARK  status: ('A' for Active; 'I' for Inactive)
REMARK    1  A    between atoms: C_1  and  O_2
REMARK    2  A    between atoms: O_2  and  C_3
REMARK    3  A    between atoms: C_6  and  C_7
REMARK    4  A    between atoms: C_8  and  C_9
REMARK    5  A    between atoms: C_13  and  O_14
REMARK    6  A    between atoms: O_14  and  C_15
REMARK    7  A    between atoms: C_16  and  O_17
REMARK    8  A    between atoms: O_17  and  C_18
REMARK    9  A    between atoms: N_22  and  C_23
REMARK                            x       y       z     vdW  Elec       q    Type
REMARK                         _______ _______ _______ _____ _____    ______ ____
ROOT
ATOM      1  C   UNL     1       3.591   3.860  19.796  0.00  0.00    +0.000 A 
ATOM      2  C   UNL     1       2.665   4.672  20.462  0.00  0.00    +0.000 A 
ATOM      3  N   UNL     1       2.133   3.981  21.490  0.00  0.00    +0.000 NA
ATOM      4  C   UNL     1       2.703   2.764  21.434  0.00  0.00    +0.000 A 
ATOM      5  N   UNL     1       3.587   2.655  20.421  0.00  0.00    +0.000 N 
ATOM      6  C   UNL     1       4.402   1.468  20.166  0.00  0.00    +0.000 C 
ENDROOT
BRANCH   1  10
ATOM      7  C   UNL     1       6.302   5.042  16.635  0.00  0.00    +0.000 A 
ATOM      8  C   UNL     1       5.071   4.437  16.322  0.00  0.00    +0.000 A 
ATOM      9  C   UNL     1       4.190   4.054  17.334  0.00  0.00    +0.000 A 
ATOM     10  C   UNL     1       4.508   4.268  18.685  0.00  0.00    +0.000 A 
ATOM     11  C   UNL     1       5.749   4.867  18.987  0.00  0.00    +0.000 A 
ATOM     12  C   UNL     1       6.632   5.252  17.977  0.00  0.00    +0.000 A 
ATOM     13  F   UNL     1       7.815   5.822  18.313  0.00  0.00    +0.000 F 
BRANCH   7  15
ATOM     14  C   UNL     1       7.213   4.950  14.383  0.00  0.00    +0.000 C 
ATOM     15  O   UNL     1       7.185   5.426  15.678  0.00  0.00    +0.000 OA
ENDBRANCH   7  15
ENDBRANCH   1  10
BRANCH   2  16
ATOM     16  C   UNL     1       2.244   6.056  20.135  0.00  0.00    +0.000 A 
ATOM     17  C   UNL     1       1.458   6.778  21.036  0.00  0.00    +0.000 A 
ATOM     18  C   UNL     1       1.075   8.096  20.767  0.00  0.00    +0.000 A 
ATOM     19 BR   UNL     1       0.048   8.923  22.167  0.00  0.00    +0.000 Br
ATOM     20  C   UNL     1       1.466   8.711  19.538  0.00  0.00    +0.000 A 
ATOM     21  C   UNL     1       2.229   7.967  18.616  0.00  0.00    +0.000 A 
ATOM     22  C   UNL     1       2.607   6.651  18.923  0.00  0.00    +0.000 A 
BRANCH  20  23
ATOM     23  O   UNL     1       1.158   9.986  19.169  0.00  0.00    +0.000 OA
ATOM     24  C   UNL     1      -0.035  10.492  18.705  0.00  0.00    +0.000 C 
ENDBRANCH  20  23
BRANCH  21  25
ATOM     25  O   UNL     1       2.586   8.550  17.438  0.00  0.00    +0.000 OA
ATOM     26  C   UNL     1       3.655   8.180  16.643  0.00  0.00    +0.000 C 
ENDBRANCH  21  25
ENDBRANCH   2  16
TORSDOF 5
ENDMDL
MODEL 9
REMARK VINA RESULT:      -7.0      3.267      6.467
REMARK  Name = 
REMARK  9 active torsions:
REMARK  status: ('A' for Active; 'I' for Inactive)
REMARK    1  A    between atoms: C_1  and  O_2
REMARK    2  A    between atoms: O_2  and  C_3
REMARK    3  A    between atoms: C_6  and  C_7
REMARK    4  A    between atoms: C_8  and  C_9
REMARK    5  A    between atoms: C_13  and  O_14
REMARK    6  A    between atoms: O_14  and  C_15
REMARK    7  A    between atoms: C_16  and  O_17
REMARK    8  A    between atoms: O_17  and  C_18
REMARK    9  A    between atoms: N_22  and  C_23
REMARK                            x       y       z     vdW  Elec       q    Type
REMARK                         _______ _______ _______ _____ _____    ______ ____
ROOT
ATOM      1  C   UNL     1       2.970   4.665  19.382  0.00  0.00    +0.000 A 
ATOM      2  C   UNL     1       1.897   5.319  19.998  0.00  0.00    +0.000 A 
ATOM      3  N   UNL     1       1.083   4.402  20.558  0.00  0.00    +0.000 NA
ATOM      4  C   UNL     1       1.636   3.211  20.264  0.00  0.00    +0.000 A 
ATOM      5  N   UNL     1       2.775   3.333  19.553  0.00  0.00    +0.000 N 
ATOM      6  C   UNL     1       3.620   2.207  19.156  0.00  0.00    +0.000 C 
ENDROOT
BRANCH   1  10
ATOM      7  C   UNL     1       6.402   6.547  17.533  0.00  0.00    +0.000 A 
ATOM      8  C   UNL     1       6.512   5.978  18.814  0.00  0.00    +0.000 A 
ATOM      9  C   UNL     1       5.412   5.368  19.419  0.00  0.00    +0.000 A 
ATOM     10  C   UNL     1       4.174   5.303  18.760  0.00  0.00    +0.000 A 
ATOM     11  C   UNL     1       4.072   5.885  17.478  0.00  0.00    +0.000 A 
ATOM     12  C   UNL     1       5.170   6.495  16.872  0.00  0.00    +0.000 A 
ATOM     13  F   UNL     1       5.028   7.043  15.641  0.00  0.00    +0.000 F 
BRANCH   7  15
ATOM     14  C   UNL     1       8.108   8.271  17.378  0.00  0.00    +0.000 C 
ATOM     15  O   UNL     1       7.449   7.151  16.915  0.00  0.00    +0.000 OA
ENDBRANCH   7  15
ENDBRANCH   1  10
BRANCH   2  16
ATOM     16  C   UNL     1       1.600   6.772  20.040  0.00  0.00    +0.000 A 
ATOM     17  C   UNL     1       1.095   7.348  21.208  0.00  0.00    +0.000 A 
ATOM     18  C   UNL     1       0.837   8.721  21.285  0.00  0.00    +0.000 A 
ATOM     19 BR   UNL     1       0.207   9.313  23.003  0.00  0.00    +0.000 Br
ATOM     20  C   UNL     1       1.064   9.550  20.143  0.00  0.00    +0.000 A 
ATOM     21  C   UNL     1       1.539   8.958  18.955  0.00  0.00    +0.000 A 
ATOM     22  C   UNL     1       1.799   7.580  18.916  0.00  0.00    +0.000 A 
BRANCH  20  23
ATOM     23  O   UNL     1       0.855  10.896  20.100  0.00  0.00    +0.000 OA
ATOM     24  C   UNL     1      -0.333  11.589  20.047  0.00  0.00    +0.000 C 
ENDBRANCH  20  23
BRANCH  21  25
ATOM     25  O   UNL     1       1.737   9.748  17.863  0.00  0.00    +0.000 OA
ATOM     26  C   UNL     1       2.544  10.869  17.812  0.00  0.00    +0.000 C 
ENDBRANCH  21  25
ENDBRANCH   2  16
TORSDOF 5
ENDMDL
