MODEL 1
REMARK VINA RESULT:      -8.1      0.000      0.000
REMARK  Name = 
REMARK  11 active torsions:
REMARK  status: ('A' for Active; 'I' for Inactive)
REMARK    1  A    between atoms: C_2  and  C_3
REMARK    2  A    between atoms: C_2  and  C_4
REMARK    3  A    between atoms: C_11  and  C_12
REMARK    4  A    between atoms: C_12  and  O_13
REMARK    5  A    between atoms: O_13  and  C_14
REMARK    6  A    between atoms: C_16  and  C_17
REMARK    7  A    between atoms: C_17  and  O_18
REMARK    8  A    between atoms: C_19  and  O_20
REMARK    9  A    between atoms: C_21  and  O_22
REMARK   10  A    between atoms: C_23  and  O_24
REMARK   11  A    between atoms: C_29  and  O_30
REMARK                            x       y       z     vdW  Elec       q    Type
REMARK                         _______ _______ _______ _____ _____    ______ ____
ROOT
ATOM      1  C   UNL     1      -1.258  12.442  22.007  0.00  0.00    +0.000 C 
ATOM      2  C   UNL     1      -0.565  12.602  20.641  0.00  0.00    +0.000 C 
ATOM      3  C   UNL     1       0.035  11.260  20.503  0.00  0.00    +0.000 A 
ATOM      4  C   UNL     1      -0.039  10.581  21.706  0.00  0.00    +0.000 A 
ATOM      5  C   UNL     1       0.502   9.316  21.874  0.00  0.00    +0.000 A 
ATOM      6  C   UNL     1       1.125   8.718  20.771  0.00  0.00    +0.000 A 
ATOM      7  O   UNL     1       1.677   7.464  20.954  0.00  0.00    +0.000 OA
ATOM      8  C   UNL     1       2.327   6.863  19.882  0.00  0.00    +0.000 A 
ATOM      9  C   UNL     1       2.424   7.416  18.662  0.00  0.00    +0.000 A 
ATOM     10  C   UNL     1       1.853   8.744  18.415  0.00  0.00    +0.000 A 
ATOM     11  O   UNL     1       1.962   9.296  17.330  0.00  0.00    +0.000 OA
ATOM     12  C   UNL     1       1.192   9.401  19.547  0.00  0.00    +0.000 A 
ATOM     13  C   UNL     1       0.660  10.690  19.412  0.00  0.00    +0.000 A 
ATOM     14  O   UNL     1      -0.661  11.300  22.695  0.00  0.00    +0.000 OA
ENDROOT
BRANCH   1  16
ATOM     15  C   UNL     1      -0.168  14.571  22.842  0.00  0.00    +0.000 C 
ATOM     16  C   UNL     1      -1.198  13.707  22.853  0.00  0.00    +0.000 C 
ATOM     17  C   UNL     1      -2.384  13.945  23.754  0.00  0.00    +0.000 C 
ENDBRANCH   1  16
BRANCH  13  18
ATOM     18  O   UNL     1       0.739  11.424  18.263  0.00  0.00    +0.000 OA
ATOM     19  H   UNL     1       0.260  12.271  18.409  0.00  0.00    +0.000 HD
ENDBRANCH  13  18
BRANCH   8  20
ATOM     20  C   UNL     1       3.073   5.589  20.195  0.00  0.00    +0.000 C 
BRANCH  20  21
ATOM     21  O   UNL     1       2.887   4.580  19.200  0.00  0.00    +0.000 OA
BRANCH  21  22
ATOM     22  C   UNL     1       4.152   4.225  18.618  0.00  0.00    +0.000 C 
ATOM     23  O   UNL     1       5.140   5.159  19.058  0.00  0.00    +0.000 OA
ATOM     24  C   UNL     1       6.456   4.848  18.606  0.00  0.00    +0.000 C 
ATOM     25  C   UNL     1       6.520   4.925  17.075  0.00  0.00    +0.000 C 
ATOM     26  C   UNL     1       5.468   3.982  16.472  0.00  0.00    +0.000 C 
ATOM     27  C   UNL     1       4.066   4.223  17.071  0.00  0.00    +0.000 C 
BRANCH  25  28
ATOM     28  O   UNL     1       7.844   4.600  16.627  0.00  0.00    +0.000 OA
ATOM     29  H   UNL     1       7.892   3.638  16.471  0.00  0.00    +0.000 HD
ENDBRANCH  25  28
BRANCH  26  30
ATOM     30  O   UNL     1       5.466   4.106  15.046  0.00  0.00    +0.000 OA
ATOM     31  H   UNL     1       4.948   4.896  14.804  0.00  0.00    +0.000 HD
ENDBRANCH  26  30
BRANCH  27  32
ATOM     32  O   UNL     1       3.154   3.222  16.591  0.00  0.00    +0.000 OA
ATOM     33  H   UNL     1       2.342   3.244  17.126  0.00  0.00    +0.000 HD
ENDBRANCH  27  32
BRANCH  24  34
ATOM     34  C   UNL     1       7.448   5.823  19.259  0.00  0.00    +0.000 C 
BRANCH  34  35
ATOM     35  O   UNL     1       8.077   5.263  20.406  0.00  0.00    +0.000 OA
ATOM     36  H   UNL     1       8.296   4.331  20.185  0.00  0.00    +0.000 HD
ENDBRANCH  34  35
ENDBRANCH  24  34
ENDBRANCH  21  22
ENDBRANCH  20  21
ENDBRANCH   8  20
TORSDOF 10
ENDMDL
MODEL 2
REMARK VINA RESULT:      -8.1      2.276      9.568
REMARK  Name = 
REMARK  11 active torsions:
REMARK  status: ('A' for Active; 'I' for Inactive)
REMARK    1  A    between atoms: C_2  and  C_3
REMARK    2  A    between atoms: C_2  and  C_4
REMARK    3  A    between atoms: C_11  and  C_12
REMARK    4  A    between atoms: C_12  and  O_13
REMARK    5  A    between atoms: O_13  and  C_14
REMARK    6  A    between atoms: C_16  and  C_17
REMARK    7  A    between atoms: C_17  and  O_18
REMARK    8  A    between atoms: C_19  and  O_20
REMARK    9  A    between atoms: C_21  and  O_22
REMARK   10  A    between atoms: C_23  and  O_24
REMARK   11  A    between atoms: C_29  and  O_30
REMARK                            x       y       z     vdW  Elec       q    Type
REMARK                         _______ _______ _______ _____ _____    ______ ____
ROOT
ATOM      1  C   UNL     1       4.992   4.837  15.544  0.00  0.00    +0.000 C 
ATOM      2  C   UNL     1       4.617   3.919  16.722  0.00  0.00    +0.000 C 
ATOM      3  C   UNL     1       3.857   4.874  17.554  0.00  0.00    +0.000 A 
ATOM      4  C   UNL     1       4.042   6.162  17.087  0.00  0.00    +0.000 A 
ATOM      5  C   UNL     1       3.487   7.263  17.719  0.00  0.00    +0.000 A 
ATOM      6  C   UNL     1       2.702   7.039  18.858  0.00  0.00    +0.000 A 
ATOM      7  O   UNL     1       2.168   8.145  19.491  0.00  0.00    +0.000 OA
ATOM      8  C   UNL     1       1.411   7.949  20.640  0.00  0.00    +0.000 A 
ATOM      9  C   UNL     1       1.138   6.740  21.159  0.00  0.00    +0.000 A 
ATOM     10  C   UNL     1       1.680   5.535  20.523  0.00  0.00    +0.000 A 
ATOM     11  O   UNL     1       1.489   4.422  20.993  0.00  0.00    +0.000 OA
ATOM     12  C   UNL     1       2.506   5.731  19.328  0.00  0.00    +0.000 A 
ATOM     13  C   UNL     1       3.100   4.638  18.684  0.00  0.00    +0.000 A 
ATOM     14  O   UNL     1       4.846   6.224  15.977  0.00  0.00    +0.000 OA
ENDROOT
BRANCH   1  16
ATOM     15  C   UNL     1       7.523   4.836  15.662  0.00  0.00    +0.000 C 
ATOM     16  C   UNL     1       6.387   4.559  14.998  0.00  0.00    +0.000 C 
ATOM     17  C   UNL     1       6.438   3.954  13.619  0.00  0.00    +0.000 C 
ENDBRANCH   1  16
BRANCH  13  18
ATOM     18  O   UNL     1       2.987   3.350  19.124  0.00  0.00    +0.000 OA
ATOM     19  H   UNL     1       2.356   2.880  18.532  0.00  0.00    +0.000 HD
ENDBRANCH  13  18
BRANCH   8  20
ATOM     20  C   UNL     1       1.020   9.198  21.392  0.00  0.00    +0.000 C 
BRANCH  20  21
ATOM     21  O   UNL     1       0.933  10.348  20.548  0.00  0.00    +0.000 OA
BRANCH  21  22
ATOM     22  C   UNL     1      -0.439  10.594  20.192  0.00  0.00    +0.000 C 
ATOM     23  O   UNL     1      -0.594  10.378  18.787  0.00  0.00    +0.000 OA
ATOM     24  C   UNL     1      -1.942  10.511  18.340  0.00  0.00    +0.000 C 
ATOM     25  C   UNL     1      -2.431  11.949  18.557  0.00  0.00    +0.000 C 
ATOM     26  C   UNL     1      -2.279  12.320  20.040  0.00  0.00    +0.000 C 
ATOM     27  C   UNL     1      -0.855  12.039  20.563  0.00  0.00    +0.000 C 
BRANCH  25  28
ATOM     28  O   UNL     1      -3.790  12.072  18.115  0.00  0.00    +0.000 OA
ATOM     29  H   UNL     1      -4.360  11.551  18.711  0.00  0.00    +0.000 HD
ENDBRANCH  25  28
BRANCH  26  30
ATOM     30  O   UNL     1      -2.658  13.687  20.239  0.00  0.00    +0.000 OA
ATOM     31  H   UNL     1      -2.508  14.174  19.408  0.00  0.00    +0.000 HD
ENDBRANCH  26  30
BRANCH  27  32
ATOM     32  O   UNL     1      -0.806  12.257  21.982  0.00  0.00    +0.000 OA
ATOM     33  H   UNL     1      -0.201  11.611  22.386  0.00  0.00    +0.000 HD
ENDBRANCH  27  32
BRANCH  24  34
ATOM     34  C   UNL     1      -2.013  10.113  16.857  0.00  0.00    +0.000 C 
BRANCH  34  35
ATOM     35  O   UNL     1      -2.244  11.233  16.010  0.00  0.00    +0.000 OA
ATOM     36  H   UNL     1      -2.371  12.012  16.595  0.00  0.00    +0.000 HD
ENDBRANCH  34  35
ENDBRANCH  24  34
ENDBRANCH  21  22
ENDBRANCH  20  21
ENDBRANCH   8  20
TORSDOF 10
ENDMDL
MODEL 3
REMARK VINA RESULT:      -7.9      2.369      9.255
REMARK  Name = 
REMARK  11 active torsions:
REMARK  status: ('A' for Active; 'I' for Inactive)
REMARK    1  A    between atoms: C_2  and  C_3
REMARK    2  A    between atoms: C_2  and  C_4
REMARK    3  A    between atoms: C_11  and  C_12
REMARK    4  A    between atoms: C_12  and  O_13
REMARK    5  A    between atoms: O_13  and  C_14
REMARK    6  A    between atoms: C_16  and  C_17
REMARK    7  A    between atoms: C_17  and  O_18
REMARK    8  A    between atoms: C_19  and  O_20
REMARK    9  A    between atoms: C_21  and  O_22
REMARK   10  A    between atoms: C_23  and  O_24
REMARK   11  A    between atoms: C_29  and  O_30
REMARK                            x       y       z     vdW  Elec       q    Type
REMARK                         _______ _______ _______ _____ _____    ______ ____
ROOT
ATOM      1  C   UNL     1       5.025   4.836  15.561  0.00  0.00    +0.000 C 
ATOM      2  C   UNL     1       4.668   3.907  16.736  0.00  0.00    +0.000 C 
ATOM      3  C   UNL     1       3.908   4.849  17.581  0.00  0.00    +0.000 A 
ATOM      4  C   UNL     1       4.077   6.142  17.121  0.00  0.00    +0.000 A 
ATOM      5  C   UNL     1       3.518   7.234  17.765  0.00  0.00    +0.000 A 
ATOM      6  C   UNL     1       2.745   6.996  18.910  0.00  0.00    +0.000 A 
ATOM      7  O   UNL     1       2.207   8.092  19.556  0.00  0.00    +0.000 OA
ATOM      8  C   UNL     1       1.462   7.882  20.710  0.00  0.00    +0.000 A 
ATOM      9  C   UNL     1       1.204   6.667  21.222  0.00  0.00    +0.000 A 
ATOM     10  C   UNL     1       1.751   5.471  20.574  0.00  0.00    +0.000 A 
ATOM     11  O   UNL     1       1.574   4.354  21.038  0.00  0.00    +0.000 OA
ATOM     12  C   UNL     1       2.564   5.683  19.372  0.00  0.00    +0.000 A 
ATOM     13  C   UNL     1       3.162   4.599  18.716  0.00  0.00    +0.000 A 
ATOM     14  O   UNL     1       4.870   6.219  16.004  0.00  0.00    +0.000 OA
ENDROOT
BRANCH   1  16
ATOM     15  C   UNL     1       6.666   4.260  13.718  0.00  0.00    +0.000 C 
ATOM     16  C   UNL     1       6.418   4.574  15.001  0.00  0.00    +0.000 C 
ATOM     17  C   UNL     1       7.547   4.667  15.996  0.00  0.00    +0.000 C 
ENDBRANCH   1  16
BRANCH  13  18
ATOM     18  O   UNL     1       3.065   3.307  19.148  0.00  0.00    +0.000 OA
ATOM     19  H   UNL     1       3.718   2.769  18.647  0.00  0.00    +0.000 HD
ENDBRANCH  13  18
BRANCH   8  20
ATOM     20  C   UNL     1       1.067   9.123  21.473  0.00  0.00    +0.000 C 
BRANCH  20  21
ATOM     21  O   UNL     1      -0.349   9.300  21.546  0.00  0.00    +0.000 OA
BRANCH  21  22
ATOM     22  C   UNL     1      -0.746  10.425  20.743  0.00  0.00    +0.000 C 
ATOM     23  O   UNL     1      -0.961   9.979  19.402  0.00  0.00    +0.000 OA
ATOM     24  C   UNL     1      -1.444  11.003  18.535  0.00  0.00    +0.000 C 
ATOM     25  C   UNL     1      -0.397  12.116  18.398  0.00  0.00    +0.000 C 
ATOM     26  C   UNL     1      -0.047  12.661  19.791  0.00  0.00    +0.000 C 
ATOM     27  C   UNL     1       0.336  11.534  20.773  0.00  0.00    +0.000 C 
BRANCH  25  28
ATOM     28  O   UNL     1      -0.894  13.148  17.534  0.00  0.00    +0.000 OA
ATOM     29  H   UNL     1      -0.147  13.509  17.019  0.00  0.00    +0.000 HD
ENDBRANCH  25  28
BRANCH  26  30
ATOM     30  O   UNL     1       0.987  13.645  19.682  0.00  0.00    +0.000 OA
ATOM     31  H   UNL     1       0.692  14.456  20.134  0.00  0.00    +0.000 HD
ENDBRANCH  26  30
BRANCH  27  32
ATOM     32  O   UNL     1       0.504  12.074  22.093  0.00  0.00    +0.000 OA
ATOM     33  H   UNL     1       0.392  11.365  22.748  0.00  0.00    +0.000 HD
ENDBRANCH  27  32
BRANCH  24  34
ATOM     34  C   UNL     1      -1.780  10.380  17.171  0.00  0.00    +0.000 C 
BRANCH  34  35
ATOM     35  O   UNL     1      -2.198  11.355  16.223  0.00  0.00    +0.000 OA
ATOM     36  H   UNL     1      -2.450  10.870  15.406  0.00  0.00    +0.000 HD
ENDBRANCH  34  35
ENDBRANCH  24  34
ENDBRANCH  21  22
ENDBRANCH  20  21
ENDBRANCH   8  20
TORSDOF 10
ENDMDL
MODEL 4
REMARK VINA RESULT:      -7.8      2.038      9.470
REMARK  Name = 
REMARK  11 active torsions:
REMARK  status: ('A' for Active; 'I' for Inactive)
REMARK    1  A    between atoms: C_2  and  C_3
REMARK    2  A    between atoms: C_2  and  C_4
REMARK    3  A    between atoms: C_11  and  C_12
REMARK    4  A    between atoms: C_12  and  O_13
REMARK    5  A    between atoms: O_13  and  C_14
REMARK    6  A    between atoms: C_16  and  C_17
REMARK    7  A    between atoms: C_17  and  O_18
REMARK    8  A    between atoms: C_19  and  O_20
REMARK    9  A    between atoms: C_21  and  O_22
REMARK   10  A    between atoms: C_23  and  O_24
REMARK   11  A    between atoms: C_29  and  O_30
REMARK                            x       y       z     vdW  Elec       q    Type
REMARK                         _______ _______ _______ _____ _____    ______ ____
ROOT
ATOM      1  C   UNL     1       5.022   4.876  15.477  0.00  0.00    +0.000 C 
ATOM      2  C   UNL     1       4.660   3.941  16.646  0.00  0.00    +0.000 C 
ATOM      3  C   UNL     1       3.902   4.882  17.496  0.00  0.00    +0.000 A 
ATOM      4  C   UNL     1       4.077   6.177  17.043  0.00  0.00    +0.000 A 
ATOM      5  C   UNL     1       3.521   7.267  17.693  0.00  0.00    +0.000 A 
ATOM      6  C   UNL     1       2.746   7.025  18.835  0.00  0.00    +0.000 A 
ATOM      7  O   UNL     1       2.211   8.120  19.487  0.00  0.00    +0.000 OA
ATOM      8  C   UNL     1       1.464   7.906  20.639  0.00  0.00    +0.000 A 
ATOM      9  C   UNL     1       1.201   6.689  21.144  0.00  0.00    +0.000 A 
ATOM     10  C   UNL     1       1.743   5.495  20.489  0.00  0.00    +0.000 A 
ATOM     11  O   UNL     1       1.561   4.376  20.946  0.00  0.00    +0.000 OA
ATOM     12  C   UNL     1       2.559   5.710  19.290  0.00  0.00    +0.000 A 
ATOM     13  C   UNL     1       3.154   4.628  18.628  0.00  0.00    +0.000 A 
ATOM     14  O   UNL     1       4.872   6.257  15.928  0.00  0.00    +0.000 OA
ENDROOT
BRANCH   1  16
ATOM     15  C   UNL     1       7.554   4.945  15.549  0.00  0.00    +0.000 C 
ATOM     16  C   UNL     1       6.415   4.611  14.918  0.00  0.00    +0.000 C 
ATOM     17  C   UNL     1       6.457   3.950  13.564  0.00  0.00    +0.000 C 
ENDBRANCH   1  16
BRANCH  13  18
ATOM     18  O   UNL     1       3.050   3.334  19.052  0.00  0.00    +0.000 OA
ATOM     19  H   UNL     1       2.520   2.838  18.388  0.00  0.00    +0.000 HD
ENDBRANCH  13  18
BRANCH   8  20
ATOM     20  C   UNL     1       1.073   9.144  21.409  0.00  0.00    +0.000 C 
BRANCH  20  21
ATOM     21  O   UNL     1      -0.198   9.663  21.013  0.00  0.00    +0.000 OA
BRANCH  21  22
ATOM     22  C   UNL     1      -0.044  10.993  20.486  0.00  0.00    +0.000 C 
ATOM     23  O   UNL     1      -0.754  11.905  21.326  0.00  0.00    +0.000 OA
ATOM     24  C   UNL     1      -0.595  13.269  20.942  0.00  0.00    +0.000 C 
ATOM     25  C   UNL     1      -1.193  13.498  19.547  0.00  0.00    +0.000 C 
ATOM     26  C   UNL     1      -0.532  12.539  18.546  0.00  0.00    +0.000 C 
ATOM     27  C   UNL     1      -0.576  11.075  19.033  0.00  0.00    +0.000 C 
BRANCH  25  28
ATOM     28  O   UNL     1      -1.020  14.869  19.163  0.00  0.00    +0.000 OA
ATOM     29  H   UNL     1      -0.338  14.913  18.466  0.00  0.00    +0.000 HD
ENDBRANCH  25  28
BRANCH  26  30
ATOM     30  O   UNL     1      -1.139  12.688  17.258  0.00  0.00    +0.000 OA
ATOM     31  H   UNL     1      -2.056  12.361  17.307  0.00  0.00    +0.000 HD
ENDBRANCH  26  30
BRANCH  27  32
ATOM     32  O   UNL     1       0.184  10.243  18.143  0.00  0.00    +0.000 OA
ATOM     33  H   UNL     1       1.114  10.233  18.426  0.00  0.00    +0.000 HD
ENDBRANCH  27  32
BRANCH  24  34
ATOM     34  C   UNL     1      -1.270  14.163  21.994  0.00  0.00    +0.000 C 
BRANCH  34  35
ATOM     35  O   UNL     1      -0.722  15.476  22.015  0.00  0.00    +0.000 OA
ATOM     36  H   UNL     1      -0.775  15.823  21.097  0.00  0.00    +0.000 HD
ENDBRANCH  34  35
ENDBRANCH  24  34
ENDBRANCH  21  22
ENDBRANCH  20  21
ENDBRANCH   8  20
TORSDOF 10
ENDMDL
MODEL 5
REMARK VINA RESULT:      -7.8      2.552      4.813
REMARK  Name = 
REMARK  11 active torsions:
REMARK  status: ('A' for Active; 'I' for Inactive)
REMARK    1  A    between atoms: C_2  and  C_3
REMARK    2  A    between atoms: C_2  and  C_4
REMARK    3  A    between atoms: C_11  and  C_12
REMARK    4  A    between atoms: C_12  and  O_13
REMARK    5  A    between atoms: O_13  and  C_14
REMARK    6  A    between atoms: C_16  and  C_17
REMARK    7  A    between atoms: C_17  and  O_18
REMARK    8  A    between atoms: C_19  and  O_20
REMARK    9  A    between atoms: C_21  and  O_22
REMARK   10  A    between atoms: C_23  and  O_24
REMARK   11  A    between atoms: C_29  and  O_30
REMARK                            x       y       z     vdW  Elec       q    Type
REMARK                         _______ _______ _______ _____ _____    ______ ____
ROOT
ATOM      1  C   UNL     1       1.247  11.043  19.064  0.00  0.00    +0.000 C 
ATOM      2  C   UNL     1       0.883   9.987  20.124  0.00  0.00    +0.000 C 
ATOM      3  C   UNL     1       1.607   8.821  19.578  0.00  0.00    +0.000 A 
ATOM      4  C   UNL     1       2.033   9.088  18.289  0.00  0.00    +0.000 A 
ATOM      5  C   UNL     1       2.691   8.143  17.519  0.00  0.00    +0.000 A 
ATOM      6  C   UNL     1       2.937   6.887  18.089  0.00  0.00    +0.000 A 
ATOM      7  O   UNL     1       3.577   5.945  17.307  0.00  0.00    +0.000 OA
ATOM      8  C   UNL     1       3.805   4.683  17.841  0.00  0.00    +0.000 A 
ATOM      9  C   UNL     1       3.467   4.329  19.093  0.00  0.00    +0.000 A 
ATOM     10  C   UNL     1       2.786   5.292  19.964  0.00  0.00    +0.000 A 
ATOM     11  O   UNL     1       2.424   4.990  21.093  0.00  0.00    +0.000 OA
ATOM     12  C   UNL     1       2.513   6.618  19.400  0.00  0.00    +0.000 A 
ATOM     13  C   UNL     1       1.827   7.583  20.148  0.00  0.00    +0.000 A 
ATOM     14  O   UNL     1       1.706  10.350  17.862  0.00  0.00    +0.000 OA
ENDROOT
BRANCH   1  16
ATOM     15  C   UNL     1       0.246  13.325  18.604  0.00  0.00    +0.000 C 
ATOM     16  C   UNL     1       0.099  11.998  18.762  0.00  0.00    +0.000 C 
ATOM     17  C   UNL     1      -1.266  11.365  18.664  0.00  0.00    +0.000 C 
ENDBRANCH   1  16
BRANCH  13  18
ATOM     18  O   UNL     1       1.347   7.363  21.407  0.00  0.00    +0.000 OA
ATOM     19  H   UNL     1       0.518   6.838  21.330  0.00  0.00    +0.000 HD
ENDBRANCH  13  18
BRANCH   8  20
ATOM     20  C   UNL     1       4.329   3.645  16.879  0.00  0.00    +0.000 C 
BRANCH  20  21
ATOM     21  O   UNL     1       5.725   3.793  16.612  0.00  0.00    +0.000 OA
BRANCH  21  22
ATOM     22  C   UNL     1       5.919   4.341  15.297  0.00  0.00    +0.000 C 
ATOM     23  O   UNL     1       5.789   3.290  14.337  0.00  0.00    +0.000 OA
ATOM     24  C   UNL     1       5.877   3.742  12.987  0.00  0.00    +0.000 C 
ATOM     25  C   UNL     1       7.269   4.329  12.717  0.00  0.00    +0.000 C 
ATOM     26  C   UNL     1       7.549   5.458  13.720  0.00  0.00    +0.000 C 
ATOM     27  C   UNL     1       7.311   5.009  15.177  0.00  0.00    +0.000 C 
BRANCH  25  28
ATOM     28  O   UNL     1       7.347   4.791  11.361  0.00  0.00    +0.000 OA
ATOM     29  H   UNL     1       6.592   4.424  10.863  0.00  0.00    +0.000 HD
ENDBRANCH  25  28
BRANCH  26  30
ATOM     30  O   UNL     1       8.877   5.959  13.528  0.00  0.00    +0.000 OA
ATOM     31  H   UNL     1       8.914   6.416  12.667  0.00  0.00    +0.000 HD
ENDBRANCH  26  30
BRANCH  27  32
ATOM     32  O   UNL     1       7.438   6.135  16.060  0.00  0.00    +0.000 OA
ATOM     33  H   UNL     1       8.032   6.792  15.660  0.00  0.00    +0.000 HD
ENDBRANCH  27  32
BRANCH  24  34
ATOM     34  C   UNL     1       5.574   2.563  12.049  0.00  0.00    +0.000 C 
BRANCH  34  35
ATOM     35  O   UNL     1       6.760   1.967  11.535  0.00  0.00    +0.000 OA
ATOM     36  H   UNL     1       6.705   2.021  10.556  0.00  0.00    +0.000 HD
ENDBRANCH  34  35
ENDBRANCH  24  34
ENDBRANCH  21  22
ENDBRANCH  20  21
ENDBRANCH   8  20
TORSDOF 10
ENDMDL
MODEL 6
REMARK VINA RESULT:      -7.8      3.297      4.737
REMARK  Name = 
REMARK  11 active torsions:
REMARK  status: ('A' for Active; 'I' for Inactive)
REMARK    1  A    between atoms: C_2  and  C_3
REMARK    2  A    between atoms: C_2  and  C_4
REMARK    3  A    between atoms: C_11  and  C_12
REMARK    4  A    between atoms: C_12  and  O_13
REMARK    5  A    between atoms: O_13  and  C_14
REMARK    6  A    between atoms: C_16  and  C_17
REMARK    7  A    between atoms: C_17  and  O_18
REMARK    8  A    between atoms: C_19  and  O_20
REMARK    9  A    between atoms: C_21  and  O_22
REMARK   10  A    between atoms: C_23  and  O_24
REMARK   11  A    between atoms: C_29  and  O_30
REMARK                            x       y       z     vdW  Elec       q    Type
REMARK                         _______ _______ _______ _____ _____    ______ ____
ROOT
ATOM      1  C   UNL     1      -5.096  12.010  17.941  0.00  0.00    +0.000 C 
ATOM      2  C   UNL     1      -4.279  12.375  19.195  0.00  0.00    +0.000 C 
ATOM      3  C   UNL     1      -3.014  11.679  18.884  0.00  0.00    +0.000 A 
ATOM      4  C   UNL     1      -3.194  10.824  17.811  0.00  0.00    +0.000 A 
ATOM      5  C   UNL     1      -2.181  10.004  17.343  0.00  0.00    +0.000 A 
ATOM      6  C   UNL     1      -0.935  10.070  17.982  0.00  0.00    +0.000 A 
ATOM      7  O   UNL     1       0.064   9.235  17.520  0.00  0.00    +0.000 OA
ATOM      8  C   UNL     1       1.298   9.262  18.157  0.00  0.00    +0.000 A 
ATOM      9  C   UNL     1       1.592  10.079  19.182  0.00  0.00    +0.000 A 
ATOM     10  C   UNL     1       0.568  10.986  19.709  0.00  0.00    +0.000 A 
ATOM     11  O   UNL     1       0.787  11.711  20.669  0.00  0.00    +0.000 OA
ATOM     12  C   UNL     1      -0.748  10.944  19.064  0.00  0.00    +0.000 A 
ATOM     13  C   UNL     1      -1.798  11.745  19.533  0.00  0.00    +0.000 A 
ATOM     14  O   UNL     1      -4.468  10.857  17.302  0.00  0.00    +0.000 OA
ENDROOT
BRANCH   1  16
ATOM     15  C   UNL     1      -7.535  12.677  18.101  0.00  0.00    +0.000 C 
ATOM     16  C   UNL     1      -6.567  11.756  18.246  0.00  0.00    +0.000 C 
ATOM     17  C   UNL     1      -6.897  10.377  18.758  0.00  0.00    +0.000 C 
ENDBRANCH   1  16
BRANCH  13  18
ATOM     18  O   UNL     1      -1.691  12.575  20.612  0.00  0.00    +0.000 OA
ATOM     19  H   UNL     1      -0.857  13.090  20.518  0.00  0.00    +0.000 HD
ENDBRANCH  13  18
BRANCH   8  20
ATOM     20  C   UNL     1       2.281   8.196  17.735  0.00  0.00    +0.000 C 
BRANCH  20  21
ATOM     21  O   UNL     1       2.664   7.339  18.813  0.00  0.00    +0.000 OA
BRANCH  21  22
ATOM     22  C   UNL     1       2.964   6.025  18.312  0.00  0.00    +0.000 C 
ATOM     23  O   UNL     1       2.191   5.068  19.040  0.00  0.00    +0.000 OA
ATOM     24  C   UNL     1       2.348   3.733  18.564  0.00  0.00    +0.000 C 
ATOM     25  C   UNL     1       3.799   3.271  18.757  0.00  0.00    +0.000 C 
ATOM     26  C   UNL     1       4.745   4.249  18.045  0.00  0.00    +0.000 C 
ATOM     27  C   UNL     1       4.476   5.714  18.453  0.00  0.00    +0.000 C 
BRANCH  25  28
ATOM     28  O   UNL     1       3.952   1.932  18.266  0.00  0.00    +0.000 OA
ATOM     29  H   UNL     1       4.784   1.879  17.759  0.00  0.00    +0.000 HD
ENDBRANCH  25  28
BRANCH  26  30
ATOM     30  O   UNL     1       6.105   3.872  18.286  0.00  0.00    +0.000 OA
ATOM     31  H   UNL     1       6.166   3.491  19.182  0.00  0.00    +0.000 HD
ENDBRANCH  26  30
BRANCH  27  32
ATOM     32  O   UNL     1       5.276   6.597  17.652  0.00  0.00    +0.000 OA
ATOM     33  H   UNL     1       5.318   6.257  16.741  0.00  0.00    +0.000 HD
ENDBRANCH  27  32
BRANCH  24  34
ATOM     34  C   UNL     1       1.365   2.821  19.312  0.00  0.00    +0.000 C 
BRANCH  34  35
ATOM     35  O   UNL     1       0.313   2.359  18.472  0.00  0.00    +0.000 OA
ATOM     36  H   UNL     1       0.365   1.377  18.463  0.00  0.00    +0.000 HD
ENDBRANCH  34  35
ENDBRANCH  24  34
ENDBRANCH  21  22
ENDBRANCH  20  21
ENDBRANCH   8  20
TORSDOF 10
ENDMDL
MODEL 7
REMARK VINA RESULT:      -7.7      2.900     10.601
REMARK  Name = 
REMARK  11 active torsions:
REMARK  status: ('A' for Active; 'I' for Inactive)
REMARK    1  A    between atoms: C_2  and  C_3
REMARK    2  A    between atoms: C_2  and  C_4
REMARK    3  A    between atoms: C_11  and  C_12
REMARK    4  A    between atoms: C_12  and  O_13
REMARK    5  A    between atoms: O_13  and  C_14
REMARK    6  A    between atoms: C_16  and  C_17
REMARK    7  A    between atoms: C_17  and  O_18
REMARK    8  A    between atoms: C_19  and  O_20
REMARK    9  A    between atoms: C_21  and  O_22
REMARK   10  A    between atoms: C_23  and  O_24
REMARK   11  A    between atoms: C_29  and  O_30
REMARK                            x       y       z     vdW  Elec       q    Type
REMARK                         _______ _______ _______ _____ _____    ______ ____
ROOT
ATOM      1  C   UNL     1       3.338   6.317  18.551  0.00  0.00    +0.000 C 
ATOM      2  C   UNL     1       2.841   7.508  17.709  0.00  0.00    +0.000 C 
ATOM      3  C   UNL     1       2.106   8.260  18.746  0.00  0.00    +0.000 A 
ATOM      4  C   UNL     1       1.950   7.481  19.878  0.00  0.00    +0.000 A 
ATOM      5  C   UNL     1       1.246   7.922  20.987  0.00  0.00    +0.000 A 
ATOM      6  C   UNL     1       0.695   9.210  20.944  0.00  0.00    +0.000 A 
ATOM      7  O   UNL     1      -0.022   9.633  22.047  0.00  0.00    +0.000 OA
ATOM      8  C   UNL     1      -0.602  10.895  22.015  0.00  0.00    +0.000 A 
ATOM      9  C   UNL     1      -0.482  11.748  20.984  0.00  0.00    +0.000 A 
ATOM     10  C   UNL     1       0.269  11.347  19.790  0.00  0.00    +0.000 A 
ATOM     11  O   UNL     1       0.361  12.080  18.816  0.00  0.00    +0.000 OA
ATOM     12  C   UNL     1       0.860  10.006  19.800  0.00  0.00    +0.000 A 
ATOM     13  C   UNL     1       1.556   9.525  18.683  0.00  0.00    +0.000 A 
ATOM     14  O   UNL     1       2.528   6.242  19.765  0.00  0.00    +0.000 OA
ENDROOT
BRANCH   1  16
ATOM     15  C   UNL     1       2.275   4.166  17.737  0.00  0.00    +0.000 C 
ATOM     16  C   UNL     1       3.326   5.003  17.781  0.00  0.00    +0.000 C 
ATOM     17  C   UNL     1       4.604   4.661  17.058  0.00  0.00    +0.000 C 
ENDBRANCH   1  16
BRANCH  13  18
ATOM     18  O   UNL     1       1.706  10.232  17.524  0.00  0.00    +0.000 OA
ATOM     19  H   UNL     1       2.382   9.776  16.974  0.00  0.00    +0.000 HD
ENDBRANCH  13  18
BRANCH   8  20
ATOM     20  C   UNL     1      -1.528  11.223  23.161  0.00  0.00    +0.000 C 
BRANCH  20  21
ATOM     21  O   UNL     1      -2.012  12.567  23.116  0.00  0.00    +0.000 OA
BRANCH  21  22
ATOM     22  C   UNL     1      -3.449  12.571  23.059  0.00  0.00    +0.000 C 
ATOM     23  O   UNL     1      -3.855  12.646  21.691  0.00  0.00    +0.000 OA
ATOM     24  C   UNL     1      -5.268  12.569  21.515  0.00  0.00    +0.000 C 
ATOM     25  C   UNL     1      -5.949  13.774  22.176  0.00  0.00    +0.000 C 
ATOM     26  C   UNL     1      -5.558  13.829  23.661  0.00  0.00    +0.000 C 
ATOM     27  C   UNL     1      -4.029  13.765  23.858  0.00  0.00    +0.000 C 
BRANCH  25  28
ATOM     28  O   UNL     1      -7.371  13.684  22.004  0.00  0.00    +0.000 OA
ATOM     29  H   UNL     1      -7.727  14.584  21.881  0.00  0.00    +0.000 HD
ENDBRANCH  25  28
BRANCH  26  30
ATOM     30  O   UNL     1      -6.124  14.995  24.269  0.00  0.00    +0.000 OA
ATOM     31  H   UNL     1      -6.770  15.384  23.651  0.00  0.00    +0.000 HD
ENDBRANCH  26  30
BRANCH  27  32
ATOM     32  O   UNL     1      -3.723  13.666  25.258  0.00  0.00    +0.000 OA
ATOM     33  H   UNL     1      -3.253  14.469  25.542  0.00  0.00    +0.000 HD
ENDBRANCH  27  32
BRANCH  24  34
ATOM     34  C   UNL     1      -5.577  12.506  20.011  0.00  0.00    +0.000 C 
BRANCH  34  35
ATOM     35  O   UNL     1      -4.535  13.071  19.224  0.00  0.00    +0.000 OA
ATOM     36  H   UNL     1      -3.734  12.521  19.373  0.00  0.00    +0.000 HD
ENDBRANCH  34  35
ENDBRANCH  24  34
ENDBRANCH  21  22
ENDBRANCH  20  21
ENDBRANCH   8  20
TORSDOF 10
ENDMDL
MODEL 8
REMARK VINA RESULT:      -7.6      2.563     10.522
REMARK  Name = 
REMARK  11 active torsions:
REMARK  status: ('A' for Active; 'I' for Inactive)
REMARK    1  A    between atoms: C_2  and  C_3
REMARK    2  A    between atoms: C_2  and  C_4
REMARK    3  A    between atoms: C_11  and  C_12
REMARK    4  A    between atoms: C_12  and  O_13
REMARK    5  A    between atoms: O_13  and  C_14
REMARK    6  A    between atoms: C_16  and  C_17
REMARK    7  A    between atoms: C_17  and  O_18
REMARK    8  A    between atoms: C_19  and  O_20
REMARK    9  A    between atoms: C_21  and  O_22
REMARK   10  A    between atoms: C_23  and  O_24
REMARK   11  A    between atoms: C_29  and  O_30
REMARK                            x       y       z     vdW  Elec       q    Type
REMARK                         _______ _______ _______ _____ _____    ______ ____
ROOT
ATOM      1  C   UNL     1       3.299   6.137  18.512  0.00  0.00    +0.000 C 
ATOM      2  C   UNL     1       2.839   7.314  17.631  0.00  0.00    +0.000 C 
ATOM      3  C   UNL     1       2.184   8.154  18.654  0.00  0.00    +0.000 A 
ATOM      4  C   UNL     1       2.027   7.439  19.827  0.00  0.00    +0.000 A 
ATOM      5  C   UNL     1       1.388   7.970  20.936  0.00  0.00    +0.000 A 
ATOM      6  C   UNL     1       0.908   9.284  20.849  0.00  0.00    +0.000 A 
ATOM      7  O   UNL     1       0.257   9.799  21.953  0.00  0.00    +0.000 OA
ATOM      8  C   UNL     1      -0.254  11.089  21.880  0.00  0.00    +0.000 A 
ATOM      9  C   UNL     1      -0.124  11.884  20.805  0.00  0.00    +0.000 A 
ATOM     10  C   UNL     1       0.560  11.386  19.608  0.00  0.00    +0.000 A 
ATOM     11  O   UNL     1       0.657  12.066  18.596  0.00  0.00    +0.000 OA
ATOM     12  C   UNL     1       1.076  10.015  19.663  0.00  0.00    +0.000 A 
ATOM     13  C   UNL     1       1.703   9.444  18.547  0.00  0.00    +0.000 A 
ATOM     14  O   UNL     1       2.530   6.165  19.755  0.00  0.00    +0.000 OA
ENDROOT
BRANCH   1  16
ATOM     15  C   UNL     1       4.197   4.203  17.144  0.00  0.00    +0.000 C 
ATOM     16  C   UNL     1       3.186   4.791  17.808  0.00  0.00    +0.000 C 
ATOM     17  C   UNL     1       1.832   4.132  17.875  0.00  0.00    +0.000 C 
ENDBRANCH   1  16
BRANCH  13  18
ATOM     18  O   UNL     1       1.850  10.087  17.352  0.00  0.00    +0.000 OA
ATOM     19  H   UNL     1       1.728   9.425  16.633  0.00  0.00    +0.000 HD
ENDBRANCH  13  18
BRANCH   8  20
ATOM     20  C   UNL     1      -1.118  11.523  23.039  0.00  0.00    +0.000 C 
BRANCH  20  21
ATOM     21  O   UNL     1      -2.490  11.686  22.676  0.00  0.00    +0.000 OA
BRANCH  21  22
ATOM     22  C   UNL     1      -2.909  13.038  22.931  0.00  0.00    +0.000 C 
ATOM     23  O   UNL     1      -2.045  13.608  23.916  0.00  0.00    +0.000 OA
ATOM     24  C   UNL     1      -2.319  14.982  24.182  0.00  0.00    +0.000 C 
ATOM     25  C   UNL     1      -3.724  15.134  24.780  0.00  0.00    +0.000 C 
ATOM     26  C   UNL     1      -4.755  14.519  23.822  0.00  0.00    +0.000 C 
ATOM     27  C   UNL     1      -4.379  13.077  23.418  0.00  0.00    +0.000 C 
BRANCH  25  28
ATOM     28  O   UNL     1      -3.996  16.520  25.035  0.00  0.00    +0.000 OA
ATOM     29  H   UNL     1      -4.181  16.631  25.987  0.00  0.00    +0.000 HD
ENDBRANCH  25  28
BRANCH  26  30
ATOM     30  O   UNL     1      -6.060  14.584  24.407  0.00  0.00    +0.000 OA
ATOM     31  H   UNL     1      -6.680  14.938  23.743  0.00  0.00    +0.000 HD
ENDBRANCH  26  30
BRANCH  27  32
ATOM     32  O   UNL     1      -5.285  12.603  22.410  0.00  0.00    +0.000 OA
ATOM     33  H   UNL     1      -5.729  13.361  21.993  0.00  0.00    +0.000 HD
ENDBRANCH  27  32
BRANCH  24  34
ATOM     34  C   UNL     1      -1.243  15.527  25.134  0.00  0.00    +0.000 C 
BRANCH  34  35
ATOM     35  O   UNL     1      -1.606  15.371  26.502  0.00  0.00    +0.000 OA
ATOM     36  H   UNL     1      -0.770  15.349  27.018  0.00  0.00    +0.000 HD
ENDBRANCH  34  35
ENDBRANCH  24  34
ENDBRANCH  21  22
ENDBRANCH  20  21
ENDBRANCH   8  20
TORSDOF 10
ENDMDL
MODEL 9
REMARK VINA RESULT:      -7.6      3.115      4.216
REMARK  Name = 
REMARK  11 active torsions:
REMARK  status: ('A' for Active; 'I' for Inactive)
REMARK    1  A    between atoms: C_2  and  C_3
REMARK    2  A    between atoms: C_2  and  C_4
REMARK    3  A    between atoms: C_11  and  C_12
REMARK    4  A    between atoms: C_12  and  O_13
REMARK    5  A    between atoms: O_13  and  C_14
REMARK    6  A    between atoms: C_16  and  C_17
REMARK    7  A    between atoms: C_17  and  O_18
REMARK    8  A    between atoms: C_19  and  O_20
REMARK    9  A    between atoms: C_21  and  O_22
REMARK   10  A    between atoms: C_23  and  O_24
REMARK   11  A    between atoms: C_29  and  O_30
REMARK                            x       y       z     vdW  Elec       q    Type
REMARK                         _______ _______ _______ _____ _____    ______ ____
ROOT
ATOM      1  C   UNL     1      -4.810  12.106  17.947  0.00  0.00    +0.000 C 
ATOM      2  C   UNL     1      -4.128  12.234  19.322  0.00  0.00    +0.000 C 
ATOM      3  C   UNL     1      -2.843  11.567  19.029  0.00  0.00    +0.000 A 
ATOM      4  C   UNL     1      -2.915  10.909  17.815  0.00  0.00    +0.000 A 
ATOM      5  C   UNL     1      -1.864  10.152  17.322  0.00  0.00    +0.000 A 
ATOM      6  C   UNL     1      -0.693  10.078  18.088  0.00  0.00    +0.000 A 
ATOM      7  O   UNL     1       0.342   9.307  17.597  0.00  0.00    +0.000 OA
ATOM      8  C   UNL     1       1.502   9.194  18.353  0.00  0.00    +0.000 A 
ATOM      9  C   UNL     1       1.693   9.821  19.526  0.00  0.00    +0.000 A 
ATOM     10  C   UNL     1       0.626  10.653  20.090  0.00  0.00    +0.000 A 
ATOM     11  O   UNL     1       0.748  11.201  21.177  0.00  0.00    +0.000 OA
ATOM     12  C   UNL     1      -0.615  10.754  19.316  0.00  0.00    +0.000 A 
ATOM     13  C   UNL     1      -1.702  11.491  19.803  0.00  0.00    +0.000 A 
ATOM     14  O   UNL     1      -4.127  11.059  17.190  0.00  0.00    +0.000 OA
ENDROOT
BRANCH   1  16
ATOM     15  C   UNL     1      -6.843  10.796  18.704  0.00  0.00    +0.000 C 
ATOM     16  C   UNL     1      -6.307  11.843  18.051  0.00  0.00    +0.000 C 
ATOM     17  C   UNL     1      -7.193  12.837  17.346  0.00  0.00    +0.000 C 
ENDBRANCH   1  16
BRANCH  13  18
ATOM     18  O   UNL     1      -1.703  12.127  21.011  0.00  0.00    +0.000 OA
ATOM     19  H   UNL     1      -0.829  11.973  21.437  0.00  0.00    +0.000 HD
ENDBRANCH  13  18
BRANCH   8  20
ATOM     20  C   UNL     1       2.515   8.189  17.861  0.00  0.00    +0.000 C 
BRANCH  20  21
ATOM     21  O   UNL     1       2.380   6.913  18.490  0.00  0.00    +0.000 OA
BRANCH  21  22
ATOM     22  C   UNL     1       3.678   6.347  18.739  0.00  0.00    +0.000 C 
ATOM     23  O   UNL     1       4.476   6.493  17.562  0.00  0.00    +0.000 OA
ATOM     24  C   UNL     1       5.818   6.041  17.728  0.00  0.00    +0.000 C 
ATOM     25  C   UNL     1       5.836   4.533  18.010  0.00  0.00    +0.000 C 
ATOM     26  C   UNL     1       4.973   4.235  19.246  0.00  0.00    +0.000 C 
ATOM     27  C   UNL     1       3.563   4.852  19.128  0.00  0.00    +0.000 C 
BRANCH  25  28
ATOM     28  O   UNL     1       7.188   4.087  18.187  0.00  0.00    +0.000 OA
ATOM     29  H   UNL     1       7.398   4.100  19.139  0.00  0.00    +0.000 HD
ENDBRANCH  25  28
BRANCH  26  30
ATOM     30  O   UNL     1       4.918   2.822  19.470  0.00  0.00    +0.000 OA
ATOM     31  H   UNL     1       4.513   2.400  18.690  0.00  0.00    +0.000 HD
ENDBRANCH  26  30
BRANCH  27  32
ATOM     32  O   UNL     1       2.851   4.679  20.363  0.00  0.00    +0.000 OA
ATOM     33  H   UNL     1       2.589   5.549  20.708  0.00  0.00    +0.000 HD
ENDBRANCH  27  32
BRANCH  24  34
ATOM     34  C   UNL     1       6.617   6.383  16.461  0.00  0.00    +0.000 C 
BRANCH  34  35
ATOM     35  O   UNL     1       7.760   7.181  16.745  0.00  0.00    +0.000 OA
ATOM     36  H   UNL     1       7.957   7.699  15.933  0.00  0.00    +0.000 HD
ENDBRANCH  34  35
ENDBRANCH  24  34
ENDBRANCH  21  22
ENDBRANCH  20  21
ENDBRANCH   8  20
TORSDOF 10
ENDMDL
