MODEL 1
REMARK VINA RESULT:      -9.1      0.000      0.000
REMARK  Name = 
REMARK  9 active torsions:
REMARK  status: ('A' for Active; 'I' for Inactive)
REMARK    1  A    between atoms: C_1  and  N_2
REMARK    2  A    between atoms: N_2  and  C_3
REMARK    3  A    between atoms: N_2  and  C_4
REMARK    4  A    between atoms: N_7  and  C_8
REMARK    5  A    between atoms: C_8  and  C_9
REMARK    6  A    between atoms: C_12  and  C_13
REMARK    7  A    between atoms: N_15  and  C_16
REMARK    8  A    between atoms: C_18  and  C_19
REMARK    9  A    between atoms: C_27  and  O_28
REMARK                            x       y       z     vdW  Elec       q    Type
REMARK                         _______ _______ _______ _____ _____    ______ ____
ROOT
ATOM      1  C   UNL     1       7.708   7.768  18.008  0.00  0.00    +0.000 C 
ATOM      2  O   UNL     1       8.199   6.876  18.697  0.00  0.00    +0.000 OA
ATOM      3  N   UNL     1       6.688   7.606  17.084  0.00  0.00    +0.000 N 
ATOM      4  H   UNL     1       6.520   8.332  16.397  0.00  0.00    +0.000 HD
ENDROOT
BRANCH   1   8
ATOM      5  C   UNL     1       9.343  11.697  18.700  0.00  0.00    +0.000 A 
ATOM      6  C   UNL     1       9.685  10.591  19.496  0.00  0.00    +0.000 A 
ATOM      7  C   UNL     1       9.184   9.321  19.215  0.00  0.00    +0.000 A 
ATOM      8  C   UNL     1       8.305   9.122  18.144  0.00  0.00    +0.000 A 
ATOM      9  C   UNL     1       7.956  10.209  17.337  0.00  0.00    +0.000 A 
ATOM     10  C   UNL     1       8.482  11.486  17.609  0.00  0.00    +0.000 A 
BRANCH   5  11
ATOM     11  C   UNL     1       9.882  13.082  19.050  0.00  0.00    +0.000 C 
BRANCH  11  15
ATOM     12  C   UNL     1      10.761  16.175  18.866  0.00  0.00    +0.000 C 
ATOM     13  C   UNL     1      11.799  15.225  18.253  0.00  0.00    +0.000 C 
ATOM     14  C   UNL     1      10.984  14.393  17.284  0.00  0.00    +0.000 C 
ATOM     15  N   UNL     1       9.728  14.113  17.995  0.00  0.00    +0.000 NA
ATOM     16  C   UNL     1       9.407  15.456  18.573  0.00  0.00    +0.000 C 
BRANCH  12  18
ATOM     17  C   UNL     1      12.332  17.766  17.750  0.00  0.00    +0.000 C 
ATOM     18  N   UNL     1      11.048  17.541  18.401  0.00  0.00    +0.000 NA
ATOM     19  C   UNL     1       9.964  18.205  17.698  0.00  0.00    +0.000 C 
ENDBRANCH  12  18
ENDBRANCH  11  15
ENDBRANCH   5  11
ENDBRANCH   1   8
BRANCH   3  20
ATOM     20  C   UNL     1       6.008   6.385  16.833  0.00  0.00    +0.000 A 
ATOM     21  C   UNL     1       4.830   6.030  17.496  0.00  0.00    +0.000 A 
ATOM     22  C   UNL     1       4.229   4.766  17.348  0.00  0.00    +0.000 A 
ATOM     23  C   UNL     1       4.789   3.892  16.404  0.00  0.00    +0.000 A 
ATOM     24  C   UNL     1       5.933   4.252  15.678  0.00  0.00    +0.000 A 
ATOM     25  C   UNL     1       6.541   5.488  15.905  0.00  0.00    +0.000 A 
BRANCH  22  26
ATOM     26  C   UNL     1       3.086   4.384  18.215  0.00  0.00    +0.000 A 
ATOM     27  C   UNL     1       2.741   5.098  19.377  0.00  0.00    +0.000 A 
ATOM     28  C   UNL     1       1.642   4.715  20.160  0.00  0.00    +0.000 A 
ATOM     29  C   UNL     1       0.871   3.611  19.804  0.00  0.00    +0.000 A 
ATOM     30  C   UNL     1       1.195   2.887  18.663  0.00  0.00    +0.000 A 
ATOM     31  C   UNL     1       2.278   3.277  17.882  0.00  0.00    +0.000 A 
ENDBRANCH  22  26
BRANCH  25  32
ATOM     32  O   UNL     1       7.691   5.829  15.242  0.00  0.00    +0.000 OA
ATOM     33  H   UNL     1       8.101   5.011  14.909  0.00  0.00    +0.000 HD
ENDBRANCH  25  32
ENDBRANCH   3  20
TORSDOF 7
ENDMDL
MODEL 2
REMARK VINA RESULT:      -8.6      0.836      1.281
REMARK  Name = 
REMARK  9 active torsions:
REMARK  status: ('A' for Active; 'I' for Inactive)
REMARK    1  A    between atoms: C_1  and  N_2
REMARK    2  A    between atoms: N_2  and  C_3
REMARK    3  A    between atoms: N_2  and  C_4
REMARK    4  A    between atoms: N_7  and  C_8
REMARK    5  A    between atoms: C_8  and  C_9
REMARK    6  A    between atoms: C_12  and  C_13
REMARK    7  A    between atoms: N_15  and  C_16
REMARK    8  A    between atoms: C_18  and  C_19
REMARK    9  A    between atoms: C_27  and  O_28
REMARK                            x       y       z     vdW  Elec       q    Type
REMARK                         _______ _______ _______ _____ _____    ______ ____
ROOT
ATOM      1  C   UNL     1       7.720   7.820  18.049  0.00  0.00    +0.000 C 
ATOM      2  O   UNL     1       8.222   6.925  18.726  0.00  0.00    +0.000 OA
ATOM      3  N   UNL     1       6.683   7.664  17.144  0.00  0.00    +0.000 N 
ATOM      4  H   UNL     1       6.504   8.392  16.461  0.00  0.00    +0.000 HD
ENDROOT
BRANCH   1   8
ATOM      5  C   UNL     1       9.381  11.741  18.723  0.00  0.00    +0.000 A 
ATOM      6  C   UNL     1       9.746  10.628  19.498  0.00  0.00    +0.000 A 
ATOM      7  C   UNL     1       9.235   9.361  19.222  0.00  0.00    +0.000 A 
ATOM      8  C   UNL     1       8.323   9.173  18.177  0.00  0.00    +0.000 A 
ATOM      9  C   UNL     1       7.951  10.267  17.391  0.00  0.00    +0.000 A 
ATOM     10  C   UNL     1       8.487  11.541  17.658  0.00  0.00    +0.000 A 
BRANCH   5  11
ATOM     11  C   UNL     1       9.933  13.123  19.068  0.00  0.00    +0.000 C 
BRANCH  11  15
ATOM     12  C   UNL     1       9.844  16.223  19.938  0.00  0.00    +0.000 C 
ATOM     13  C   UNL     1      10.743  15.973  18.719  0.00  0.00    +0.000 C 
ATOM     14  C   UNL     1       9.842  15.210  17.769  0.00  0.00    +0.000 C 
ATOM     15  N   UNL     1       9.104  14.271  18.627  0.00  0.00    +0.000 NA
ATOM     16  C   UNL     1       8.720  15.153  19.773  0.00  0.00    +0.000 C 
BRANCH  12  18
ATOM     17  C   UNL     1      10.550  18.571  19.453  0.00  0.00    +0.000 C 
ATOM     18  N   UNL     1       9.559  17.664  20.018  0.00  0.00    +0.000 NA
ATOM     19  C   UNL     1       8.206  18.056  19.664  0.00  0.00    +0.000 C 
ENDBRANCH  12  18
ENDBRANCH  11  15
ENDBRANCH   5  11
ENDBRANCH   1   8
BRANCH   3  20
ATOM     20  C   UNL     1       5.995   6.445  16.901  0.00  0.00    +0.000 A 
ATOM     21  C   UNL     1       4.814   6.103  17.566  0.00  0.00    +0.000 A 
ATOM     22  C   UNL     1       4.205   4.842  17.427  0.00  0.00    +0.000 A 
ATOM     23  C   UNL     1       4.761   3.957  16.491  0.00  0.00    +0.000 A 
ATOM     24  C   UNL     1       5.908   4.303  15.764  0.00  0.00    +0.000 A 
ATOM     25  C   UNL     1       6.524   5.537  15.981  0.00  0.00    +0.000 A 
BRANCH  22  26
ATOM     26  C   UNL     1       3.058   4.475  18.295  0.00  0.00    +0.000 A 
ATOM     27  C   UNL     1       2.134   3.473  17.949  0.00  0.00    +0.000 A 
ATOM     28  C   UNL     1       1.072   3.144  18.805  0.00  0.00    +0.000 A 
ATOM     29  C   UNL     1       0.910   3.810  20.018  0.00  0.00    +0.000 A 
ATOM     30  C   UNL     1       1.808   4.806  20.379  0.00  0.00    +0.000 A 
ATOM     31  C   UNL     1       2.866   5.122  19.534  0.00  0.00    +0.000 A 
ENDBRANCH  22  26
BRANCH  25  32
ATOM     32  O   UNL     1       7.677   5.865  15.317  0.00  0.00    +0.000 OA
ATOM     33  H   UNL     1       7.507   5.791  14.362  0.00  0.00    +0.000 HD
ENDBRANCH  25  32
ENDBRANCH   3  20
TORSDOF 7
ENDMDL
MODEL 3
REMARK VINA RESULT:      -8.6      1.887      2.631
REMARK  Name = 
REMARK  9 active torsions:
REMARK  status: ('A' for Active; 'I' for Inactive)
REMARK    1  A    between atoms: C_1  and  N_2
REMARK    2  A    between atoms: N_2  and  C_3
REMARK    3  A    between atoms: N_2  and  C_4
REMARK    4  A    between atoms: N_7  and  C_8
REMARK    5  A    between atoms: C_8  and  C_9
REMARK    6  A    between atoms: C_12  and  C_13
REMARK    7  A    between atoms: N_15  and  C_16
REMARK    8  A    between atoms: C_18  and  C_19
REMARK    9  A    between atoms: C_27  and  O_28
REMARK                            x       y       z     vdW  Elec       q    Type
REMARK                         _______ _______ _______ _____ _____    ______ ____
ROOT
ATOM      1  C   UNL     1       7.730   7.884  18.047  0.00  0.00    +0.000 C 
ATOM      2  O   UNL     1       8.229   7.006  18.746  0.00  0.00    +0.000 OA
ATOM      3  N   UNL     1       6.701   7.704  17.136  0.00  0.00    +0.000 N 
ATOM      4  H   UNL     1       6.524   8.417  16.437  0.00  0.00    +0.000 HD
ENDROOT
BRANCH   1   8
ATOM      5  C   UNL     1       9.381  11.820  18.658  0.00  0.00    +0.000 A 
ATOM      6  C   UNL     1       9.791  10.708  19.413  0.00  0.00    +0.000 A 
ATOM      7  C   UNL     1       9.281   9.437  19.156  0.00  0.00    +0.000 A 
ATOM      8  C   UNL     1       8.324   9.242  18.152  0.00  0.00    +0.000 A 
ATOM      9  C   UNL     1       7.907  10.335  17.387  0.00  0.00    +0.000 A 
ATOM     10  C   UNL     1       8.442  11.613  17.634  0.00  0.00    +0.000 A 
BRANCH   5  11
ATOM     11  C   UNL     1       9.934  13.205  18.982  0.00  0.00    +0.000 C 
BRANCH  11  15
ATOM     12  C   UNL     1       9.492  14.308  21.977  0.00  0.00    +0.000 C 
ATOM     13  C   UNL     1      10.388  15.225  21.132  0.00  0.00    +0.000 C 
ATOM     14  C   UNL     1       9.566  15.465  19.883  0.00  0.00    +0.000 C 
ATOM     15  N   UNL     1       8.964  14.159  19.573  0.00  0.00    +0.000 NA
ATOM     16  C   UNL     1       8.501  13.717  20.926  0.00  0.00    +0.000 C 
BRANCH  12  18
ATOM     17  C   UNL     1       8.342  14.312  24.195  0.00  0.00    +0.000 C 
ATOM     18  N   UNL     1       9.037  15.060  23.156  0.00  0.00    +0.000 NA
ATOM     19  C   UNL     1      10.002  15.991  23.716  0.00  0.00    +0.000 C 
ENDBRANCH  12  18
ENDBRANCH  11  15
ENDBRANCH   5  11
ENDBRANCH   1   8
BRANCH   3  20
ATOM     20  C   UNL     1       6.021   6.477  16.913  0.00  0.00    +0.000 A 
ATOM     21  C   UNL     1       4.840   6.139  17.579  0.00  0.00    +0.000 A 
ATOM     22  C   UNL     1       4.239   4.873  17.461  0.00  0.00    +0.000 A 
ATOM     23  C   UNL     1       4.804   3.974  16.543  0.00  0.00    +0.000 A 
ATOM     24  C   UNL     1       5.952   4.314  15.814  0.00  0.00    +0.000 A 
ATOM     25  C   UNL     1       6.559   5.556  16.012  0.00  0.00    +0.000 A 
BRANCH  22  26
ATOM     26  C   UNL     1       3.090   4.514  18.331  0.00  0.00    +0.000 A 
ATOM     27  C   UNL     1       2.189   3.483  18.012  0.00  0.00    +0.000 A 
ATOM     28  C   UNL     1       1.126   3.163  18.870  0.00  0.00    +0.000 A 
ATOM     29  C   UNL     1       0.938   3.869  20.056  0.00  0.00    +0.000 A 
ATOM     30  C   UNL     1       1.813   4.896  20.390  0.00  0.00    +0.000 A 
ATOM     31  C   UNL     1       2.873   5.202  19.543  0.00  0.00    +0.000 A 
ENDBRANCH  22  26
BRANCH  25  32
ATOM     32  O   UNL     1       7.714   5.878  15.346  0.00  0.00    +0.000 OA
ATOM     33  H   UNL     1       8.463   5.704  15.941  0.00  0.00    +0.000 HD
ENDBRANCH  25  32
ENDBRANCH   3  20
TORSDOF 7
ENDMDL
MODEL 4
REMARK VINA RESULT:      -8.5      0.801      1.681
REMARK  Name = 
REMARK  9 active torsions:
REMARK  status: ('A' for Active; 'I' for Inactive)
REMARK    1  A    between atoms: C_1  and  N_2
REMARK    2  A    between atoms: N_2  and  C_3
REMARK    3  A    between atoms: N_2  and  C_4
REMARK    4  A    between atoms: N_7  and  C_8
REMARK    5  A    between atoms: C_8  and  C_9
REMARK    6  A    between atoms: C_12  and  C_13
REMARK    7  A    between atoms: N_15  and  C_16
REMARK    8  A    between atoms: C_18  and  C_19
REMARK    9  A    between atoms: C_27  and  O_28
REMARK                            x       y       z     vdW  Elec       q    Type
REMARK                         _______ _______ _______ _____ _____    ______ ____
ROOT
ATOM      1  C   UNL     1       7.706   7.811  18.090  0.00  0.00    +0.000 C 
ATOM      2  O   UNL     1       8.241   6.918  18.743  0.00  0.00    +0.000 OA
ATOM      3  N   UNL     1       6.662   7.642  17.194  0.00  0.00    +0.000 N 
ATOM      4  H   UNL     1       6.454   8.378  16.528  0.00  0.00    +0.000 HD
ENDROOT
BRANCH   1   8
ATOM      5  C   UNL     1       9.393  11.777  18.208  0.00  0.00    +0.000 A 
ATOM      6  C   UNL     1       8.310  11.446  17.376  0.00  0.00    +0.000 A 
ATOM      7  C   UNL     1       7.749  10.171  17.400  0.00  0.00    +0.000 A 
ATOM      8  C   UNL     1       8.270   9.178  18.237  0.00  0.00    +0.000 A 
ATOM      9  C   UNL     1       9.345   9.488  19.075  0.00  0.00    +0.000 A 
ATOM     10  C   UNL     1       9.894  10.784  19.066  0.00  0.00    +0.000 A 
BRANCH   5  11
ATOM     11  C   UNL     1      10.008  13.172  18.138  0.00  0.00    +0.000 C 
BRANCH  11  15
ATOM     12  C   UNL     1      10.353  16.351  18.532  0.00  0.00    +0.000 C 
ATOM     13  C   UNL     1       9.011  15.974  17.889  0.00  0.00    +0.000 C 
ATOM     14  C   UNL     1       8.445  14.939  18.839  0.00  0.00    +0.000 C 
ATOM     15  N   UNL     1       9.598  14.106  19.215  0.00  0.00    +0.000 NA
ATOM     16  C   UNL     1      10.642  15.145  19.479  0.00  0.00    +0.000 C 
BRANCH  12  18
ATOM     17  C   UNL     1       9.348  18.629  18.320  0.00  0.00    +0.000 C 
ATOM     18  N   UNL     1      10.263  17.736  19.019  0.00  0.00    +0.000 NA
ATOM     19  C   UNL     1      10.167  17.888  20.461  0.00  0.00    +0.000 C 
ENDBRANCH  12  18
ENDBRANCH  11  15
ENDBRANCH   5  11
ENDBRANCH   1   8
BRANCH   3  20
ATOM     20  C   UNL     1       6.007   6.408  16.935  0.00  0.00    +0.000 A 
ATOM     21  C   UNL     1       4.831   6.030  17.588  0.00  0.00    +0.000 A 
ATOM     22  C   UNL     1       4.255   4.756  17.434  0.00  0.00    +0.000 A 
ATOM     23  C   UNL     1       4.840   3.893  16.494  0.00  0.00    +0.000 A 
ATOM     24  C   UNL     1       5.983   4.274  15.779  0.00  0.00    +0.000 A 
ATOM     25  C   UNL     1       6.565   5.522  16.012  0.00  0.00    +0.000 A 
BRANCH  22  26
ATOM     26  C   UNL     1       3.111   4.351  18.291  0.00  0.00    +0.000 A 
ATOM     27  C   UNL     1       2.051   3.559  17.817  0.00  0.00    +0.000 A 
ATOM     28  C   UNL     1       0.997   3.184  18.664  0.00  0.00    +0.000 A 
ATOM     29  C   UNL     1       0.977   3.596  19.994  0.00  0.00    +0.000 A 
ATOM     30  C   UNL     1       2.012   4.384  20.483  0.00  0.00    +0.000 A 
ATOM     31  C   UNL     1       3.062   4.744  19.644  0.00  0.00    +0.000 A 
ENDBRANCH  22  26
BRANCH  25  32
ATOM     32  O   UNL     1       7.715   5.885  15.359  0.00  0.00    +0.000 OA
ATOM     33  H   UNL     1       8.459   5.417  15.776  0.00  0.00    +0.000 HD
ENDBRANCH  25  32
ENDBRANCH   3  20
TORSDOF 7
ENDMDL
MODEL 5
REMARK VINA RESULT:      -8.4      1.289      1.493
REMARK  Name = 
REMARK  9 active torsions:
REMARK  status: ('A' for Active; 'I' for Inactive)
REMARK    1  A    between atoms: C_1  and  N_2
REMARK    2  A    between atoms: N_2  and  C_3
REMARK    3  A    between atoms: N_2  and  C_4
REMARK    4  A    between atoms: N_7  and  C_8
REMARK    5  A    between atoms: C_8  and  C_9
REMARK    6  A    between atoms: C_12  and  C_13
REMARK    7  A    between atoms: N_15  and  C_16
REMARK    8  A    between atoms: C_18  and  C_19
REMARK    9  A    between atoms: C_27  and  O_28
REMARK                            x       y       z     vdW  Elec       q    Type
REMARK                         _______ _______ _______ _____ _____    ______ ____
ROOT
ATOM      1  C   UNL     1       7.764   7.871  18.043  0.00  0.00    +0.000 C 
ATOM      2  O   UNL     1       8.288   6.990  18.721  0.00  0.00    +0.000 OA
ATOM      3  N   UNL     1       6.716   7.691  17.154  0.00  0.00    +0.000 N 
ATOM      4  H   UNL     1       6.517   8.411  16.468  0.00  0.00    +0.000 HD
ENDROOT
BRANCH   1   8
ATOM      5  C   UNL     1       9.370  11.824  18.660  0.00  0.00    +0.000 A 
ATOM      6  C   UNL     1       9.755  10.726  19.447  0.00  0.00    +0.000 A 
ATOM      7  C   UNL     1       9.261   9.449  19.190  0.00  0.00    +0.000 A 
ATOM      8  C   UNL     1       8.347   9.234  18.152  0.00  0.00    +0.000 A 
ATOM      9  C   UNL     1       7.956  10.312  17.353  0.00  0.00    +0.000 A 
ATOM     10  C   UNL     1       8.474  11.597  17.601  0.00  0.00    +0.000 A 
BRANCH   5  11
ATOM     11  C   UNL     1       9.903  13.218  18.984  0.00  0.00    +0.000 C 
BRANCH  11  15
ATOM     12  C   UNL     1       9.755  16.300  19.906  0.00  0.00    +0.000 C 
ATOM     13  C   UNL     1       8.550  15.876  19.055  0.00  0.00    +0.000 C 
ATOM     14  C   UNL     1       8.045  14.632  19.758  0.00  0.00    +0.000 C 
ATOM     15  N   UNL     1       9.261  13.896  20.136  0.00  0.00    +0.000 NA
ATOM     16  C   UNL     1      10.117  14.995  20.682  0.00  0.00    +0.000 C 
BRANCH  12  18
ATOM     17  C   UNL     1      10.533  18.423  20.973  0.00  0.00    +0.000 C 
ATOM     18  N   UNL     1       9.422  17.560  20.589  0.00  0.00    +0.000 NA
ATOM     19  C   UNL     1       8.327  18.317  20.010  0.00  0.00    +0.000 C 
ENDBRANCH  12  18
ENDBRANCH  11  15
ENDBRANCH   5  11
ENDBRANCH   1   8
BRANCH   3  20
ATOM     20  C   UNL     1       6.044   6.460  16.931  0.00  0.00    +0.000 A 
ATOM     21  C   UNL     1       4.872   6.110  17.608  0.00  0.00    +0.000 A 
ATOM     22  C   UNL     1       4.279   4.840  17.489  0.00  0.00    +0.000 A 
ATOM     23  C   UNL     1       4.842   3.949  16.561  0.00  0.00    +0.000 A 
ATOM     24  C   UNL     1       5.980   4.302  15.823  0.00  0.00    +0.000 A 
ATOM     25  C   UNL     1       6.580   5.547  16.021  0.00  0.00    +0.000 A 
BRANCH  22  26
ATOM     26  C   UNL     1       3.142   4.468  18.369  0.00  0.00    +0.000 A 
ATOM     27  C   UNL     1       2.990   4.980  19.670  0.00  0.00    +0.000 A 
ATOM     28  C   UNL     1       1.891   4.617  20.464  0.00  0.00    +0.000 A 
ATOM     29  C   UNL     1       0.930   3.734  19.978  0.00  0.00    +0.000 A 
ATOM     30  C   UNL     1       1.062   3.211  18.698  0.00  0.00    +0.000 A 
ATOM     31  C   UNL     1       2.146   3.583  17.909  0.00  0.00    +0.000 A 
ENDBRANCH  22  26
BRANCH  25  32
ATOM     32  O   UNL     1       7.725   5.882  15.345  0.00  0.00    +0.000 OA
ATOM     33  H   UNL     1       7.482   6.100  14.429  0.00  0.00    +0.000 HD
ENDBRANCH  25  32
ENDBRANCH   3  20
TORSDOF 7
ENDMDL
MODEL 6
REMARK VINA RESULT:      -8.4      1.498      2.144
REMARK  Name = 
REMARK  9 active torsions:
REMARK  status: ('A' for Active; 'I' for Inactive)
REMARK    1  A    between atoms: C_1  and  N_2
REMARK    2  A    between atoms: N_2  and  C_3
REMARK    3  A    between atoms: N_2  and  C_4
REMARK    4  A    between atoms: N_7  and  C_8
REMARK    5  A    between atoms: C_8  and  C_9
REMARK    6  A    between atoms: C_12  and  C_13
REMARK    7  A    between atoms: N_15  and  C_16
REMARK    8  A    between atoms: C_18  and  C_19
REMARK    9  A    between atoms: C_27  and  O_28
REMARK                            x       y       z     vdW  Elec       q    Type
REMARK                         _______ _______ _______ _____ _____    ______ ____
ROOT
ATOM      1  C   UNL     1       7.717   7.823  18.089  0.00  0.00    +0.000 C 
ATOM      2  O   UNL     1       8.251   6.923  18.733  0.00  0.00    +0.000 OA
ATOM      3  N   UNL     1       6.671   7.664  17.193  0.00  0.00    +0.000 N 
ATOM      4  H   UNL     1       6.464   8.406  16.534  0.00  0.00    +0.000 HD
ENDROOT
BRANCH   1   8
ATOM      5  C   UNL     1       9.415  11.783  18.238  0.00  0.00    +0.000 A 
ATOM      6  C   UNL     1       8.330  11.463  17.406  0.00  0.00    +0.000 A 
ATOM      7  C   UNL     1       7.765  10.188  17.419  0.00  0.00    +0.000 A 
ATOM      8  C   UNL     1       8.285   9.187  18.247  0.00  0.00    +0.000 A 
ATOM      9  C   UNL     1       9.362   9.487  19.087  0.00  0.00    +0.000 A 
ATOM     10  C   UNL     1       9.914  10.781  19.088  0.00  0.00    +0.000 A 
BRANCH   5  11
ATOM     11  C   UNL     1      10.033  13.177  18.180  0.00  0.00    +0.000 C 
BRANCH  11  15
ATOM     12  C   UNL     1       9.847  14.244  21.214  0.00  0.00    +0.000 C 
ATOM     13  C   UNL     1      10.857  15.032  20.368  0.00  0.00    +0.000 C 
ATOM     14  C   UNL     1      10.052  15.439  19.150  0.00  0.00    +0.000 C 
ATOM     15  N   UNL     1       9.243  14.255  18.824  0.00  0.00    +0.000 NA
ATOM     16  C   UNL     1       8.749  13.850  20.178  0.00  0.00    +0.000 C 
BRANCH  12  18
ATOM     17  C   UNL     1      10.539  16.004  22.848  0.00  0.00    +0.000 C 
ATOM     18  N   UNL     1       9.548  15.023  22.426  0.00  0.00    +0.000 NA
ATOM     19  C   UNL     1       8.197  15.549  22.516  0.00  0.00    +0.000 C 
ENDBRANCH  12  18
ENDBRANCH  11  15
ENDBRANCH   5  11
ENDBRANCH   1   8
BRANCH   3  20
ATOM     20  C   UNL     1       6.013   6.435  16.925  0.00  0.00    +0.000 A 
ATOM     21  C   UNL     1       4.831   6.058  17.570  0.00  0.00    +0.000 A 
ATOM     22  C   UNL     1       4.251   4.787  17.406  0.00  0.00    +0.000 A 
ATOM     23  C   UNL     1       4.837   3.926  16.465  0.00  0.00    +0.000 A 
ATOM     24  C   UNL     1       5.985   4.307  15.757  0.00  0.00    +0.000 A 
ATOM     25  C   UNL     1       6.572   5.551  15.999  0.00  0.00    +0.000 A 
BRANCH  22  26
ATOM     26  C   UNL     1       3.102   4.383  18.255  0.00  0.00    +0.000 A 
ATOM     27  C   UNL     1       2.835   4.973  19.503  0.00  0.00    +0.000 A 
ATOM     28  C   UNL     1       1.727   4.574  20.268  0.00  0.00    +0.000 A 
ATOM     29  C   UNL     1       0.871   3.578  19.805  0.00  0.00    +0.000 A 
ATOM     30  C   UNL     1       1.117   2.977  18.577  0.00  0.00    +0.000 A 
ATOM     31  C   UNL     1       2.209   3.383  17.816  0.00  0.00    +0.000 A 
ENDBRANCH  22  26
BRANCH  25  32
ATOM     32  O   UNL     1       7.726   5.912  15.354  0.00  0.00    +0.000 OA
ATOM     33  H   UNL     1       7.874   6.861  15.508  0.00  0.00    +0.000 HD
ENDBRANCH  25  32
ENDBRANCH   3  20
TORSDOF 7
ENDMDL
MODEL 7
REMARK VINA RESULT:      -8.3      1.166      1.988
REMARK  Name = 
REMARK  9 active torsions:
REMARK  status: ('A' for Active; 'I' for Inactive)
REMARK    1  A    between atoms: C_1  and  N_2
REMARK    2  A    between atoms: N_2  and  C_3
REMARK    3  A    between atoms: N_2  and  C_4
REMARK    4  A    between atoms: N_7  and  C_8
REMARK    5  A    between atoms: C_8  and  C_9
REMARK    6  A    between atoms: C_12  and  C_13
REMARK    7  A    between atoms: N_15  and  C_16
REMARK    8  A    between atoms: C_18  and  C_19
REMARK    9  A    between atoms: C_27  and  O_28
REMARK                            x       y       z     vdW  Elec       q    Type
REMARK                         _______ _______ _______ _____ _____    ______ ____
ROOT
ATOM      1  C   UNL     1       7.678   7.654  18.094  0.00  0.00    +0.000 C 
ATOM      2  O   UNL     1       8.206   6.731  18.710  0.00  0.00    +0.000 OA
ATOM      3  N   UNL     1       6.645   7.528  17.179  0.00  0.00    +0.000 N 
ATOM      4  H   UNL     1       6.444   8.294  16.546  0.00  0.00    +0.000 HD
ENDROOT
BRANCH   1   8
ATOM      5  C   UNL     1       9.405  11.591  18.427  0.00  0.00    +0.000 A 
ATOM      6  C   UNL     1       8.446  11.272  17.451  0.00  0.00    +0.000 A 
ATOM      7  C   UNL     1       7.864  10.007  17.402  0.00  0.00    +0.000 A 
ATOM      8  C   UNL     1       8.241   9.012  18.312  0.00  0.00    +0.000 A 
ATOM      9  C   UNL     1       9.190   9.311  19.294  0.00  0.00    +0.000 A 
ATOM     10  C   UNL     1       9.759  10.598  19.355  0.00  0.00    +0.000 A 
BRANCH   5  11
ATOM     11  C   UNL     1      10.049  12.975  18.437  0.00  0.00    +0.000 C 
BRANCH  11  15
ATOM     12  C   UNL     1       8.848  15.597  19.873  0.00  0.00    +0.000 C 
ATOM     13  C   UNL     1      10.176  15.869  19.153  0.00  0.00    +0.000 C 
ATOM     14  C   UNL     1       9.934  15.336  17.756  0.00  0.00    +0.000 C 
ATOM     15  N   UNL     1       9.189  14.084  17.956  0.00  0.00    +0.000 NA
ATOM     16  C   UNL     1       8.185  14.497  18.986  0.00  0.00    +0.000 C 
BRANCH  12  18
ATOM     17  C   UNL     1       7.181  17.336  19.208  0.00  0.00    +0.000 C 
ATOM     18  N   UNL     1       8.197  16.886  20.151  0.00  0.00    +0.000 NA
ATOM     19  C   UNL     1       7.784  17.096  21.528  0.00  0.00    +0.000 C 
ENDBRANCH  12  18
ENDBRANCH  11  15
ENDBRANCH   5  11
ENDBRANCH   1   8
BRANCH   3  20
ATOM     20  C   UNL     1       5.993   6.308  16.855  0.00  0.00    +0.000 A 
ATOM     21  C   UNL     1       4.806   5.903  17.472  0.00  0.00    +0.000 A 
ATOM     22  C   UNL     1       4.232   4.638  17.252  0.00  0.00    +0.000 A 
ATOM     23  C   UNL     1       4.831   3.817  16.284  0.00  0.00    +0.000 A 
ATOM     24  C   UNL     1       5.985   4.228  15.604  0.00  0.00    +0.000 A 
ATOM     25  C   UNL     1       6.565   5.464  15.902  0.00  0.00    +0.000 A 
BRANCH  22  26
ATOM     26  C   UNL     1       3.075   4.197  18.072  0.00  0.00    +0.000 A 
ATOM     27  C   UNL     1       2.333   3.040  17.778  0.00  0.00    +0.000 A 
ATOM     28  C   UNL     1       1.256   2.648  18.588  0.00  0.00    +0.000 A 
ATOM     29  C   UNL     1       0.896   3.405  19.700  0.00  0.00    +0.000 A 
ATOM     30  C   UNL     1       1.611   4.556  20.008  0.00  0.00    +0.000 A 
ATOM     31  C   UNL     1       2.686   4.935  19.210  0.00  0.00    +0.000 A 
ENDBRANCH  22  26
BRANCH  25  32
ATOM     32  O   UNL     1       7.725   5.853  15.284  0.00  0.00    +0.000 OA
ATOM     33  H   UNL     1       7.652   5.634  14.339  0.00  0.00    +0.000 HD
ENDBRANCH  25  32
ENDBRANCH   3  20
TORSDOF 7
ENDMDL
MODEL 8
REMARK VINA RESULT:      -8.3      6.685      9.324
REMARK  Name = 
REMARK  9 active torsions:
REMARK  status: ('A' for Active; 'I' for Inactive)
REMARK    1  A    between atoms: C_1  and  N_2
REMARK    2  A    between atoms: N_2  and  C_3
REMARK    3  A    between atoms: N_2  and  C_4
REMARK    4  A    between atoms: N_7  and  C_8
REMARK    5  A    between atoms: C_8  and  C_9
REMARK    6  A    between atoms: C_12  and  C_13
REMARK    7  A    between atoms: N_15  and  C_16
REMARK    8  A    between atoms: C_18  and  C_19
REMARK    9  A    between atoms: C_27  and  O_28
REMARK                            x       y       z     vdW  Elec       q    Type
REMARK                         _______ _______ _______ _____ _____    ______ ____
ROOT
ATOM      1  C   UNL     1       3.238   6.601  18.141  0.00  0.00    +0.000 C 
ATOM      2  O   UNL     1       2.789   5.467  17.990  0.00  0.00    +0.000 OA
ATOM      3  N   UNL     1       4.551   6.986  17.923  0.00  0.00    +0.000 N 
ATOM      4  H   UNL     1       4.881   7.865  18.305  0.00  0.00    +0.000 HD
ENDROOT
BRANCH   1   8
ATOM      5  C   UNL     1       0.704   9.802  19.528  0.00  0.00    +0.000 A 
ATOM      6  C   UNL     1       1.104   9.689  18.186  0.00  0.00    +0.000 A 
ATOM      7  C   UNL     1       1.878   8.613  17.755  0.00  0.00    +0.000 A 
ATOM      8  C   UNL     1       2.297   7.629  18.658  0.00  0.00    +0.000 A 
ATOM      9  C   UNL     1       1.904   7.720  19.997  0.00  0.00    +0.000 A 
ATOM     10  C   UNL     1       1.103   8.796  20.424  0.00  0.00    +0.000 A 
BRANCH   5  11
ATOM     11  C   UNL     1      -0.118  11.007  19.979  0.00  0.00    +0.000 C 
BRANCH  11  15
ATOM     12  C   UNL     1      -3.104  11.510  18.879  0.00  0.00    +0.000 C 
ATOM     13  C   UNL     1      -2.672  12.549  19.924  0.00  0.00    +0.000 C 
ATOM     14  C   UNL     1      -1.348  13.055  19.389  0.00  0.00    +0.000 C 
ATOM     15  N   UNL     1      -0.662  11.853  18.889  0.00  0.00    +0.000 NA
ATOM     16  C   UNL     1      -1.767  11.166  18.150  0.00  0.00    +0.000 C 
BRANCH  12  18
ATOM     17  C   UNL     1      -4.534  11.507  16.830  0.00  0.00    +0.000 C 
ATOM     18  N   UNL     1      -4.282  12.027  18.168  0.00  0.00    +0.000 NA
ATOM     19  C   UNL     1      -5.502  12.110  18.952  0.00  0.00    +0.000 C 
ENDBRANCH  12  18
ENDBRANCH  11  15
ENDBRANCH   5  11
ENDBRANCH   1   8
BRANCH   3  20
ATOM     20  C   UNL     1       5.574   6.134  17.430  0.00  0.00    +0.000 A 
ATOM     21  C   UNL     1       5.747   5.876  16.067  0.00  0.00    +0.000 A 
ATOM     22  C   UNL     1       6.671   4.931  15.586  0.00  0.00    +0.000 A 
ATOM     23  C   UNL     1       7.519   4.322  16.524  0.00  0.00    +0.000 A 
ATOM     24  C   UNL     1       7.409   4.612  17.891  0.00  0.00    +0.000 A 
ATOM     25  C   UNL     1       6.431   5.505  18.336  0.00  0.00    +0.000 A 
BRANCH  22  26
ATOM     26  C   UNL     1       6.681   4.572  14.145  0.00  0.00    +0.000 A 
ATOM     27  C   UNL     1       7.619   5.096  13.238  0.00  0.00    +0.000 A 
ATOM     28  C   UNL     1       7.605   4.718  11.887  0.00  0.00    +0.000 A 
ATOM     29  C   UNL     1       6.654   3.817  11.415  0.00  0.00    +0.000 A 
ATOM     30  C   UNL     1       5.713   3.289  12.291  0.00  0.00    +0.000 A 
ATOM     31  C   UNL     1       5.738   3.657  13.633  0.00  0.00    +0.000 A 
ENDBRANCH  22  26
BRANCH  25  32
ATOM     32  O   UNL     1       6.277   5.755  19.675  0.00  0.00    +0.000 OA
ATOM     33  H   UNL     1       6.403   4.918  20.155  0.00  0.00    +0.000 HD
ENDBRANCH  25  32
ENDBRANCH   3  20
TORSDOF 7
ENDMDL
MODEL 9
REMARK VINA RESULT:      -8.3      0.797      1.420
REMARK  Name = 
REMARK  9 active torsions:
REMARK  status: ('A' for Active; 'I' for Inactive)
REMARK    1  A    between atoms: C_1  and  N_2
REMARK    2  A    between atoms: N_2  and  C_3
REMARK    3  A    between atoms: N_2  and  C_4
REMARK    4  A    between atoms: N_7  and  C_8
REMARK    5  A    between atoms: C_8  and  C_9
REMARK    6  A    between atoms: C_12  and  C_13
REMARK    7  A    between atoms: N_15  and  C_16
REMARK    8  A    between atoms: C_18  and  C_19
REMARK    9  A    between atoms: C_27  and  O_28
REMARK                            x       y       z     vdW  Elec       q    Type
REMARK                         _______ _______ _______ _____ _____    ______ ____
ROOT
ATOM      1  C   UNL     1       7.720   7.842  18.111  0.00  0.00    +0.000 C 
ATOM      2  O   UNL     1       8.265   6.948  18.756  0.00  0.00    +0.000 OA
ATOM      3  N   UNL     1       6.669   7.673  17.225  0.00  0.00    +0.000 N 
ATOM      4  H   UNL     1       6.452   8.411  16.564  0.00  0.00    +0.000 HD
ENDROOT
BRANCH   1   8
ATOM      5  C   UNL     1       9.403  11.810  18.230  0.00  0.00    +0.000 A 
ATOM      6  C   UNL     1       8.327  11.475  17.391  0.00  0.00    +0.000 A 
ATOM      7  C   UNL     1       7.768  10.199  17.413  0.00  0.00    +0.000 A 
ATOM      8  C   UNL     1       8.282   9.210  18.259  0.00  0.00    +0.000 A 
ATOM      9  C   UNL     1       9.349   9.524  19.106  0.00  0.00    +0.000 A 
ATOM     10  C   UNL     1       9.897  10.821  19.097  0.00  0.00    +0.000 A 
BRANCH   5  11
ATOM     11  C   UNL     1      10.016  13.206  18.162  0.00  0.00    +0.000 C 
BRANCH  11  15
ATOM     12  C   UNL     1      10.725  16.263  18.888  0.00  0.00    +0.000 C 
ATOM     13  C   UNL     1       9.911  16.134  17.593  0.00  0.00    +0.000 C 
ATOM     14  C   UNL     1       8.722  15.293  18.008  0.00  0.00    +0.000 C 
ATOM     15  N   UNL     1       9.283  14.264  18.898  0.00  0.00    +0.000 NA
ATOM     16  C   UNL     1      10.196  15.080  19.758  0.00  0.00    +0.000 C 
BRANCH  12  18
ATOM     17  C   UNL     1       9.515  18.055  20.142  0.00  0.00    +0.000 C 
ATOM     18  N   UNL     1      10.665  17.663  19.337  0.00  0.00    +0.000 NA
ATOM     19  C   UNL     1      11.904  18.205  19.867  0.00  0.00    +0.000 C 
ENDBRANCH  12  18
ENDBRANCH  11  15
ENDBRANCH   5  11
ENDBRANCH   1   8
BRANCH   3  20
ATOM     20  C   UNL     1       6.015   6.439  16.968  0.00  0.00    +0.000 A 
ATOM     21  C   UNL     1       4.839   6.060  17.621  0.00  0.00    +0.000 A 
ATOM     22  C   UNL     1       4.265   4.785  17.468  0.00  0.00    +0.000 A 
ATOM     23  C   UNL     1       4.851   3.921  16.529  0.00  0.00    +0.000 A 
ATOM     24  C   UNL     1       5.993   4.304  15.813  0.00  0.00    +0.000 A 
ATOM     25  C   UNL     1       6.575   5.552  16.045  0.00  0.00    +0.000 A 
BRANCH  22  26
ATOM     26  C   UNL     1       3.121   4.380  18.325  0.00  0.00    +0.000 A 
ATOM     27  C   UNL     1       2.851   4.984  19.566  0.00  0.00    +0.000 A 
ATOM     28  C   UNL     1       1.750   4.584  20.338  0.00  0.00    +0.000 A 
ATOM     29  C   UNL     1       0.903   3.574  19.891  0.00  0.00    +0.000 A 
ATOM     30  C   UNL     1       1.152   2.959  18.670  0.00  0.00    +0.000 A 
ATOM     31  C   UNL     1       2.238   3.366  17.901  0.00  0.00    +0.000 A 
ENDBRANCH  22  26
BRANCH  25  32
ATOM     32  O   UNL     1       7.724   5.915  15.392  0.00  0.00    +0.000 OA
ATOM     33  H   UNL     1       7.675   6.868  15.202  0.00  0.00    +0.000 HD
ENDBRANCH  25  32
ENDBRANCH   3  20
TORSDOF 7
ENDMDL
