MODEL 1
REMARK VINA RESULT:      -7.2      0.000      0.000
REMARK  Name = 
REMARK  10 active torsions:
REMARK  status: ('A' for Active; 'I' for Inactive)
REMARK    1  A    between atoms: C_1  and  O_2
REMARK    2  A    between atoms: O_2  and  C_3
REMARK    3  A    between atoms: C_6  and  N_7
REMARK    4  A    between atoms: C_8  and  C_10
REMARK    5  A    between atoms: C_10  and  S_11
REMARK    6  A    between atoms: S_11  and  C_12
REMARK    7  A    between atoms: C_15  and  C_16
REMARK    8  A    between atoms: N_21  and  C_22
REMARK    9  A    between atoms: C_24  and  O_25
REMARK   10  A    between atoms: O_25  and  C_26
REMARK                            x       y       z     vdW  Elec       q    Type
REMARK                         _______ _______ _______ _____ _____    ______ ____
ROOT
ATOM      1  N   UNL     1       2.319   5.691  20.915  0.00  0.00    +0.000 N 
ATOM      2  C   UNL     1       1.541   4.544  20.848  0.00  0.00    +0.000 C 
ATOM      3  O   UNL     1       0.473   4.432  20.243  0.00  0.00    +0.000 OA
ATOM      4  H   UNL     1       3.173   5.648  21.466  0.00  0.00    +0.000 HD
ENDROOT
BRANCH   1   8
ATOM      5  C   UNL     1       1.269   9.344  19.068  0.00  0.00    +0.000 A 
ATOM      6  C   UNL     1       2.056   8.412  18.383  0.00  0.00    +0.000 A 
ATOM      7  C   UNL     1       2.417   7.204  18.978  0.00  0.00    +0.000 A 
ATOM      8  C   UNL     1       2.048   6.928  20.287  0.00  0.00    +0.000 A 
ATOM      9  C   UNL     1       1.381   7.914  21.021  0.00  0.00    +0.000 A 
ATOM     10  C   UNL     1       0.971   9.119  20.421  0.00  0.00    +0.000 A 
BRANCH   5  12
ATOM     11  C   UNL     1       1.634  11.632  18.591  0.00  0.00    +0.000 C 
ATOM     12  O   UNL     1       0.815  10.473  18.440  0.00  0.00    +0.000 OA
ENDBRANCH   5  12
BRANCH  10  13
ATOM     13  O   UNL     1       0.275   9.922  21.289  0.00  0.00    +0.000 OA
ATOM     14  C   UNL     1      -0.314   9.345  22.443  0.00  0.00    +0.000 C 
ENDBRANCH  10  13
ENDBRANCH   1   8
BRANCH   2  15
ATOM     15  C   UNL     1       2.108   3.365  21.621  0.00  0.00    +0.000 C 
BRANCH  15  16
ATOM     16  S   UNL     1       2.498   1.999  20.485  0.00  0.00    +0.000 S 
BRANCH  16  17
ATOM     17  C   UNL     1       3.778   2.726  19.583  0.00  0.00    +0.000 A 
ATOM     18  N   UNL     1       4.991   2.949  20.022  0.00  0.00    +0.000 NA
ATOM     19  N   UNL     1       5.651   3.659  19.050  0.00  0.00    +0.000 NA
ATOM     20  C   UNL     1       4.820   3.868  18.042  0.00  0.00    +0.000 A 
ATOM     21  N   UNL     1       3.627   3.241  18.323  0.00  0.00    +0.000 N 
ATOM     22  C   UNL     1       2.466   3.092  17.485  0.00  0.00    +0.000 C 
BRANCH  20  23
ATOM     23  C   UNL     1       5.153   4.633  16.873  0.00  0.00    +0.000 A 
ATOM     24  C   UNL     1       4.845   5.949  16.585  0.00  0.00    +0.000 A 
ATOM     25  C   UNL     1       5.315   6.361  15.303  0.00  0.00    +0.000 A 
ATOM     26  C   UNL     1       6.017   5.360  14.671  0.00  0.00    +0.000 A 
ATOM     27  S   UNL     1       6.090   3.936  15.612  0.00  0.00    +0.000 S 
ENDBRANCH  20  23
ENDBRANCH  16  17
ENDBRANCH  15  16
ENDBRANCH   2  15
TORSDOF 7
ENDMDL
MODEL 2
REMARK VINA RESULT:      -6.7      5.746      7.296
REMARK  Name = 
REMARK  10 active torsions:
REMARK  status: ('A' for Active; 'I' for Inactive)
REMARK    1  A    between atoms: C_1  and  O_2
REMARK    2  A    between atoms: O_2  and  C_3
REMARK    3  A    between atoms: C_6  and  N_7
REMARK    4  A    between atoms: C_8  and  C_10
REMARK    5  A    between atoms: C_10  and  S_11
REMARK    6  A    between atoms: S_11  and  C_12
REMARK    7  A    between atoms: C_15  and  C_16
REMARK    8  A    between atoms: N_21  and  C_22
REMARK    9  A    between atoms: C_24  and  O_25
REMARK   10  A    between atoms: O_25  and  C_26
REMARK                            x       y       z     vdW  Elec       q    Type
REMARK                         _______ _______ _______ _____ _____    ______ ____
ROOT
ATOM      1  N   UNL     1       9.087   9.218  19.110  0.00  0.00    +0.000 N 
ATOM      2  C   UNL     1       8.237   8.592  18.210  0.00  0.00    +0.000 C 
ATOM      3  O   UNL     1       7.644   9.139  17.278  0.00  0.00    +0.000 OA
ATOM      4  H   UNL     1       9.499   8.646  19.844  0.00  0.00    +0.000 HD
ENDROOT
BRANCH   1   8
ATOM      5  C   UNL     1       9.935  13.358  19.088  0.00  0.00    +0.000 A 
ATOM      6  C   UNL     1      10.546  12.511  18.156  0.00  0.00    +0.000 A 
ATOM      7  C   UNL     1      10.282  11.142  18.151  0.00  0.00    +0.000 A 
ATOM      8  C   UNL     1       9.450  10.584  19.112  0.00  0.00    +0.000 A 
ATOM      9  C   UNL     1       8.949  11.404  20.127  0.00  0.00    +0.000 A 
ATOM     10  C   UNL     1       9.169  12.793  20.119  0.00  0.00    +0.000 A 
BRANCH   5  12
ATOM     11  C   UNL     1       9.202  15.395  18.135  0.00  0.00    +0.000 C 
ATOM     12  O   UNL     1      10.099  14.715  19.013  0.00  0.00    +0.000 OA
ENDBRANCH   5  12
BRANCH  10  13
ATOM     13  O   UNL     1       8.538  13.426  21.161  0.00  0.00    +0.000 OA
ATOM     14  C   UNL     1       9.169  13.462  22.432  0.00  0.00    +0.000 C 
ENDBRANCH  10  13
ENDBRANCH   1   8
BRANCH   2  15
ATOM     15  C   UNL     1       8.055   7.104  18.461  0.00  0.00    +0.000 C 
BRANCH  15  16
ATOM     16  S   UNL     1       6.970   6.381  17.194  0.00  0.00    +0.000 S 
BRANCH  16  17
ATOM     17  C   UNL     1       6.017   5.337  18.185  0.00  0.00    +0.000 A 
ATOM     18  N   UNL     1       6.477   4.380  18.951  0.00  0.00    +0.000 NA
ATOM     19  N   UNL     1       5.393   3.708  19.457  0.00  0.00    +0.000 NA
ATOM     20  C   UNL     1       4.291   4.261  18.978  0.00  0.00    +0.000 A 
ATOM     21  N   UNL     1       4.648   5.340  18.201  0.00  0.00    +0.000 N 
ATOM     22  C   UNL     1       3.799   6.315  17.565  0.00  0.00    +0.000 C 
BRANCH  20  23
ATOM     23  C   UNL     1       2.967   3.776  19.249  0.00  0.00    +0.000 A 
ATOM     24  C   UNL     1       2.104   3.102  18.405  0.00  0.00    +0.000 A 
ATOM     25  C   UNL     1       0.849   2.808  19.015  0.00  0.00    +0.000 A 
ATOM     26  C   UNL     1       0.810   3.220  20.327  0.00  0.00    +0.000 A 
ATOM     27  S   UNL     1       2.269   3.968  20.807  0.00  0.00    +0.000 S 
ENDBRANCH  20  23
ENDBRANCH  16  17
ENDBRANCH  15  16
ENDBRANCH   2  15
TORSDOF 7
ENDMDL
MODEL 3
REMARK VINA RESULT:      -6.7      1.102      1.666
REMARK  Name = 
REMARK  10 active torsions:
REMARK  status: ('A' for Active; 'I' for Inactive)
REMARK    1  A    between atoms: C_1  and  O_2
REMARK    2  A    between atoms: O_2  and  C_3
REMARK    3  A    between atoms: C_6  and  N_7
REMARK    4  A    between atoms: C_8  and  C_10
REMARK    5  A    between atoms: C_10  and  S_11
REMARK    6  A    between atoms: S_11  and  C_12
REMARK    7  A    between atoms: C_15  and  C_16
REMARK    8  A    between atoms: N_21  and  C_22
REMARK    9  A    between atoms: C_24  and  O_25
REMARK   10  A    between atoms: O_25  and  C_26
REMARK                            x       y       z     vdW  Elec       q    Type
REMARK                         _______ _______ _______ _____ _____    ______ ____
ROOT
ATOM      1  N   UNL     1       2.513   5.810  20.636  0.00  0.00    +0.000 N 
ATOM      2  C   UNL     1       1.697   4.698  20.785  0.00  0.00    +0.000 C 
ATOM      3  O   UNL     1       0.508   4.630  20.470  0.00  0.00    +0.000 OA
ATOM      4  H   UNL     1       3.477   5.732  20.955  0.00  0.00    +0.000 HD
ENDROOT
BRANCH   1   8
ATOM      5  C   UNL     1       1.177   9.477  19.017  0.00  0.00    +0.000 A 
ATOM      6  C   UNL     1       1.904   8.583  18.224  0.00  0.00    +0.000 A 
ATOM      7  C   UNL     1       2.358   7.371  18.741  0.00  0.00    +0.000 A 
ATOM      8  C   UNL     1       2.145   7.054  20.076  0.00  0.00    +0.000 A 
ATOM      9  C   UNL     1       1.541   8.004  20.905  0.00  0.00    +0.000 A 
ATOM     10  C   UNL     1       1.038   9.211  20.388  0.00  0.00    +0.000 A 
BRANCH   5  12
ATOM     11  C   UNL     1      -0.759  10.523  18.149  0.00  0.00    +0.000 C 
ATOM     12  O   UNL     1       0.628  10.609  18.474  0.00  0.00    +0.000 OA
ENDBRANCH   5  12
BRANCH  10  13
ATOM     13  O   UNL     1       0.424   9.974  21.350  0.00  0.00    +0.000 OA
ATOM     14  C   UNL     1      -0.360   9.334  22.344  0.00  0.00    +0.000 C 
ENDBRANCH  10  13
ENDBRANCH   1   8
BRANCH   2  15
ATOM     15  C   UNL     1       2.391   3.499  21.410  0.00  0.00    +0.000 C 
BRANCH  15  16
ATOM     16  S   UNL     1       2.272   2.059  20.305  0.00  0.00    +0.000 S 
BRANCH  16  17
ATOM     17  C   UNL     1       2.640   2.817  18.798  0.00  0.00    +0.000 A 
ATOM     18  N   UNL     1       1.835   2.903  17.769  0.00  0.00    +0.000 NA
ATOM     19  N   UNL     1       2.552   3.452  16.737  0.00  0.00    +0.000 NA
ATOM     20  C   UNL     1       3.787   3.677  17.152  0.00  0.00    +0.000 A 
ATOM     21  N   UNL     1       3.869   3.332  18.483  0.00  0.00    +0.000 N 
ATOM     22  C   UNL     1       4.970   3.504  19.395  0.00  0.00    +0.000 C 
BRANCH  20  23
ATOM     23  C   UNL     1       4.835   4.193  16.315  0.00  0.00    +0.000 A 
ATOM     24  C   UNL     1       5.639   3.512  15.420  0.00  0.00    +0.000 A 
ATOM     25  C   UNL     1       6.600   4.355  14.788  0.00  0.00    +0.000 A 
ATOM     26  C   UNL     1       6.467   5.666  15.182  0.00  0.00    +0.000 A 
ATOM     27  S   UNL     1       5.204   5.870  16.314  0.00  0.00    +0.000 S 
ENDBRANCH  20  23
ENDBRANCH  16  17
ENDBRANCH  15  16
ENDBRANCH   2  15
TORSDOF 7
ENDMDL
MODEL 4
REMARK VINA RESULT:      -6.7      6.203      7.886
REMARK  Name = 
REMARK  10 active torsions:
REMARK  status: ('A' for Active; 'I' for Inactive)
REMARK    1  A    between atoms: C_1  and  O_2
REMARK    2  A    between atoms: O_2  and  C_3
REMARK    3  A    between atoms: C_6  and  N_7
REMARK    4  A    between atoms: C_8  and  C_10
REMARK    5  A    between atoms: C_10  and  S_11
REMARK    6  A    between atoms: S_11  and  C_12
REMARK    7  A    between atoms: C_15  and  C_16
REMARK    8  A    between atoms: N_21  and  C_22
REMARK    9  A    between atoms: C_24  and  O_25
REMARK   10  A    between atoms: O_25  and  C_26
REMARK                            x       y       z     vdW  Elec       q    Type
REMARK                         _______ _______ _______ _____ _____    ______ ____
ROOT
ATOM      1  N   UNL     1       9.148   9.386  19.415  0.00  0.00    +0.000 N 
ATOM      2  C   UNL     1       8.300   8.916  18.422  0.00  0.00    +0.000 C 
ATOM      3  O   UNL     1       7.639   9.612  17.649  0.00  0.00    +0.000 OA
ATOM      4  H   UNL     1       9.621   8.696  19.994  0.00  0.00    +0.000 HD
ENDROOT
BRANCH   1   8
ATOM      5  C   UNL     1      10.225  13.389  20.234  0.00  0.00    +0.000 A 
ATOM      6  C   UNL     1       9.608  12.612  21.220  0.00  0.00    +0.000 A 
ATOM      7  C   UNL     1       9.241  11.291  20.967  0.00  0.00    +0.000 A 
ATOM      8  C   UNL     1       9.430  10.739  19.707  0.00  0.00    +0.000 A 
ATOM      9  C   UNL     1       9.917  11.554  18.682  0.00  0.00    +0.000 A 
ATOM     10  C   UNL     1      10.335  12.874  18.933  0.00  0.00    +0.000 A 
BRANCH   5  12
ATOM     11  C   UNL     1      10.193  15.226  21.724  0.00  0.00    +0.000 C 
ATOM     12  O   UNL     1      10.695  14.642  20.522  0.00  0.00    +0.000 OA
ENDBRANCH   5  12
BRANCH  10  13
ATOM     13  O   UNL     1      10.843  13.481  17.812  0.00  0.00    +0.000 OA
ATOM     14  C   UNL     1      11.969  12.908  17.167  0.00  0.00    +0.000 C 
ENDBRANCH  10  13
ENDBRANCH   1   8
BRANCH   2  15
ATOM     15  C   UNL     1       8.216   7.400  18.345  0.00  0.00    +0.000 C 
BRANCH  15  16
ATOM     16  S   UNL     1       6.931   6.902  17.158  0.00  0.00    +0.000 S 
BRANCH  16  17
ATOM     17  C   UNL     1       6.046   5.788  18.136  0.00  0.00    +0.000 A 
ATOM     18  N   UNL     1       6.558   4.789  18.810  0.00  0.00    +0.000 NA
ATOM     19  N   UNL     1       5.510   4.076  19.337  0.00  0.00    +0.000 NA
ATOM     20  C   UNL     1       4.378   4.647  18.960  0.00  0.00    +0.000 A 
ATOM     21  N   UNL     1       4.681   5.776  18.234  0.00  0.00    +0.000 N 
ATOM     22  C   UNL     1       3.790   6.781  17.714  0.00  0.00    +0.000 C 
BRANCH  20  23
ATOM     23  C   UNL     1       3.075   4.132  19.278  0.00  0.00    +0.000 A 
ATOM     24  C   UNL     1       2.261   3.313  18.519  0.00  0.00    +0.000 A 
ATOM     25  C   UNL     1       1.012   3.035  19.150  0.00  0.00    +0.000 A 
ATOM     26  C   UNL     1       0.932   3.608  20.398  0.00  0.00    +0.000 A 
ATOM     27  S   UNL     1       2.344   4.485  20.793  0.00  0.00    +0.000 S 
ENDBRANCH  20  23
ENDBRANCH  16  17
ENDBRANCH  15  16
ENDBRANCH   2  15
TORSDOF 7
ENDMDL
MODEL 5
REMARK VINA RESULT:      -6.6      5.730      7.234
REMARK  Name = 
REMARK  10 active torsions:
REMARK  status: ('A' for Active; 'I' for Inactive)
REMARK    1  A    between atoms: C_1  and  O_2
REMARK    2  A    between atoms: O_2  and  C_3
REMARK    3  A    between atoms: C_6  and  N_7
REMARK    4  A    between atoms: C_8  and  C_10
REMARK    5  A    between atoms: C_10  and  S_11
REMARK    6  A    between atoms: S_11  and  C_12
REMARK    7  A    between atoms: C_15  and  C_16
REMARK    8  A    between atoms: N_21  and  C_22
REMARK    9  A    between atoms: C_24  and  O_25
REMARK   10  A    between atoms: O_25  and  C_26
REMARK                            x       y       z     vdW  Elec       q    Type
REMARK                         _______ _______ _______ _____ _____    ______ ____
ROOT
ATOM      1  N   UNL     1       8.899   8.827  19.041  0.00  0.00    +0.000 N 
ATOM      2  C   UNL     1       8.011   8.305  18.112  0.00  0.00    +0.000 C 
ATOM      3  O   UNL     1       7.425   8.945  17.237  0.00  0.00    +0.000 OA
ATOM      4  H   UNL     1       9.300   8.185  19.721  0.00  0.00    +0.000 HD
ENDROOT
BRANCH   1   8
ATOM      5  C   UNL     1       9.918  12.909  19.437  0.00  0.00    +0.000 A 
ATOM      6  C   UNL     1       9.993  12.285  18.187  0.00  0.00    +0.000 A 
ATOM      7  C   UNL     1       9.666  10.938  18.037  0.00  0.00    +0.000 A 
ATOM      8  C   UNL     1       9.314  10.174  19.143  0.00  0.00    +0.000 A 
ATOM      9  C   UNL     1       9.372  10.759  20.411  0.00  0.00    +0.000 A 
ATOM     10  C   UNL     1       9.656  12.127  20.573  0.00  0.00    +0.000 A 
BRANCH   5  12
ATOM     11  C   UNL     1       8.954  15.069  19.425  0.00  0.00    +0.000 C 
ATOM     12  O   UNL     1      10.121  14.258  19.559  0.00  0.00    +0.000 OA
ENDBRANCH   5  12
BRANCH  10  13
ATOM     13  O   UNL     1       9.599  12.519  21.886  0.00  0.00    +0.000 OA
ATOM     14  C   UNL     1       8.345  12.870  22.449  0.00  0.00    +0.000 C 
ENDBRANCH  10  13
ENDBRANCH   1   8
BRANCH   2  15
ATOM     15  C   UNL     1       7.776   6.810  18.250  0.00  0.00    +0.000 C 
BRANCH  15  16
ATOM     16  S   UNL     1       6.976   6.159  16.753  0.00  0.00    +0.000 S 
BRANCH  16  17
ATOM     17  C   UNL     1       5.337   6.113  17.295  0.00  0.00    +0.000 A 
ATOM     18  N   UNL     1       4.498   7.118  17.280  0.00  0.00    +0.000 NA
ATOM     19  N   UNL     1       3.356   6.704  17.916  0.00  0.00    +0.000 NA
ATOM     20  C   UNL     1       3.526   5.456  18.320  0.00  0.00    +0.000 A 
ATOM     21  N   UNL     1       4.762   5.025  17.895  0.00  0.00    +0.000 N 
ATOM     22  C   UNL     1       5.344   3.711  17.994  0.00  0.00    +0.000 C 
BRANCH  20  23
ATOM     23  C   UNL     1       2.553   4.718  19.077  0.00  0.00    +0.000 A 
ATOM     24  C   UNL     1       2.245   4.821  20.421  0.00  0.00    +0.000 A 
ATOM     25  C   UNL     1       1.242   3.894  20.832  0.00  0.00    +0.000 A 
ATOM     26  C   UNL     1       0.776   3.145  19.777  0.00  0.00    +0.000 A 
ATOM     27  S   UNL     1       1.555   3.548  18.311  0.00  0.00    +0.000 S 
ENDBRANCH  20  23
ENDBRANCH  16  17
ENDBRANCH  15  16
ENDBRANCH   2  15
TORSDOF 7
ENDMDL
MODEL 6
REMARK VINA RESULT:      -6.5      4.799      9.204
REMARK  Name = 
REMARK  10 active torsions:
REMARK  status: ('A' for Active; 'I' for Inactive)
REMARK    1  A    between atoms: C_1  and  O_2
REMARK    2  A    between atoms: O_2  and  C_3
REMARK    3  A    between atoms: C_6  and  N_7
REMARK    4  A    between atoms: C_8  and  C_10
REMARK    5  A    between atoms: C_10  and  S_11
REMARK    6  A    between atoms: S_11  and  C_12
REMARK    7  A    between atoms: C_15  and  C_16
REMARK    8  A    between atoms: N_21  and  C_22
REMARK    9  A    between atoms: C_24  and  O_25
REMARK   10  A    between atoms: O_25  and  C_26
REMARK                            x       y       z     vdW  Elec       q    Type
REMARK                         _______ _______ _______ _____ _____    ______ ____
ROOT
ATOM      1  N   UNL     1       2.800   6.370  19.398  0.00  0.00    +0.000 N 
ATOM      2  C   UNL     1       2.299   7.625  19.082  0.00  0.00    +0.000 C 
ATOM      3  O   UNL     1       2.463   8.219  18.016  0.00  0.00    +0.000 OA
ATOM      4  H   UNL     1       2.601   6.004  20.326  0.00  0.00    +0.000 HD
ENDROOT
BRANCH   1   8
ATOM      5  C   UNL     1       5.134   4.066  16.733  0.00  0.00    +0.000 A 
ATOM      6  C   UNL     1       3.800   3.721  16.977  0.00  0.00    +0.000 A 
ATOM      7  C   UNL     1       3.016   4.465  17.857  0.00  0.00    +0.000 A 
ATOM      8  C   UNL     1       3.564   5.534  18.553  0.00  0.00    +0.000 A 
ATOM      9  C   UNL     1       4.930   5.796  18.418  0.00  0.00    +0.000 A 
ATOM     10  C   UNL     1       5.724   5.083  17.500  0.00  0.00    +0.000 A 
BRANCH   5  12
ATOM     11  C   UNL     1       6.011   4.098  14.536  0.00  0.00    +0.000 C 
ATOM     12  O   UNL     1       5.864   3.410  15.779  0.00  0.00    +0.000 OA
ENDBRANCH   5  12
BRANCH  10  13
ATOM     13  O   UNL     1       7.019   5.536  17.469  0.00  0.00    +0.000 OA
ATOM     14  C   UNL     1       7.707   5.748  18.692  0.00  0.00    +0.000 C 
ENDBRANCH  10  13
ENDBRANCH   1   8
BRANCH   2  15
ATOM     15  C   UNL     1       1.498   8.272  20.201  0.00  0.00    +0.000 C 
BRANCH  15  16
ATOM     16  S   UNL     1       0.715   9.802  19.608  0.00  0.00    +0.000 S 
BRANCH  16  17
ATOM     17  C   UNL     1       0.190  10.464  21.113  0.00  0.00    +0.000 A 
ATOM     18  N   UNL     1       0.497  10.004  22.300  0.00  0.00    +0.000 NA
ATOM     19  N   UNL     1      -0.227  10.725  23.216  0.00  0.00    +0.000 NA
ATOM     20  C   UNL     1      -0.975  11.603  22.567  0.00  0.00    +0.000 A 
ATOM     21  N   UNL     1      -0.696  11.503  21.223  0.00  0.00    +0.000 N 
ATOM     22  C   UNL     1      -1.172  12.322  20.138  0.00  0.00    +0.000 C 
BRANCH  20  23
ATOM     23  C   UNL     1      -1.908  12.488  23.205  0.00  0.00    +0.000 A 
ATOM     24  C   UNL     1      -3.208  12.233  23.601  0.00  0.00    +0.000 A 
ATOM     25  C   UNL     1      -3.847  13.373  24.173  0.00  0.00    +0.000 A 
ATOM     26  C   UNL     1      -2.996  14.452  24.245  0.00  0.00    +0.000 A 
ATOM     27  S   UNL     1      -1.450  14.093  23.613  0.00  0.00    +0.000 S 
ENDBRANCH  20  23
ENDBRANCH  16  17
ENDBRANCH  15  16
ENDBRANCH   2  15
TORSDOF 7
ENDMDL
MODEL 7
REMARK VINA RESULT:      -6.4      4.386      8.540
REMARK  Name = 
REMARK  10 active torsions:
REMARK  status: ('A' for Active; 'I' for Inactive)
REMARK    1  A    between atoms: C_1  and  O_2
REMARK    2  A    between atoms: O_2  and  C_3
REMARK    3  A    between atoms: C_6  and  N_7
REMARK    4  A    between atoms: C_8  and  C_10
REMARK    5  A    between atoms: C_10  and  S_11
REMARK    6  A    between atoms: S_11  and  C_12
REMARK    7  A    between atoms: C_15  and  C_16
REMARK    8  A    between atoms: N_21  and  C_22
REMARK    9  A    between atoms: C_24  and  O_25
REMARK   10  A    between atoms: O_25  and  C_26
REMARK                            x       y       z     vdW  Elec       q    Type
REMARK                         _______ _______ _______ _____ _____    ______ ____
ROOT
ATOM      1  N   UNL     1       3.044   6.494  18.650  0.00  0.00    +0.000 N 
ATOM      2  C   UNL     1       2.614   5.988  19.869  0.00  0.00    +0.000 C 
ATOM      3  O   UNL     1       3.006   4.946  20.395  0.00  0.00    +0.000 OA
ATOM      4  H   UNL     1       2.621   7.361  18.325  0.00  0.00    +0.000 HD
ENDROOT
BRANCH   1   8
ATOM      5  C   UNL     1       5.944   4.991  15.969  0.00  0.00    +0.000 A 
ATOM      6  C   UNL     1       4.807   4.233  16.270  0.00  0.00    +0.000 A 
ATOM      7  C   UNL     1       3.842   4.710  17.156  0.00  0.00    +0.000 A 
ATOM      8  C   UNL     1       4.021   5.926  17.802  0.00  0.00    +0.000 A 
ATOM      9  C   UNL     1       5.219   6.620  17.610  0.00  0.00    +0.000 A 
ATOM     10  C   UNL     1       6.182   6.174  16.685  0.00  0.00    +0.000 A 
BRANCH   5  12
ATOM     11  C   UNL     1       6.249   3.894  13.896  0.00  0.00    +0.000 C 
ATOM     12  O   UNL     1       6.827   4.577  15.008  0.00  0.00    +0.000 OA
ENDBRANCH   5  12
BRANCH  10  13
ATOM     13  O   UNL     1       7.251   7.029  16.595  0.00  0.00    +0.000 OA
ATOM     14  C   UNL     1       7.744   7.647  17.773  0.00  0.00    +0.000 C 
ENDBRANCH  10  13
ENDBRANCH   1   8
BRANCH   2  15
ATOM     15  C   UNL     1       1.557   6.839  20.554  0.00  0.00    +0.000 C 
BRANCH  15  16
ATOM     16  S   UNL     1       1.514   8.501  19.818  0.00  0.00    +0.000 S 
BRANCH  16  17
ATOM     17  C   UNL     1       0.909   9.401  21.161  0.00  0.00    +0.000 A 
ATOM     18  N   UNL     1       1.065   9.088  22.423  0.00  0.00    +0.000 NA
ATOM     19  N   UNL     1       0.322   9.978  23.157  0.00  0.00    +0.000 NA
ATOM     20  C   UNL     1      -0.284  10.809  22.326  0.00  0.00    +0.000 A 
ATOM     21  N   UNL     1       0.108  10.504  21.042  0.00  0.00    +0.000 N 
ATOM     22  C   UNL     1      -0.194  11.198  19.816  0.00  0.00    +0.000 C 
BRANCH  20  23
ATOM     23  C   UNL     1      -1.195  11.838  22.743  0.00  0.00    +0.000 A 
ATOM     24  C   UNL     1      -2.463  11.706  23.277  0.00  0.00    +0.000 A 
ATOM     25  C   UNL     1      -3.088  12.960  23.539  0.00  0.00    +0.000 A 
ATOM     26  C   UNL     1      -2.257  14.016  23.246  0.00  0.00    +0.000 A 
ATOM     27  S   UNL     1      -0.745  13.494  22.645  0.00  0.00    +0.000 S 
ENDBRANCH  20  23
ENDBRANCH  16  17
ENDBRANCH  15  16
ENDBRANCH   2  15
TORSDOF 7
ENDMDL
MODEL 8
REMARK VINA RESULT:      -6.4      1.039      1.130
REMARK  Name = 
REMARK  10 active torsions:
REMARK  status: ('A' for Active; 'I' for Inactive)
REMARK    1  A    between atoms: C_1  and  O_2
REMARK    2  A    between atoms: O_2  and  C_3
REMARK    3  A    between atoms: C_6  and  N_7
REMARK    4  A    between atoms: C_8  and  C_10
REMARK    5  A    between atoms: C_10  and  S_11
REMARK    6  A    between atoms: S_11  and  C_12
REMARK    7  A    between atoms: C_15  and  C_16
REMARK    8  A    between atoms: N_21  and  C_22
REMARK    9  A    between atoms: C_24  and  O_25
REMARK   10  A    between atoms: O_25  and  C_26
REMARK                            x       y       z     vdW  Elec       q    Type
REMARK                         _______ _______ _______ _____ _____    ______ ____
ROOT
ATOM      1  N   UNL     1       2.317   6.124  20.925  0.00  0.00    +0.000 N 
ATOM      2  C   UNL     1       1.692   4.886  20.868  0.00  0.00    +0.000 C 
ATOM      3  O   UNL     1       0.670   4.624  20.232  0.00  0.00    +0.000 OA
ATOM      4  H   UNL     1       3.150   6.203  21.505  0.00  0.00    +0.000 HD
ENDROOT
BRANCH   1   8
ATOM      5  C   UNL     1       0.888   9.563  18.930  0.00  0.00    +0.000 A 
ATOM      6  C   UNL     1       1.820   8.727  18.307  0.00  0.00    +0.000 A 
ATOM      7  C   UNL     1       2.308   7.590  18.951  0.00  0.00    +0.000 A 
ATOM      8  C   UNL     1       1.917   7.299  20.251  0.00  0.00    +0.000 A 
ATOM      9  C   UNL     1       1.094   8.205  20.926  0.00  0.00    +0.000 A 
ATOM     10  C   UNL     1       0.559   9.331  20.274  0.00  0.00    +0.000 A 
BRANCH   5  12
ATOM     11  C   UNL     1      -1.018  10.391  17.798  0.00  0.00    +0.000 C 
ATOM     12  O   UNL     1       0.319  10.607  18.250  0.00  0.00    +0.000 OA
ENDBRANCH   5  12
BRANCH  10  13
ATOM     13  O   UNL     1      -0.276  10.055  21.088  0.00  0.00    +0.000 OA
ATOM     14  C   UNL     1       0.165  11.304  21.597  0.00  0.00    +0.000 C 
ENDBRANCH  10  13
ENDBRANCH   1   8
BRANCH   2  15
ATOM     15  C   UNL     1       2.374   3.808  21.696  0.00  0.00    +0.000 C 
BRANCH  15  16
ATOM     16  S   UNL     1       2.862   2.416  20.633  0.00  0.00    +0.000 S 
BRANCH  16  17
ATOM     17  C   UNL     1       4.100   3.179  19.702  0.00  0.00    +0.000 A 
ATOM     18  N   UNL     1       5.003   4.007  20.164  0.00  0.00    +0.000 NA
ATOM     19  N   UNL     1       5.704   4.487  19.087  0.00  0.00    +0.000 NA
ATOM     20  C   UNL     1       5.204   3.952  17.985  0.00  0.00    +0.000 A 
ATOM     21  N   UNL     1       4.210   3.069  18.342  0.00  0.00    +0.000 N 
ATOM     22  C   UNL     1       3.458   2.170  17.506  0.00  0.00    +0.000 C 
BRANCH  20  23
ATOM     23  C   UNL     1       5.655   4.275  16.660  0.00  0.00    +0.000 A 
ATOM     24  C   UNL     1       4.918   4.362  15.494  0.00  0.00    +0.000 A 
ATOM     25  C   UNL     1       5.717   4.674  14.355  0.00  0.00    +0.000 A 
ATOM     26  C   UNL     1       7.036   4.868  14.695  0.00  0.00    +0.000 A 
ATOM     27  S   UNL     1       7.304   4.659  16.369  0.00  0.00    +0.000 S 
ENDBRANCH  20  23
ENDBRANCH  16  17
ENDBRANCH  15  16
ENDBRANCH   2  15
TORSDOF 7
ENDMDL
MODEL 9
REMARK VINA RESULT:      -6.4      1.934      2.183
REMARK  Name = 
REMARK  10 active torsions:
REMARK  status: ('A' for Active; 'I' for Inactive)
REMARK    1  A    between atoms: C_1  and  O_2
REMARK    2  A    between atoms: O_2  and  C_3
REMARK    3  A    between atoms: C_6  and  N_7
REMARK    4  A    between atoms: C_8  and  C_10
REMARK    5  A    between atoms: C_10  and  S_11
REMARK    6  A    between atoms: S_11  and  C_12
REMARK    7  A    between atoms: C_15  and  C_16
REMARK    8  A    between atoms: N_21  and  C_22
REMARK    9  A    between atoms: C_24  and  O_25
REMARK   10  A    between atoms: O_25  and  C_26
REMARK                            x       y       z     vdW  Elec       q    Type
REMARK                         _______ _______ _______ _____ _____    ______ ____
ROOT
ATOM      1  N   UNL     1       2.160   4.962  19.284  0.00  0.00    +0.000 N 
ATOM      2  C   UNL     1       1.621   4.014  18.425  0.00  0.00    +0.000 C 
ATOM      3  O   UNL     1       0.965   4.252  17.410  0.00  0.00    +0.000 OA
ATOM      4  H   UNL     1       2.667   4.624  20.099  0.00  0.00    +0.000 HD
ENDROOT
BRANCH   1   8
ATOM      5  C   UNL     1       1.676   9.140  18.876  0.00  0.00    +0.000 A 
ATOM      6  C   UNL     1       2.353   8.412  17.891  0.00  0.00    +0.000 A 
ATOM      7  C   UNL     1       2.527   7.034  18.011  0.00  0.00    +0.000 A 
ATOM      8  C   UNL     1       2.079   6.366  19.143  0.00  0.00    +0.000 A 
ATOM      9  C   UNL     1       1.528   7.109  20.190  0.00  0.00    +0.000 A 
ATOM     10  C   UNL     1       1.304   8.493  20.065  0.00  0.00    +0.000 A 
BRANCH   5  12
ATOM     11  C   UNL     1       2.422  11.229  18.054  0.00  0.00    +0.000 C 
ATOM     12  O   UNL     1       1.399  10.469  18.698  0.00  0.00    +0.000 OA
ENDBRANCH   5  12
BRANCH  10  13
ATOM     13  O   UNL     1       0.694   9.024  21.173  0.00  0.00    +0.000 OA
ATOM     14  C   UNL     1       1.437   9.159  22.374  0.00  0.00    +0.000 C 
ENDBRANCH  10  13
ENDBRANCH   1   8
BRANCH   2  15
ATOM     15  C   UNL     1       1.890   2.577  18.841  0.00  0.00    +0.000 C 
BRANCH  15  16
ATOM     16  S   UNL     1       3.350   1.934  17.968  0.00  0.00    +0.000 S 
BRANCH  16  17
ATOM     17  C   UNL     1       4.534   3.072  18.501  0.00  0.00    +0.000 A 
ATOM     18  N   UNL     1       4.969   3.204  19.729  0.00  0.00    +0.000 NA
ATOM     19  N   UNL     1       5.794   4.300  19.753  0.00  0.00    +0.000 NA
ATOM     20  C   UNL     1       5.833   4.826  18.539  0.00  0.00    +0.000 A 
ATOM     21  N   UNL     1       5.081   4.037  17.699  0.00  0.00    +0.000 N 
ATOM     22  C   UNL     1       4.917   4.138  16.271  0.00  0.00    +0.000 C 
BRANCH  20  23
ATOM     23  C   UNL     1       6.552   6.024  18.207  0.00  0.00    +0.000 A 
ATOM     24  C   UNL     1       6.212   7.013  17.303  0.00  0.00    +0.000 A 
ATOM     25  C   UNL     1       7.194   8.042  17.212  0.00  0.00    +0.000 A 
ATOM     26  C   UNL     1       8.234   7.835  18.089  0.00  0.00    +0.000 A 
ATOM     27  S   UNL     1       8.029   6.403  18.999  0.00  0.00    +0.000 S 
ENDBRANCH  20  23
ENDBRANCH  16  17
ENDBRANCH  15  16
ENDBRANCH   2  15
TORSDOF 7
ENDMDL
