MODEL 1
REMARK VINA RESULT:      -8.8      0.000      0.000
REMARK  Name = 
REMARK  6 active torsions:
REMARK  status: ('A' for Active; 'I' for Inactive)
REMARK    1  A    between atoms: C_2  and  C_15
REMARK    2  A    between atoms: N_3  and  C_4
REMARK    3  A    between atoms: C_4  and  C_5
REMARK    4  A    between atoms: C_10  and  C_11
REMARK    5  A    between atoms: C_17  and  C_18
REMARK    6  A    between atoms: C_23  and  C_24
REMARK                            x       y       z     vdW  Elec       q    Type
REMARK                         _______ _______ _______ _____ _____    ______ ____
ROOT
ATOM      1  O   UNL     1       0.935   3.165  20.757  0.00  0.00    +0.000 OA
ATOM      2  C   UNL     1       1.339   4.098  20.097  0.00  0.00    +0.000 C 
ATOM      3  N   UNL     1       1.576   5.339  20.673  0.00  0.00    +0.000 N 
ATOM      4  H   UNL     1       1.173   5.504  21.587  0.00  0.00    +0.000 HD
ENDROOT
BRANCH   2   5
ATOM      5  C   UNL     1       1.536   3.982  18.575  0.00  0.00    +0.000 C 
ATOM      6  C   UNL     1       2.542   4.887  17.909  0.00  0.00    +0.000 C 
ATOM      7  C   UNL     1       3.515   3.862  17.415  0.00  0.00    +0.000 C 
ATOM      8  N   UNL     1       3.165   2.664  17.600  0.00  0.00    +0.000 NA
ATOM      9  O   UNL     1       1.852   2.655  18.143  0.00  0.00    +0.000 OA
BRANCH   7  10
ATOM     10  C   UNL     1       4.771   4.234  16.729  0.00  0.00    +0.000 A 
ATOM     11  C   UNL     1       4.849   4.007  15.351  0.00  0.00    +0.000 A 
ATOM     12  C   UNL     1       6.016   4.279  14.652  0.00  0.00    +0.000 A 
ATOM     13  C   UNL     1       7.122   4.787  15.327  0.00  0.00    +0.000 A 
ATOM     14  C   UNL     1       7.053   5.021  16.699  0.00  0.00    +0.000 A 
ATOM     15  C   UNL     1       5.883   4.755  17.431  0.00  0.00    +0.000 A 
BRANCH  15  16
ATOM     16  C   UNL     1       5.905   4.958  18.938  0.00  0.00    +0.000 C 
ATOM     17  F   UNL     1       5.515   3.959  19.717  0.00  0.00    +0.000 F 
ATOM     18  F   UNL     1       7.172   5.223  19.367  0.00  0.00    +0.000 F 
ATOM     19  F   UNL     1       5.160   6.041  19.321  0.00  0.00    +0.000 F 
ENDBRANCH  15  16
ENDBRANCH   7  10
ENDBRANCH   2   5
BRANCH   3  20
ATOM     20  C   UNL     1       2.135   6.464  19.966  0.00  0.00    +0.000 C 
BRANCH  20  21
ATOM     21  C   UNL     1       1.563   7.815  20.333  0.00  0.00    +0.000 A 
ATOM     22  C   UNL     1       1.097   8.005  21.651  0.00  0.00    +0.000 A 
ATOM     23  C   UNL     1       0.486   9.181  22.044  0.00  0.00    +0.000 A 
ATOM     24  C   UNL     1       0.330  10.204  21.122  0.00  0.00    +0.000 A 
ATOM     25  C   UNL     1       0.844  10.078  19.840  0.00  0.00    +0.000 A 
ATOM     26  C   UNL     1       1.503   8.907  19.428  0.00  0.00    +0.000 A 
BRANCH  26  27
ATOM     27  C   UNL     1       2.068   8.882  18.023  0.00  0.00    +0.000 C 
ATOM     28  F   UNL     1       1.396   8.073  17.160  0.00  0.00    +0.000 F 
ATOM     29  F   UNL     1       2.024  10.123  17.452  0.00  0.00    +0.000 F 
ATOM     30  F   UNL     1       3.375   8.508  17.945  0.00  0.00    +0.000 F 
ENDBRANCH  26  27
ENDBRANCH  20  21
ENDBRANCH   3  20
TORSDOF 6
ENDMDL
MODEL 2
REMARK VINA RESULT:      -8.8      1.336      1.693
REMARK  Name = 
REMARK  6 active torsions:
REMARK  status: ('A' for Active; 'I' for Inactive)
REMARK    1  A    between atoms: C_2  and  C_15
REMARK    2  A    between atoms: N_3  and  C_4
REMARK    3  A    between atoms: C_4  and  C_5
REMARK    4  A    between atoms: C_10  and  C_11
REMARK    5  A    between atoms: C_17  and  C_18
REMARK    6  A    between atoms: C_23  and  C_24
REMARK                            x       y       z     vdW  Elec       q    Type
REMARK                         _______ _______ _______ _____ _____    ______ ____
ROOT
ATOM      1  O   UNL     1       2.786   4.619  20.879  0.00  0.00    +0.000 OA
ATOM      2  C   UNL     1       2.432   5.560  20.203  0.00  0.00    +0.000 C 
ATOM      3  N   UNL     1       2.058   6.765  20.785  0.00  0.00    +0.000 N 
ATOM      4  H   UNL     1       1.855   6.751  21.776  0.00  0.00    +0.000 HD
ENDROOT
BRANCH   2   5
ATOM      5  C   UNL     1       2.303   5.450  18.674  0.00  0.00    +0.000 C 
ATOM      6  C   UNL     1       3.412   6.004  17.816  0.00  0.00    +0.000 C 
ATOM      7  C   UNL     1       3.889   4.739  17.173  0.00  0.00    +0.000 C 
ATOM      8  N   UNL     1       3.206   3.714  17.443  0.00  0.00    +0.000 NA
ATOM      9  O   UNL     1       2.083   4.112  18.218  0.00  0.00    +0.000 OA
BRANCH   7  10
ATOM     10  C   UNL     1       5.053   4.710  16.261  0.00  0.00    +0.000 A 
ATOM     11  C   UNL     1       4.809   4.453  14.907  0.00  0.00    +0.000 A 
ATOM     12  C   UNL     1       5.858   4.355  14.004  0.00  0.00    +0.000 A 
ATOM     13  C   UNL     1       7.167   4.517  14.446  0.00  0.00    +0.000 A 
ATOM     14  C   UNL     1       7.420   4.779  15.790  0.00  0.00    +0.000 A 
ATOM     15  C   UNL     1       6.377   4.884  16.727  0.00  0.00    +0.000 A 
BRANCH  15  16
ATOM     16  C   UNL     1       6.731   5.090  18.191  0.00  0.00    +0.000 C 
ATOM     17  F   UNL     1       6.044   4.424  19.109  0.00  0.00    +0.000 F 
ATOM     18  F   UNL     1       8.022   4.723  18.429  0.00  0.00    +0.000 F 
ATOM     19  F   UNL     1       6.657   6.408  18.557  0.00  0.00    +0.000 F 
ENDBRANCH  15  16
ENDBRANCH   7  10
ENDBRANCH   2   5
BRANCH   3  20
ATOM     20  C   UNL     1       1.709   7.947  20.038  0.00  0.00    +0.000 C 
BRANCH  20  21
ATOM     21  C   UNL     1       0.927   8.994  20.801  0.00  0.00    +0.000 A 
ATOM     22  C   UNL     1       0.764   8.820  22.191  0.00  0.00    +0.000 A 
ATOM     23  C   UNL     1      -0.004   9.686  22.947  0.00  0.00    +0.000 A 
ATOM     24  C   UNL     1      -0.629  10.755  22.325  0.00  0.00    +0.000 A 
ATOM     25  C   UNL     1      -0.428  10.997  20.975  0.00  0.00    +0.000 A 
ATOM     26  C   UNL     1       0.380  10.153  20.193  0.00  0.00    +0.000 A 
BRANCH  26  27
ATOM     27  C   UNL     1       0.573  10.525  18.738  0.00  0.00    +0.000 C 
ATOM     28  F   UNL     1       0.024  11.718  18.383  0.00  0.00    +0.000 F 
ATOM     29  F   UNL     1       1.901  10.642  18.431  0.00  0.00    +0.000 F 
ATOM     30  F   UNL     1       0.089   9.612  17.850  0.00  0.00    +0.000 F 
ENDBRANCH  26  27
ENDBRANCH  20  21
ENDBRANCH   3  20
TORSDOF 6
ENDMDL
MODEL 3
REMARK VINA RESULT:      -8.8      0.288      1.020
REMARK  Name = 
REMARK  6 active torsions:
REMARK  status: ('A' for Active; 'I' for Inactive)
REMARK    1  A    between atoms: C_2  and  C_15
REMARK    2  A    between atoms: N_3  and  C_4
REMARK    3  A    between atoms: C_4  and  C_5
REMARK    4  A    between atoms: C_10  and  C_11
REMARK    5  A    between atoms: C_17  and  C_18
REMARK    6  A    between atoms: C_23  and  C_24
REMARK                            x       y       z     vdW  Elec       q    Type
REMARK                         _______ _______ _______ _____ _____    ______ ____
ROOT
ATOM      1  O   UNL     1       1.050   3.454  20.785  0.00  0.00    +0.000 OA
ATOM      2  C   UNL     1       1.434   4.427  20.172  0.00  0.00    +0.000 C 
ATOM      3  N   UNL     1       1.698   5.627  20.818  0.00  0.00    +0.000 N 
ATOM      4  H   UNL     1       1.329   5.734  21.754  0.00  0.00    +0.000 HD
ENDROOT
BRANCH   2   5
ATOM      5  C   UNL     1       1.575   4.409  18.640  0.00  0.00    +0.000 C 
ATOM      6  C   UNL     1       2.665   5.237  18.007  0.00  0.00    +0.000 C 
ATOM      7  C   UNL     1       3.493   4.146  17.404  0.00  0.00    +0.000 C 
ATOM      8  N   UNL     1       3.006   2.988  17.510  0.00  0.00    +0.000 NA
ATOM      9  O   UNL     1       1.717   3.092  18.098  0.00  0.00    +0.000 OA
BRANCH   7  10
ATOM     10  C   UNL     1       4.767   4.420  16.703  0.00  0.00    +0.000 A 
ATOM     11  C   UNL     1       4.795   4.239  15.316  0.00  0.00    +0.000 A 
ATOM     12  C   UNL     1       5.970   4.422  14.601  0.00  0.00    +0.000 A 
ATOM     13  C   UNL     1       7.133   4.793  15.268  0.00  0.00    +0.000 A 
ATOM     14  C   UNL     1       7.114   4.982  16.648  0.00  0.00    +0.000 A 
ATOM     15  C   UNL     1       5.938   4.804  17.397  0.00  0.00    +0.000 A 
BRANCH  15  16
ATOM     16  C   UNL     1       6.009   4.946  18.909  0.00  0.00    +0.000 C 
ATOM     17  F   UNL     1       5.264   5.874  19.494  0.00  0.00    +0.000 F 
ATOM     18  F   UNL     1       5.617   3.790  19.518  0.00  0.00    +0.000 F 
ATOM     19  F   UNL     1       7.288   5.167  19.344  0.00  0.00    +0.000 F 
ENDBRANCH  15  16
ENDBRANCH   7  10
ENDBRANCH   2   5
BRANCH   3  20
ATOM     20  C   UNL     1       2.236   6.794  20.164  0.00  0.00    +0.000 C 
BRANCH  20  21
ATOM     21  C   UNL     1       1.520   8.095  20.456  0.00  0.00    +0.000 A 
ATOM     22  C   UNL     1       1.044   8.311  21.767  0.00  0.00    +0.000 A 
ATOM     23  C   UNL     1       0.309   9.435  22.097  0.00  0.00    +0.000 A 
ATOM     24  C   UNL     1       0.036  10.377  21.117  0.00  0.00    +0.000 A 
ATOM     25  C   UNL     1       0.555  10.231  19.839  0.00  0.00    +0.000 A 
ATOM     26  C   UNL     1       1.336   9.116  19.490  0.00  0.00    +0.000 A 
BRANCH  26  27
ATOM     27  C   UNL     1       1.893   9.069  18.082  0.00  0.00    +0.000 C 
ATOM     28  F   UNL     1       1.957  10.277  17.460  0.00  0.00    +0.000 F 
ATOM     29  F   UNL     1       3.177   8.599  18.076  0.00  0.00    +0.000 F 
ATOM     30  F   UNL     1       1.216   8.246  17.233  0.00  0.00    +0.000 F 
ENDBRANCH  26  27
ENDBRANCH  20  21
ENDBRANCH   3  20
TORSDOF 6
ENDMDL
MODEL 4
REMARK VINA RESULT:      -8.6      3.566      4.863
REMARK  Name = 
REMARK  6 active torsions:
REMARK  status: ('A' for Active; 'I' for Inactive)
REMARK    1  A    between atoms: C_2  and  C_15
REMARK    2  A    between atoms: N_3  and  C_4
REMARK    3  A    between atoms: C_4  and  C_5
REMARK    4  A    between atoms: C_10  and  C_11
REMARK    5  A    between atoms: C_17  and  C_18
REMARK    6  A    between atoms: C_23  and  C_24
REMARK                            x       y       z     vdW  Elec       q    Type
REMARK                         _______ _______ _______ _____ _____    ______ ____
ROOT
ATOM      1  O   UNL     1       2.554  10.823  18.080  0.00  0.00    +0.000 OA
ATOM      2  C   UNL     1       1.523  10.377  18.535  0.00  0.00    +0.000 C 
ATOM      3  N   UNL     1       0.566  11.209  19.100  0.00  0.00    +0.000 N 
ATOM      4  H   UNL     1       0.860  12.148  19.341  0.00  0.00    +0.000 HD
ENDROOT
BRANCH   2   5
ATOM      5  C   UNL     1       1.253   8.863  18.583  0.00  0.00    +0.000 C 
ATOM      6  C   UNL     1       1.831   7.994  17.494  0.00  0.00    +0.000 C 
ATOM      7  C   UNL     1       2.761   7.152  18.312  0.00  0.00    +0.000 C 
ATOM      8  N   UNL     1       2.695   7.342  19.557  0.00  0.00    +0.000 NA
ATOM      9  O   UNL     1       1.639   8.255  19.819  0.00  0.00    +0.000 OA
BRANCH   7  10
ATOM     10  C   UNL     1       3.658   6.148  17.699  0.00  0.00    +0.000 A 
ATOM     11  C   UNL     1       4.897   6.590  17.225  0.00  0.00    +0.000 A 
ATOM     12  C   UNL     1       5.767   5.716  16.589  0.00  0.00    +0.000 A 
ATOM     13  C   UNL     1       5.404   4.383  16.421  0.00  0.00    +0.000 A 
ATOM     14  C   UNL     1       4.174   3.931  16.894  0.00  0.00    +0.000 A 
ATOM     15  C   UNL     1       3.275   4.795  17.543  0.00  0.00    +0.000 A 
BRANCH  15  16
ATOM     16  C   UNL     1       1.917   4.254  17.960  0.00  0.00    +0.000 C 
ATOM     17  F   UNL     1       1.495   4.486  19.196  0.00  0.00    +0.000 F 
ATOM     18  F   UNL     1       0.931   4.781  17.180  0.00  0.00    +0.000 F 
ATOM     19  F   UNL     1       1.829   2.898  17.786  0.00  0.00    +0.000 F 
ENDBRANCH  15  16
ENDBRANCH   7  10
ENDBRANCH   2   5
BRANCH   3  20
ATOM     20  C   UNL     1      -0.715  10.756  19.582  0.00  0.00    +0.000 C 
BRANCH  20  21
ATOM     21  C   UNL     1      -1.251  11.483  20.795  0.00  0.00    +0.000 A 
ATOM     22  C   UNL     1      -2.088  12.599  20.585  0.00  0.00    +0.000 A 
ATOM     23  C   UNL     1      -2.553  13.367  21.636  0.00  0.00    +0.000 A 
ATOM     24  C   UNL     1      -2.192  13.031  22.932  0.00  0.00    +0.000 A 
ATOM     25  C   UNL     1      -1.433  11.897  23.177  0.00  0.00    +0.000 A 
ATOM     26  C   UNL     1      -0.981  11.079  22.127  0.00  0.00    +0.000 A 
BRANCH  26  27
ATOM     27  C   UNL     1      -0.196   9.838  22.499  0.00  0.00    +0.000 C 
ATOM     28  F   UNL     1      -0.642   8.692  21.917  0.00  0.00    +0.000 F 
ATOM     29  F   UNL     1       1.111   9.947  22.111  0.00  0.00    +0.000 F 
ATOM     30  F   UNL     1      -0.142   9.581  23.836  0.00  0.00    +0.000 F 
ENDBRANCH  26  27
ENDBRANCH  20  21
ENDBRANCH   3  20
TORSDOF 6
ENDMDL
MODEL 5
REMARK VINA RESULT:      -8.3      1.356      6.224
REMARK  Name = 
REMARK  6 active torsions:
REMARK  status: ('A' for Active; 'I' for Inactive)
REMARK    1  A    between atoms: C_2  and  C_15
REMARK    2  A    between atoms: N_3  and  C_4
REMARK    3  A    between atoms: C_4  and  C_5
REMARK    4  A    between atoms: C_10  and  C_11
REMARK    5  A    between atoms: C_17  and  C_18
REMARK    6  A    between atoms: C_23  and  C_24
REMARK                            x       y       z     vdW  Elec       q    Type
REMARK                         _______ _______ _______ _____ _____    ______ ____
ROOT
ATOM      1  O   UNL     1       2.333   1.545  18.967  0.00  0.00    +0.000 OA
ATOM      2  C   UNL     1       3.080   2.473  19.190  0.00  0.00    +0.000 C 
ATOM      3  N   UNL     1       4.204   2.698  18.405  0.00  0.00    +0.000 N 
ATOM      4  H   UNL     1       4.508   1.936  17.812  0.00  0.00    +0.000 HD
ENDROOT
BRANCH   2   5
ATOM      5  C   UNL     1       2.870   3.403  20.397  0.00  0.00    +0.000 C 
ATOM      6  C   UNL     1       3.244   4.858  20.258  0.00  0.00    +0.000 C 
ATOM      7  C   UNL     1       1.893   5.482  20.422  0.00  0.00    +0.000 C 
ATOM      8  N   UNL     1       0.966   4.676  20.707  0.00  0.00    +0.000 NA
ATOM      9  O   UNL     1       1.531   3.387  20.901  0.00  0.00    +0.000 OA
BRANCH   7  10
ATOM     10  C   UNL     1       1.679   6.940  20.295  0.00  0.00    +0.000 A 
ATOM     11  C   UNL     1       0.989   7.585  21.326  0.00  0.00    +0.000 A 
ATOM     12  C   UNL     1       0.702   8.941  21.248  0.00  0.00    +0.000 A 
ATOM     13  C   UNL     1       1.106   9.668  20.133  0.00  0.00    +0.000 A 
ATOM     14  C   UNL     1       1.798   9.036  19.103  0.00  0.00    +0.000 A 
ATOM     15  C   UNL     1       2.103   7.664  19.157  0.00  0.00    +0.000 A 
BRANCH  15  16
ATOM     16  C   UNL     1       2.788   7.023  17.960  0.00  0.00    +0.000 C 
ATOM     17  F   UNL     1       2.367   5.834  17.553  0.00  0.00    +0.000 F 
ATOM     18  F   UNL     1       2.653   7.807  16.853  0.00  0.00    +0.000 F 
ATOM     19  F   UNL     1       4.138   6.895  18.150  0.00  0.00    +0.000 F 
ENDBRANCH  15  16
ENDBRANCH   7  10
ENDBRANCH   2   5
BRANCH   3  20
ATOM     20  C   UNL     1       5.084   3.828  18.562  0.00  0.00    +0.000 C 
BRANCH  20  21
ATOM     21  C   UNL     1       5.668   4.383  17.282  0.00  0.00    +0.000 A 
ATOM     22  C   UNL     1       5.021   4.075  16.067  0.00  0.00    +0.000 A 
ATOM     23  C   UNL     1       5.535   4.474  14.847  0.00  0.00    +0.000 A 
ATOM     24  C   UNL     1       6.716   5.199  14.815  0.00  0.00    +0.000 A 
ATOM     25  C   UNL     1       7.336   5.584  15.994  0.00  0.00    +0.000 A 
ATOM     26  C   UNL     1       6.812   5.222  17.247  0.00  0.00    +0.000 A 
BRANCH  26  27
ATOM     27  C   UNL     1       7.537   5.726  18.478  0.00  0.00    +0.000 C 
ATOM     28  F   UNL     1       6.755   5.844  19.585  0.00  0.00    +0.000 F 
ATOM     29  F   UNL     1       8.540   4.872  18.843  0.00  0.00    +0.000 F 
ATOM     30  F   UNL     1       8.147   6.934  18.321  0.00  0.00    +0.000 F 
ENDBRANCH  26  27
ENDBRANCH  20  21
ENDBRANCH   3  20
TORSDOF 6
ENDMDL
MODEL 6
REMARK VINA RESULT:      -8.1      1.838      2.355
REMARK  Name = 
REMARK  6 active torsions:
REMARK  status: ('A' for Active; 'I' for Inactive)
REMARK    1  A    between atoms: C_2  and  C_15
REMARK    2  A    between atoms: N_3  and  C_4
REMARK    3  A    between atoms: C_4  and  C_5
REMARK    4  A    between atoms: C_10  and  C_11
REMARK    5  A    between atoms: C_17  and  C_18
REMARK    6  A    between atoms: C_23  and  C_24
REMARK                            x       y       z     vdW  Elec       q    Type
REMARK                         _______ _______ _______ _____ _____    ______ ____
ROOT
ATOM      1  O   UNL     1       2.110   3.370  22.127  0.00  0.00    +0.000 OA
ATOM      2  C   UNL     1       2.269   4.120  21.188  0.00  0.00    +0.000 C 
ATOM      3  N   UNL     1       1.834   5.438  21.236  0.00  0.00    +0.000 N 
ATOM      4  H   UNL     1       1.174   5.675  21.966  0.00  0.00    +0.000 HD
ENDROOT
BRANCH   2   5
ATOM      5  C   UNL     1       2.888   3.633  19.866  0.00  0.00    +0.000 C 
ATOM      6  C   UNL     1       3.417   4.662  18.898  0.00  0.00    +0.000 C 
ATOM      7  C   UNL     1       4.868   4.295  18.909  0.00  0.00    +0.000 C 
ATOM      8  N   UNL     1       5.152   3.265  19.580  0.00  0.00    +0.000 NA
ATOM      9  O   UNL     1       3.943   2.684  20.048  0.00  0.00    +0.000 OA
BRANCH   7  10
ATOM     10  C   UNL     1       5.882   5.066  18.156  0.00  0.00    +0.000 A 
ATOM     11  C   UNL     1       6.669   5.974  18.872  0.00  0.00    +0.000 A 
ATOM     12  C   UNL     1       7.600   6.771  18.223  0.00  0.00    +0.000 A 
ATOM     13  C   UNL     1       7.756   6.667  16.844  0.00  0.00    +0.000 A 
ATOM     14  C   UNL     1       6.981   5.762  16.122  0.00  0.00    +0.000 A 
ATOM     15  C   UNL     1       6.031   4.941  16.755  0.00  0.00    +0.000 A 
BRANCH  15  16
ATOM     16  C   UNL     1       5.163   4.036  15.895  0.00  0.00    +0.000 C 
ATOM     17  F   UNL     1       3.853   4.033  16.102  0.00  0.00    +0.000 F 
ATOM     18  F   UNL     1       5.278   4.370  14.579  0.00  0.00    +0.000 F 
ATOM     19  F   UNL     1       5.554   2.726  15.971  0.00  0.00    +0.000 F 
ENDBRANCH  15  16
ENDBRANCH   7  10
ENDBRANCH   2   5
BRANCH   3  20
ATOM     20  C   UNL     1       2.066   6.403  20.191  0.00  0.00    +0.000 C 
BRANCH  20  21
ATOM     21  C   UNL     1       1.541   7.796  20.461  0.00  0.00    +0.000 A 
ATOM     22  C   UNL     1       1.083   8.094  21.762  0.00  0.00    +0.000 A 
ATOM     23  C   UNL     1       0.514   9.315  22.070  0.00  0.00    +0.000 A 
ATOM     24  C   UNL     1       0.391  10.275  21.078  0.00  0.00    +0.000 A 
ATOM     25  C   UNL     1       0.900  10.041  19.809  0.00  0.00    +0.000 A 
ATOM     26  C   UNL     1       1.518   8.822  19.482  0.00  0.00    +0.000 A 
BRANCH  26  27
ATOM     27  C   UNL     1       2.080   8.679  18.083  0.00  0.00    +0.000 C 
ATOM     28  F   UNL     1       1.409   7.797  17.293  0.00  0.00    +0.000 F 
ATOM     29  F   UNL     1       2.031   9.866  17.408  0.00  0.00    +0.000 F 
ATOM     30  F   UNL     1       3.389   8.304  18.034  0.00  0.00    +0.000 F 
ENDBRANCH  26  27
ENDBRANCH  20  21
ENDBRANCH   3  20
TORSDOF 6
ENDMDL
MODEL 7
REMARK VINA RESULT:      -8.1      2.007      6.666
REMARK  Name = 
REMARK  6 active torsions:
REMARK  status: ('A' for Active; 'I' for Inactive)
REMARK    1  A    between atoms: C_2  and  C_15
REMARK    2  A    between atoms: N_3  and  C_4
REMARK    3  A    between atoms: C_4  and  C_5
REMARK    4  A    between atoms: C_10  and  C_11
REMARK    5  A    between atoms: C_17  and  C_18
REMARK    6  A    between atoms: C_23  and  C_24
REMARK                            x       y       z     vdW  Elec       q    Type
REMARK                         _______ _______ _______ _____ _____    ______ ____
ROOT
ATOM      1  O   UNL     1       1.480   3.386  19.039  0.00  0.00    +0.000 OA
ATOM      2  C   UNL     1       2.610   3.800  19.185  0.00  0.00    +0.000 C 
ATOM      3  N   UNL     1       3.697   3.136  18.632  0.00  0.00    +0.000 N 
ATOM      4  H   UNL     1       3.543   2.184  18.324  0.00  0.00    +0.000 HD
ENDROOT
BRANCH   2   5
ATOM      5  C   UNL     1       2.909   5.035  20.052  0.00  0.00    +0.000 C 
ATOM      6  C   UNL     1       3.107   6.365  19.368  0.00  0.00    +0.000 C 
ATOM      7  C   UNL     1       1.938   7.113  19.930  0.00  0.00    +0.000 C 
ATOM      8  N   UNL     1       1.277   6.489  20.804  0.00  0.00    +0.000 NA
ATOM      9  O   UNL     1       1.935   5.259  21.076  0.00  0.00    +0.000 OA
BRANCH   7  10
ATOM     10  C   UNL     1       1.615   8.495  19.514  0.00  0.00    +0.000 A 
ATOM     11  C   UNL     1       2.001   8.892  18.229  0.00  0.00    +0.000 A 
ATOM     12  C   UNL     1       1.780  10.189  17.791  0.00  0.00    +0.000 A 
ATOM     13  C   UNL     1       1.166  11.108  18.637  0.00  0.00    +0.000 A 
ATOM     14  C   UNL     1       0.772  10.721  19.916  0.00  0.00    +0.000 A 
ATOM     15  C   UNL     1       0.983   9.413  20.385  0.00  0.00    +0.000 A 
BRANCH  15  16
ATOM     16  C   UNL     1       0.603   9.083  21.819  0.00  0.00    +0.000 C 
ATOM     17  F   UNL     1       1.530   8.575  22.619  0.00  0.00    +0.000 F 
ATOM     18  F   UNL     1       0.193  10.205  22.477  0.00  0.00    +0.000 F 
ATOM     19  F   UNL     1      -0.457   8.219  21.884  0.00  0.00    +0.000 F 
ENDBRANCH  15  16
ENDBRANCH   7  10
ENDBRANCH   2   5
BRANCH   3  20
ATOM     20  C   UNL     1       5.054   3.617  18.695  0.00  0.00    +0.000 C 
BRANCH  20  21
ATOM     21  C   UNL     1       5.588   4.232  17.420  0.00  0.00    +0.000 A 
ATOM     22  C   UNL     1       4.944   3.912  16.206  0.00  0.00    +0.000 A 
ATOM     23  C   UNL     1       5.418   4.365  14.990  0.00  0.00    +0.000 A 
ATOM     24  C   UNL     1       6.555   5.158  14.959  0.00  0.00    +0.000 A 
ATOM     25  C   UNL     1       7.167   5.553  16.139  0.00  0.00    +0.000 A 
ATOM     26  C   UNL     1       6.681   5.136  17.390  0.00  0.00    +0.000 A 
BRANCH  26  27
ATOM     27  C   UNL     1       7.391   5.656  18.623  0.00  0.00    +0.000 C 
ATOM     28  F   UNL     1       6.603   5.761  19.727  0.00  0.00    +0.000 F 
ATOM     29  F   UNL     1       8.409   4.822  18.993  0.00  0.00    +0.000 F 
ATOM     30  F   UNL     1       7.979   6.875  18.466  0.00  0.00    +0.000 F 
ENDBRANCH  26  27
ENDBRANCH  20  21
ENDBRANCH   3  20
TORSDOF 6
ENDMDL
MODEL 8
REMARK VINA RESULT:      -8.1      1.076      6.909
REMARK  Name = 
REMARK  6 active torsions:
REMARK  status: ('A' for Active; 'I' for Inactive)
REMARK    1  A    between atoms: C_2  and  C_15
REMARK    2  A    between atoms: N_3  and  C_4
REMARK    3  A    between atoms: C_4  and  C_5
REMARK    4  A    between atoms: C_10  and  C_11
REMARK    5  A    between atoms: C_17  and  C_18
REMARK    6  A    between atoms: C_23  and  C_24
REMARK                            x       y       z     vdW  Elec       q    Type
REMARK                         _______ _______ _______ _____ _____    ______ ____
ROOT
ATOM      1  O   UNL     1       1.251   3.973  17.657  0.00  0.00    +0.000 OA
ATOM      2  C   UNL     1       2.415   4.107  17.966  0.00  0.00    +0.000 C 
ATOM      3  N   UNL     1       3.432   3.554  17.199  0.00  0.00    +0.000 N 
ATOM      4  H   UNL     1       3.166   2.844  16.529  0.00  0.00    +0.000 HD
ENDROOT
BRANCH   2   5
ATOM      5  C   UNL     1       2.826   4.825  19.263  0.00  0.00    +0.000 C 
ATOM      6  C   UNL     1       2.947   6.329  19.246  0.00  0.00    +0.000 C 
ATOM      7  C   UNL     1       1.861   6.679  20.215  0.00  0.00    +0.000 C 
ATOM      8  N   UNL     1       1.307   5.693  20.773  0.00  0.00    +0.000 NA
ATOM      9  O   UNL     1       1.986   4.510  20.378  0.00  0.00    +0.000 OA
BRANCH   7  10
ATOM     10  C   UNL     1       1.497   8.081  20.516  0.00  0.00    +0.000 A 
ATOM     11  C   UNL     1       1.168   8.395  21.839  0.00  0.00    +0.000 A 
ATOM     12  C   UNL     1       0.762   9.676  22.184  0.00  0.00    +0.000 A 
ATOM     13  C   UNL     1       0.684  10.662  21.205  0.00  0.00    +0.000 A 
ATOM     14  C   UNL     1       1.015  10.361  19.886  0.00  0.00    +0.000 A 
ATOM     15  C   UNL     1       1.429   9.072  19.509  0.00  0.00    +0.000 A 
BRANCH  15  16
ATOM     16  C   UNL     1       1.696   8.794  18.038  0.00  0.00    +0.000 C 
ATOM     17  F   UNL     1       1.102   7.752  17.473  0.00  0.00    +0.000 F 
ATOM     18  F   UNL     1       1.293   9.846  17.271  0.00  0.00    +0.000 F 
ATOM     19  F   UNL     1       3.032   8.646  17.777  0.00  0.00    +0.000 F 
ENDBRANCH  15  16
ENDBRANCH   7  10
ENDBRANCH   2   5
BRANCH   3  20
ATOM     20  C   UNL     1       4.837   3.746  17.462  0.00  0.00    +0.000 C 
BRANCH  20  21
ATOM     21  C   UNL     1       5.665   4.207  16.283  0.00  0.00    +0.000 A 
ATOM     22  C   UNL     1       5.293   3.766  14.995  0.00  0.00    +0.000 A 
ATOM     23  C   UNL     1       6.043   4.074  13.876  0.00  0.00    +0.000 A 
ATOM     24  C   UNL     1       7.189   4.841  14.020  0.00  0.00    +0.000 A 
ATOM     25  C   UNL     1       7.540   5.354  15.259  0.00  0.00    +0.000 A 
ATOM     26  C   UNL     1       6.772   5.085  16.405  0.00  0.00    +0.000 A 
BRANCH  26  27
ATOM     27  C   UNL     1       7.212   5.726  17.705  0.00  0.00    +0.000 C 
ATOM     28  F   UNL     1       6.193   6.070  18.538  0.00  0.00    +0.000 F 
ATOM     29  F   UNL     1       7.993   4.873  18.435  0.00  0.00    +0.000 F 
ATOM     30  F   UNL     1       7.969   6.849  17.556  0.00  0.00    +0.000 F 
ENDBRANCH  26  27
ENDBRANCH  20  21
ENDBRANCH   3  20
TORSDOF 6
ENDMDL
MODEL 9
REMARK VINA RESULT:      -8.1      3.155      8.484
REMARK  Name = 
REMARK  6 active torsions:
REMARK  status: ('A' for Active; 'I' for Inactive)
REMARK    1  A    between atoms: C_2  and  C_15
REMARK    2  A    between atoms: N_3  and  C_4
REMARK    3  A    between atoms: C_4  and  C_5
REMARK    4  A    between atoms: C_10  and  C_11
REMARK    5  A    between atoms: C_17  and  C_18
REMARK    6  A    between atoms: C_23  and  C_24
REMARK                            x       y       z     vdW  Elec       q    Type
REMARK                         _______ _______ _______ _____ _____    ______ ____
ROOT
ATOM      1  O   UNL     1       1.628   8.967  17.721  0.00  0.00    +0.000 OA
ATOM      2  C   UNL     1       1.961   8.230  18.624  0.00  0.00    +0.000 C 
ATOM      3  N   UNL     1       2.494   6.973  18.369  0.00  0.00    +0.000 N 
ATOM      4  H   UNL     1       2.366   6.603  17.436  0.00  0.00    +0.000 HD
ENDROOT
BRANCH   2   5
ATOM      5  C   UNL     1       1.740   8.612  20.098  0.00  0.00    +0.000 C 
ATOM      6  C   UNL     1       1.373  10.038  20.425  0.00  0.00    +0.000 C 
ATOM      7  C   UNL     1       0.006   9.821  20.996  0.00  0.00    +0.000 C 
ATOM      8  N   UNL     1      -0.336   8.613  21.115  0.00  0.00    +0.000 NA
ATOM      9  O   UNL     1       0.768   7.794  20.757  0.00  0.00    +0.000 OA
BRANCH   7  10
ATOM     10  C   UNL     1      -0.856  10.945  21.423  0.00  0.00    +0.000 A 
ATOM     11  C   UNL     1      -0.917  11.232  22.790  0.00  0.00    +0.000 A 
ATOM     12  C   UNL     1      -1.748  12.235  23.268  0.00  0.00    +0.000 A 
ATOM     13  C   UNL     1      -2.529  12.967  22.378  0.00  0.00    +0.000 A 
ATOM     14  C   UNL     1      -2.471  12.693  21.014  0.00  0.00    +0.000 A 
ATOM     15  C   UNL     1      -1.637  11.683  20.503  0.00  0.00    +0.000 A 
BRANCH  15  16
ATOM     16  C   UNL     1      -1.686  11.383  19.013  0.00  0.00    +0.000 C 
ATOM     17  F   UNL     1      -1.926  10.138  18.625  0.00  0.00    +0.000 F 
ATOM     18  F   UNL     1      -2.674  12.103  18.411  0.00  0.00    +0.000 F 
ATOM     19  F   UNL     1      -0.531  11.754  18.377  0.00  0.00    +0.000 F 
ENDBRANCH  15  16
ENDBRANCH   7  10
ENDBRANCH   2   5
BRANCH   3  20
ATOM     20  C   UNL     1       2.987   6.083  19.390  0.00  0.00    +0.000 C 
BRANCH  20  21
ATOM     21  C   UNL     1       3.096   4.628  18.990  0.00  0.00    +0.000 A 
ATOM     22  C   UNL     1       3.962   4.293  17.928  0.00  0.00    +0.000 A 
ATOM     23  C   UNL     1       4.057   3.000  17.448  0.00  0.00    +0.000 A 
ATOM     24  C   UNL     1       3.286   2.005  18.027  0.00  0.00    +0.000 A 
ATOM     25  C   UNL     1       2.483   2.286  19.122  0.00  0.00    +0.000 A 
ATOM     26  C   UNL     1       2.398   3.585  19.652  0.00  0.00    +0.000 A 
BRANCH  26  27
ATOM     27  C   UNL     1       1.528   3.784  20.875  0.00  0.00    +0.000 C 
ATOM     28  F   UNL     1       0.913   2.654  21.320  0.00  0.00    +0.000 F 
ATOM     29  F   UNL     1       2.264   4.227  21.938  0.00  0.00    +0.000 F 
ATOM     30  F   UNL     1       0.541   4.711  20.724  0.00  0.00    +0.000 F 
ENDBRANCH  26  27
ENDBRANCH  20  21
ENDBRANCH   3  20
TORSDOF 6
ENDMDL
