MODEL 1
REMARK VINA RESULT:      -7.0      0.000      0.000
REMARK  Name = 
REMARK  4 active torsions:
REMARK  status: ('A' for Active; 'I' for Inactive)
REMARK    1  A    between atoms: C_1  and  C_2
REMARK    2  A    between atoms: C_2  and  N_3
REMARK    3  A    between atoms: C_7  and  C_8
REMARK    4  A    between atoms: N_16  and  C_17
REMARK                            x       y       z     vdW  Elec       q    Type
REMARK                         _______ _______ _______ _____ _____    ______ ____
ROOT
ATOM      1  N   UNL     1       0.150  10.769  20.228  0.00  0.00    +0.000 N 
ATOM      2  C   UNL     1       0.872   9.682  19.692  0.00  0.00    +0.000 A 
ATOM      3  C   UNL     1       1.091   9.631  18.325  0.00  0.00    +0.000 A 
ATOM      4  C   UNL     1       1.828   8.577  17.781  0.00  0.00    +0.000 A 
ATOM      5  C   UNL     1       2.288   7.561  18.610  0.00  0.00    +0.000 A 
ATOM      6  N   UNL     1       1.999   7.604  19.925  0.00  0.00    +0.000 NA
ATOM      7  N   UNL     1       1.298   8.665  20.464  0.00  0.00    +0.000 NA
ATOM      8  H   UNL     1       0.362  11.609  19.699  0.00  0.00    +0.000 HD
ENDROOT
BRANCH   5   9
ATOM      9  C   UNL     1       3.096   6.431  18.133  0.00  0.00    +0.000 A 
ATOM     10  C   UNL     1       4.282   6.599  17.392  0.00  0.00    +0.000 A 
ATOM     11  C   UNL     1       5.022   5.492  17.004  0.00  0.00    +0.000 A 
ATOM     12  N   UNL     1       4.712   4.209  17.272  0.00  0.00    +0.000 NA
ATOM     13  C   UNL     1       3.566   4.075  17.968  0.00  0.00    +0.000 A 
ATOM     14  C   UNL     1       2.724   5.092  18.421  0.00  0.00    +0.000 A 
ATOM     15  C   UNL     1       1.654   4.440  19.106  0.00  0.00    +0.000 A 
ATOM     16  C   UNL     1       1.866   3.079  19.048  0.00  0.00    +0.000 A 
ATOM     17  N   UNL     1       3.029   2.871  18.358  0.00  0.00    +0.000 N 
ATOM     18  C   UNL     1       3.619   1.587  18.073  0.00  0.00    +0.000 C 
ENDBRANCH   5   9
BRANCH   1  20
ATOM     19  C   UNL     1      -0.878  10.936  22.429  0.00  0.00    +0.000 C 
ATOM     20  C   UNL     1       0.427  10.961  21.652  0.00  0.00    +0.000 C 
ENDBRANCH   1  20
TORSDOF 2
ENDMDL
MODEL 2
REMARK VINA RESULT:      -6.9      1.305      2.747
REMARK  Name = 
REMARK  4 active torsions:
REMARK  status: ('A' for Active; 'I' for Inactive)
REMARK    1  A    between atoms: C_1  and  C_2
REMARK    2  A    between atoms: C_2  and  N_3
REMARK    3  A    between atoms: C_7  and  C_8
REMARK    4  A    between atoms: N_16  and  C_17
REMARK                            x       y       z     vdW  Elec       q    Type
REMARK                         _______ _______ _______ _____ _____    ______ ____
ROOT
ATOM      1  N   UNL     1       0.659   9.840  21.027  0.00  0.00    +0.000 N 
ATOM      2  C   UNL     1       1.252   8.811  20.267  0.00  0.00    +0.000 A 
ATOM      3  C   UNL     1       1.554   9.050  18.935  0.00  0.00    +0.000 A 
ATOM      4  C   UNL     1       2.168   8.052  18.176  0.00  0.00    +0.000 A 
ATOM      5  C   UNL     1       2.420   6.811  18.747  0.00  0.00    +0.000 A 
ATOM      6  N   UNL     1       2.052   6.588  20.024  0.00  0.00    +0.000 NA
ATOM      7  N   UNL     1       1.475   7.588  20.782  0.00  0.00    +0.000 NA
ATOM      8  H   UNL     1       1.023  10.738  20.725  0.00  0.00    +0.000 HD
ENDROOT
BRANCH   5   9
ATOM      9  C   UNL     1       3.089   5.714  18.037  0.00  0.00    +0.000 A 
ATOM     10  C   UNL     1       2.501   4.446  17.864  0.00  0.00    +0.000 A 
ATOM     11  C   UNL     1       3.168   3.462  17.149  0.00  0.00    +0.000 A 
ATOM     12  N   UNL     1       4.379   3.594  16.575  0.00  0.00    +0.000 NA
ATOM     13  C   UNL     1       4.926   4.810  16.768  0.00  0.00    +0.000 A 
ATOM     14  C   UNL     1       4.375   5.889  17.461  0.00  0.00    +0.000 A 
ATOM     15  C   UNL     1       5.334   6.943  17.376  0.00  0.00    +0.000 A 
ATOM     16  C   UNL     1       6.418   6.487  16.656  0.00  0.00    +0.000 A 
ATOM     17  N   UNL     1       6.157   5.195  16.290  0.00  0.00    +0.000 N 
ATOM     18  C   UNL     1       7.030   4.346  15.519  0.00  0.00    +0.000 C 
ENDBRANCH   5   9
BRANCH   1  20
ATOM     19  C   UNL     1      -0.473   9.747  23.181  0.00  0.00    +0.000 C 
ATOM     20  C   UNL     1       0.862   9.647  22.463  0.00  0.00    +0.000 C 
ENDBRANCH   1  20
TORSDOF 2
ENDMDL
MODEL 3
REMARK VINA RESULT:      -6.8      2.053      7.097
REMARK  Name = 
REMARK  4 active torsions:
REMARK  status: ('A' for Active; 'I' for Inactive)
REMARK    1  A    between atoms: C_1  and  C_2
REMARK    2  A    between atoms: C_2  and  N_3
REMARK    3  A    between atoms: C_7  and  C_8
REMARK    4  A    between atoms: N_16  and  C_17
REMARK                            x       y       z     vdW  Elec       q    Type
REMARK                         _______ _______ _______ _____ _____    ______ ____
ROOT
ATOM      1  N   UNL     1       6.717   4.561  14.499  0.00  0.00    +0.000 N 
ATOM      2  C   UNL     1       5.875   4.971  15.554  0.00  0.00    +0.000 A 
ATOM      3  C   UNL     1       6.209   6.106  16.276  0.00  0.00    +0.000 A 
ATOM      4  C   UNL     1       5.373   6.543  17.305  0.00  0.00    +0.000 A 
ATOM      5  C   UNL     1       4.242   5.804  17.631  0.00  0.00    +0.000 A 
ATOM      6  N   UNL     1       3.982   4.667  16.955  0.00  0.00    +0.000 NA
ATOM      7  N   UNL     1       4.794   4.257  15.917  0.00  0.00    +0.000 NA
ATOM      8  H   UNL     1       7.108   5.378  14.041  0.00  0.00    +0.000 HD
ENDROOT
BRANCH   5   9
ATOM      9  C   UNL     1       3.288   6.201  18.674  0.00  0.00    +0.000 A 
ATOM     10  C   UNL     1       3.001   5.396  19.793  0.00  0.00    +0.000 A 
ATOM     11  C   UNL     1       2.119   5.844  20.765  0.00  0.00    +0.000 A 
ATOM     12  N   UNL     1       1.474   7.026  20.754  0.00  0.00    +0.000 NA
ATOM     13  C   UNL     1       1.754   7.771  19.666  0.00  0.00    +0.000 A 
ATOM     14  C   UNL     1       2.615   7.450  18.615  0.00  0.00    +0.000 A 
ATOM     15  C   UNL     1       2.573   8.560  17.719  0.00  0.00    +0.000 A 
ATOM     16  C   UNL     1       1.706   9.501  18.233  0.00  0.00    +0.000 A 
ATOM     17  N   UNL     1       1.220   9.013  19.414  0.00  0.00    +0.000 N 
ATOM     18  C   UNL     1       0.284   9.685  20.280  0.00  0.00    +0.000 C 
ENDBRANCH   5   9
BRANCH   1  20
ATOM     19  C   UNL     1       6.719   3.772  12.196  0.00  0.00    +0.000 C 
ATOM     20  C   UNL     1       6.017   3.706  13.541  0.00  0.00    +0.000 C 
ENDBRANCH   1  20
TORSDOF 2
ENDMDL
MODEL 4
REMARK VINA RESULT:      -6.8      1.394      1.678
REMARK  Name = 
REMARK  4 active torsions:
REMARK  status: ('A' for Active; 'I' for Inactive)
REMARK    1  A    between atoms: C_1  and  C_2
REMARK    2  A    between atoms: C_2  and  N_3
REMARK    3  A    between atoms: C_7  and  C_8
REMARK    4  A    between atoms: N_16  and  C_17
REMARK                            x       y       z     vdW  Elec       q    Type
REMARK                         _______ _______ _______ _____ _____    ______ ____
ROOT
ATOM      1  N   UNL     1      -0.047  10.949  19.777  0.00  0.00    +0.000 N 
ATOM      2  C   UNL     1       0.745   9.849  19.388  0.00  0.00    +0.000 A 
ATOM      3  C   UNL     1       1.156   8.943  20.353  0.00  0.00    +0.000 A 
ATOM      4  C   UNL     1       1.916   7.833  19.980  0.00  0.00    +0.000 A 
ATOM      5  C   UNL     1       2.300   7.677  18.654  0.00  0.00    +0.000 A 
ATOM      6  N   UNL     1       1.942   8.612  17.752  0.00  0.00    +0.000 NA
ATOM      7  N   UNL     1       1.162   9.691  18.118  0.00  0.00    +0.000 NA
ATOM      8  H   UNL     1      -0.665  10.671  20.532  0.00  0.00    +0.000 HD
ENDROOT
BRANCH   5   9
ATOM      9  C   UNL     1       3.071   6.527  18.165  0.00  0.00    +0.000 A 
ATOM     10  C   UNL     1       4.245   6.666  17.398  0.00  0.00    +0.000 A 
ATOM     11  C   UNL     1       4.951   5.541  16.998  0.00  0.00    +0.000 A 
ATOM     12  N   UNL     1       4.618   4.266  17.276  0.00  0.00    +0.000 NA
ATOM     13  C   UNL     1       3.484   4.160  17.997  0.00  0.00    +0.000 A 
ATOM     14  C   UNL     1       2.675   5.198  18.465  0.00  0.00    +0.000 A 
ATOM     15  C   UNL     1       1.606   4.573  19.174  0.00  0.00    +0.000 A 
ATOM     16  C   UNL     1       1.785   3.207  19.116  0.00  0.00    +0.000 A 
ATOM     17  N   UNL     1       2.928   2.970  18.403  0.00  0.00    +0.000 N 
ATOM     18  C   UNL     1       3.483   1.672  18.109  0.00  0.00    +0.000 C 
ENDBRANCH   5   9
BRANCH   1  20
ATOM     19  C   UNL     1      -0.466  12.975  18.493  0.00  0.00    +0.000 C 
ATOM     20  C   UNL     1      -0.804  11.504  18.655  0.00  0.00    +0.000 C 
ENDBRANCH   1  20
TORSDOF 2
ENDMDL
MODEL 5
REMARK VINA RESULT:      -6.7      1.602      2.867
REMARK  Name = 
REMARK  4 active torsions:
REMARK  status: ('A' for Active; 'I' for Inactive)
REMARK    1  A    between atoms: C_1  and  C_2
REMARK    2  A    between atoms: C_2  and  N_3
REMARK    3  A    between atoms: C_7  and  C_8
REMARK    4  A    between atoms: N_16  and  C_17
REMARK                            x       y       z     vdW  Elec       q    Type
REMARK                         _______ _______ _______ _____ _____    ______ ____
ROOT
ATOM      1  N   UNL     1       0.488  10.754  20.167  0.00  0.00    +0.000 N 
ATOM      2  C   UNL     1       1.073   9.571  19.667  0.00  0.00    +0.000 A 
ATOM      3  C   UNL     1       1.388   8.553  20.553  0.00  0.00    +0.000 A 
ATOM      4  C   UNL     1       1.941   7.365  20.072  0.00  0.00    +0.000 A 
ATOM      5  C   UNL     1       2.220   7.236  18.717  0.00  0.00    +0.000 A 
ATOM      6  N   UNL     1       1.966   8.271  17.892  0.00  0.00    +0.000 NA
ATOM      7  N   UNL     1       1.388   9.432  18.367  0.00  0.00    +0.000 NA
ATOM      8  H   UNL     1      -0.124  10.526  20.944  0.00  0.00    +0.000 HD
ENDROOT
BRANCH   5   9
ATOM      9  C   UNL     1       2.772   6.015  18.116  0.00  0.00    +0.000 A 
ATOM     10  C   UNL     1       2.063   4.799  18.072  0.00  0.00    +0.000 A 
ATOM     11  C   UNL     1       2.623   3.689  17.455  0.00  0.00    +0.000 A 
ATOM     12  N   UNL     1       3.833   3.647  16.867  0.00  0.00    +0.000 NA
ATOM     13  C   UNL     1       4.497   4.818  16.937  0.00  0.00    +0.000 A 
ATOM     14  C   UNL     1       4.061   6.008  17.522  0.00  0.00    +0.000 A 
ATOM     15  C   UNL     1       5.115   6.951  17.330  0.00  0.00    +0.000 A 
ATOM     16  C   UNL     1       6.141   6.324  16.655  0.00  0.00    +0.000 A 
ATOM     17  N   UNL     1       5.753   5.033  16.420  0.00  0.00    +0.000 N 
ATOM     18  C   UNL     1       6.531   4.032  15.734  0.00  0.00    +0.000 C 
ENDBRANCH   5   9
BRANCH   1  20
ATOM     19  C   UNL     1      -1.634  11.815  19.618  0.00  0.00    +0.000 C 
ATOM     20  C   UNL     1      -0.233  11.489  19.128  0.00  0.00    +0.000 C 
ENDBRANCH   1  20
TORSDOF 2
ENDMDL
MODEL 6
REMARK VINA RESULT:      -6.6      3.831      5.509
REMARK  Name = 
REMARK  4 active torsions:
REMARK  status: ('A' for Active; 'I' for Inactive)
REMARK    1  A    between atoms: C_1  and  C_2
REMARK    2  A    between atoms: C_2  and  N_3
REMARK    3  A    between atoms: C_7  and  C_8
REMARK    4  A    between atoms: N_16  and  C_17
REMARK                            x       y       z     vdW  Elec       q    Type
REMARK                         _______ _______ _______ _____ _____    ______ ____
ROOT
ATOM      1  N   UNL     1       0.757   3.366  19.817  0.00  0.00    +0.000 N 
ATOM      2  C   UNL     1       1.871   3.874  19.116  0.00  0.00    +0.000 A 
ATOM      3  C   UNL     1       1.784   5.130  18.537  0.00  0.00    +0.000 A 
ATOM      4  C   UNL     1       2.886   5.660  17.865  0.00  0.00    +0.000 A 
ATOM      5  C   UNL     1       4.043   4.900  17.735  0.00  0.00    +0.000 A 
ATOM      6  N   UNL     1       4.072   3.655  18.250  0.00  0.00    +0.000 NA
ATOM      7  N   UNL     1       2.990   3.147  18.944  0.00  0.00    +0.000 NA
ATOM      8  H   UNL     1       0.276   4.128  20.285  0.00  0.00    +0.000 HD
ENDROOT
BRANCH   5   9
ATOM      9  C   UNL     1       5.260   5.385  17.074  0.00  0.00    +0.000 A 
ATOM     10  C   UNL     1       6.150   6.291  17.681  0.00  0.00    +0.000 A 
ATOM     11  C   UNL     1       7.305   6.682  17.019  0.00  0.00    +0.000 A 
ATOM     12  N   UNL     1       7.685   6.268  15.796  0.00  0.00    +0.000 NA
ATOM     13  C   UNL     1       6.809   5.414  15.230  0.00  0.00    +0.000 A 
ATOM     14  C   UNL     1       5.615   4.938  15.774  0.00  0.00    +0.000 A 
ATOM     15  C   UNL     1       5.058   4.062  14.794  0.00  0.00    +0.000 A 
ATOM     16  C   UNL     1       5.904   4.034  13.705  0.00  0.00    +0.000 A 
ATOM     17  N   UNL     1       6.963   4.855  13.983  0.00  0.00    +0.000 N 
ATOM     18  C   UNL     1       8.082   5.109  13.111  0.00  0.00    +0.000 C 
ENDBRANCH   5   9
BRANCH   1  20
ATOM     19  C   UNL     1       1.853   2.950  21.951  0.00  0.00    +0.000 C 
ATOM     20  C   UNL     1       1.138   2.321  20.768  0.00  0.00    +0.000 C 
ENDBRANCH   1  20
TORSDOF 2
ENDMDL
MODEL 7
REMARK VINA RESULT:      -6.6      1.133      1.211
REMARK  Name = 
REMARK  4 active torsions:
REMARK  status: ('A' for Active; 'I' for Inactive)
REMARK    1  A    between atoms: C_1  and  C_2
REMARK    2  A    between atoms: C_2  and  N_3
REMARK    3  A    between atoms: C_7  and  C_8
REMARK    4  A    between atoms: N_16  and  C_17
REMARK                            x       y       z     vdW  Elec       q    Type
REMARK                         _______ _______ _______ _____ _____    ______ ____
ROOT
ATOM      1  N   UNL     1      -0.166  11.169  19.708  0.00  0.00    +0.000 N 
ATOM      2  C   UNL     1       0.635  10.048  19.409  0.00  0.00    +0.000 A 
ATOM      3  C   UNL     1       0.957   9.787  18.087  0.00  0.00    +0.000 A 
ATOM      4  C   UNL     1       1.773   8.698  17.775  0.00  0.00    +0.000 A 
ATOM      5  C   UNL     1       2.209   7.854  18.789  0.00  0.00    +0.000 A 
ATOM      6  N   UNL     1       1.822   8.096  20.057  0.00  0.00    +0.000 NA
ATOM      7  N   UNL     1       1.042   9.193  20.365  0.00  0.00    +0.000 NA
ATOM      8  H   UNL     1       0.051  11.922  19.063  0.00  0.00    +0.000 HD
ENDROOT
BRANCH   5   9
ATOM      9  C   UNL     1       3.094   6.705  18.561  0.00  0.00    +0.000 A 
ATOM     10  C   UNL     1       4.127   6.714  17.604  0.00  0.00    +0.000 A 
ATOM     11  C   UNL     1       4.954   5.609  17.463  0.00  0.00    +0.000 A 
ATOM     12  N   UNL     1       4.872   4.472  18.178  0.00  0.00    +0.000 NA
ATOM     13  C   UNL     1       3.867   4.482  19.076  0.00  0.00    +0.000 A 
ATOM     14  C   UNL     1       2.962   5.516  19.325  0.00  0.00    +0.000 A 
ATOM     15  C   UNL     1       2.104   5.045  20.364  0.00  0.00    +0.000 A 
ATOM     16  C   UNL     1       2.496   3.768  20.707  0.00  0.00    +0.000 A 
ATOM     17  N   UNL     1       3.568   3.441  19.921  0.00  0.00    +0.000 N 
ATOM     18  C   UNL     1       4.288   2.193  19.960  0.00  0.00    +0.000 C 
ENDBRANCH   5   9
BRANCH   1  20
ATOM     19  C   UNL     1       0.512  13.033  21.122  0.00  0.00    +0.000 C 
ATOM     20  C   UNL     1      -0.004  11.604  21.096  0.00  0.00    +0.000 C 
ENDBRANCH   1  20
TORSDOF 2
ENDMDL
MODEL 8
REMARK VINA RESULT:      -6.5      2.929      6.637
REMARK  Name = 
REMARK  4 active torsions:
REMARK  status: ('A' for Active; 'I' for Inactive)
REMARK    1  A    between atoms: C_1  and  C_2
REMARK    2  A    between atoms: C_2  and  N_3
REMARK    3  A    between atoms: C_7  and  C_8
REMARK    4  A    between atoms: N_16  and  C_17
REMARK                            x       y       z     vdW  Elec       q    Type
REMARK                         _______ _______ _______ _____ _____    ______ ____
ROOT
ATOM      1  N   UNL     1       6.685   4.557  13.471  0.00  0.00    +0.000 N 
ATOM      2  C   UNL     1       5.942   4.738  14.656  0.00  0.00    +0.000 A 
ATOM      3  C   UNL     1       5.759   6.023  15.143  0.00  0.00    +0.000 A 
ATOM      4  C   UNL     1       5.003   6.224  16.299  0.00  0.00    +0.000 A 
ATOM      5  C   UNL     1       4.486   5.129  16.981  0.00  0.00    +0.000 A 
ATOM      6  N   UNL     1       4.740   3.888  16.520  0.00  0.00    +0.000 NA
ATOM      7  N   UNL     1       5.461   3.696  15.358  0.00  0.00    +0.000 NA
ATOM      8  H   UNL     1       6.517   5.336  12.844  0.00  0.00    +0.000 HD
ENDROOT
BRANCH   5   9
ATOM      9  C   UNL     1       3.654   5.244  18.185  0.00  0.00    +0.000 A 
ATOM     10  C   UNL     1       3.153   6.475  18.653  0.00  0.00    +0.000 A 
ATOM     11  C   UNL     1       2.340   6.513  19.776  0.00  0.00    +0.000 A 
ATOM     12  N   UNL     1       1.959   5.447  20.505  0.00  0.00    +0.000 NA
ATOM     13  C   UNL     1       2.464   4.284  20.046  0.00  0.00    +0.000 A 
ATOM     14  C   UNL     1       3.291   4.096  18.937  0.00  0.00    +0.000 A 
ATOM     15  C   UNL     1       3.543   2.693  18.868  0.00  0.00    +0.000 A 
ATOM     16  C   UNL     1       2.884   2.081  19.914  0.00  0.00    +0.000 A 
ATOM     17  N   UNL     1       2.232   3.056  20.618  0.00  0.00    +0.000 N 
ATOM     18  C   UNL     1       1.417   2.845  21.789  0.00  0.00    +0.000 C 
ENDBRANCH   5   9
BRANCH   1  20
ATOM     19  C   UNL     1       5.148   3.448  11.941  0.00  0.00    +0.000 C 
ATOM     20  C   UNL     1       6.375   3.283  12.821  0.00  0.00    +0.000 C 
ENDBRANCH   1  20
TORSDOF 2
ENDMDL
MODEL 9
REMARK VINA RESULT:      -6.5      0.921      2.420
REMARK  Name = 
REMARK  4 active torsions:
REMARK  status: ('A' for Active; 'I' for Inactive)
REMARK    1  A    between atoms: C_1  and  C_2
REMARK    2  A    between atoms: C_2  and  N_3
REMARK    3  A    between atoms: C_7  and  C_8
REMARK    4  A    between atoms: N_16  and  C_17
REMARK                            x       y       z     vdW  Elec       q    Type
REMARK                         _______ _______ _______ _____ _____    ______ ____
ROOT
ATOM      1  N   UNL     1       0.504  10.879  20.022  0.00  0.00    +0.000 N 
ATOM      2  C   UNL     1       1.070   9.656  19.607  0.00  0.00    +0.000 A 
ATOM      3  C   UNL     1       1.367   9.476  18.265  0.00  0.00    +0.000 A 
ATOM      4  C   UNL     1       1.954   8.282  17.841  0.00  0.00    +0.000 A 
ATOM      5  C   UNL     1       2.185   7.265  18.760  0.00  0.00    +0.000 A 
ATOM      6  N   UNL     1       1.821   7.446  20.045  0.00  0.00    +0.000 NA
ATOM      7  N   UNL     1       1.271   8.641  20.467  0.00  0.00    +0.000 NA
ATOM      8  H   UNL     1       0.885  11.636  19.463  0.00  0.00    +0.000 HD
ENDROOT
BRANCH   5   9
ATOM      9  C   UNL     1       2.825   5.991  18.413  0.00  0.00    +0.000 A 
ATOM     10  C   UNL     1       2.421   4.759  18.964  0.00  0.00    +0.000 A 
ATOM     11  C   UNL     1       3.041   3.583  18.566  0.00  0.00    +0.000 A 
ATOM     12  N   UNL     1       4.037   3.487  17.666  0.00  0.00    +0.000 NA
ATOM     13  C   UNL     1       4.415   4.681  17.166  0.00  0.00    +0.000 A 
ATOM     14  C   UNL     1       3.886   5.936  17.472  0.00  0.00    +0.000 A 
ATOM     15  C   UNL     1       4.616   6.874  16.681  0.00  0.00    +0.000 A 
ATOM     16  C   UNL     1       5.549   6.182  15.938  0.00  0.00    +0.000 A 
ATOM     17  N   UNL     1       5.415   4.854  16.238  0.00  0.00    +0.000 N 
ATOM     18  C   UNL     1       6.197   3.782  15.676  0.00  0.00    +0.000 C 
ENDBRANCH   5   9
BRANCH   1  20
ATOM     19  C   UNL     1      -0.628  11.169  22.159  0.00  0.00    +0.000 C 
ATOM     20  C   UNL     1       0.715  11.124  21.450  0.00  0.00    +0.000 C 
ENDBRANCH   1  20
TORSDOF 2
ENDMDL
