MODEL 1
REMARK VINA RESULT:      -7.2      0.000      0.000
REMARK  Name = 
REMARK  5 active torsions:
REMARK  status: ('A' for Active; 'I' for Inactive)
REMARK    1  A    between atoms: C_2  and  C_3
REMARK    2  A    between atoms: C_3  and  N_4
REMARK    3  A    between atoms: C_7  and  C_8
REMARK    4  A    between atoms: N_10  and  C_11
REMARK    5  A    between atoms: N_10  and  C_16
REMARK                            x       y       z     vdW  Elec       q    Type
REMARK                         _______ _______ _______ _____ _____    ______ ____
ROOT
ATOM      1  C   UNL     1       5.098   4.115  17.753  0.00  0.00    +0.000 C 
ATOM      2  O   UNL     1       5.120   4.694  18.837  0.00  0.00    +0.000 OA
ATOM      3  N   UNL     1       6.041   4.411  16.745  0.00  0.00    +0.000 N 
ENDROOT
BRANCH   1   7
ATOM      4  N   UNL     1       1.681   3.316  19.270  0.00  0.00    +0.000 NA
ATOM      5  C   UNL     1       1.924   4.296  18.202  0.00  0.00    +0.000 C 
ATOM      6  C   UNL     1       2.655   3.647  17.025  0.00  0.00    +0.000 C 
ATOM      7  C   UNL     1       4.007   3.057  17.446  0.00  0.00    +0.000 C 
ATOM      8  C   UNL     1       3.778   2.122  18.636  0.00  0.00    +0.000 C 
ATOM      9  C   UNL     1       2.958   2.762  19.762  0.00  0.00    +0.000 C 
BRANCH   4  10
ATOM     10  C   UNL     1       0.898   3.957  20.344  0.00  0.00    +0.000 C 
BRANCH  10  12
ATOM     11  C   UNL     1       1.740   6.617  20.776  0.00  0.00    +0.000 C 
ATOM     12  C   UNL     1       1.351   5.388  20.577  0.00  0.00    +0.000 C 
ENDBRANCH  10  12
ENDBRANCH   4  10
ENDBRANCH   1   7
BRANCH   3  13
ATOM     13  C   UNL     1       7.048   5.458  17.042  0.00  0.00    +0.000 C 
ATOM     14  C   UNL     1       6.511   6.885  16.905  0.00  0.00    +0.000 C 
ATOM     15  C   UNL     1       7.487   7.759  17.687  0.00  0.00    +0.000 C 
ATOM     16  C   UNL     1       8.149   6.857  18.721  0.00  0.00    +0.000 C 
ATOM     17  C   UNL     1       7.721   5.423  18.417  0.00  0.00    +0.000 C 
ENDBRANCH   3  13
BRANCH   3  18
ATOM     18  C   UNL     1       6.011   3.752  15.457  0.00  0.00    +0.000 C 
ATOM     19  C   UNL     1       5.299   4.215  14.211  0.00  0.00    +0.000 C 
ATOM     20  C   UNL     1       6.782   4.317  14.281  0.00  0.00    +0.000 C 
ENDBRANCH   3  18
TORSDOF 5
ENDMDL
MODEL 2
REMARK VINA RESULT:      -7.0      1.608      6.382
REMARK  Name = 
REMARK  5 active torsions:
REMARK  status: ('A' for Active; 'I' for Inactive)
REMARK    1  A    between atoms: C_2  and  C_3
REMARK    2  A    between atoms: C_3  and  N_4
REMARK    3  A    between atoms: C_7  and  C_8
REMARK    4  A    between atoms: N_10  and  C_11
REMARK    5  A    between atoms: N_10  and  C_16
REMARK                            x       y       z     vdW  Elec       q    Type
REMARK                         _______ _______ _______ _____ _____    ______ ____
ROOT
ATOM      1  C   UNL     1       4.649   4.787  18.113  0.00  0.00    +0.000 C 
ATOM      2  O   UNL     1       4.895   3.665  17.677  0.00  0.00    +0.000 OA
ATOM      3  N   UNL     1       3.595   5.003  19.028  0.00  0.00    +0.000 N 
ENDROOT
BRANCH   1   7
ATOM      4  N   UNL     1       7.012   5.426  15.177  0.00  0.00    +0.000 NA
ATOM      5  C   UNL     1       5.554   5.599  15.141  0.00  0.00    +0.000 C 
ATOM      6  C   UNL     1       5.090   6.539  16.255  0.00  0.00    +0.000 C 
ATOM      7  C   UNL     1       5.473   6.014  17.644  0.00  0.00    +0.000 C 
ATOM      8  C   UNL     1       6.975   5.720  17.654  0.00  0.00    +0.000 C 
ATOM      9  C   UNL     1       7.433   4.857  16.473  0.00  0.00    +0.000 C 
BRANCH   4  10
ATOM     10  C   UNL     1       7.428   4.586  14.036  0.00  0.00    +0.000 C 
BRANCH  10  12
ATOM     11  C   UNL     1       5.191   3.480  12.715  0.00  0.00    +0.000 C 
ATOM     12  C   UNL     1       6.224   3.990  13.325  0.00  0.00    +0.000 C 
ENDBRANCH  10  12
ENDBRANCH   4  10
ENDBRANCH   1   7
BRANCH   3  13
ATOM     13  C   UNL     1       2.790   3.823  19.428  0.00  0.00    +0.000 C 
ATOM     14  C   UNL     1       2.449   3.788  20.920  0.00  0.00    +0.000 C 
ATOM     15  C   UNL     1       1.270   2.828  21.042  0.00  0.00    +0.000 C 
ATOM     16  C   UNL     1       0.574   2.818  19.686  0.00  0.00    +0.000 C 
ATOM     17  C   UNL     1       1.454   3.604  18.715  0.00  0.00    +0.000 C 
ENDBRANCH   3  13
BRANCH   3  18
ATOM     18  C   UNL     1       3.281   6.323  19.530  0.00  0.00    +0.000 C 
ATOM     19  C   UNL     1       2.452   7.384  18.852  0.00  0.00    +0.000 C 
ATOM     20  C   UNL     1       1.885   6.653  20.018  0.00  0.00    +0.000 C 
ENDBRANCH   3  18
TORSDOF 5
ENDMDL
MODEL 3
REMARK VINA RESULT:      -6.8      1.997      6.096
REMARK  Name = 
REMARK  5 active torsions:
REMARK  status: ('A' for Active; 'I' for Inactive)
REMARK    1  A    between atoms: C_2  and  C_3
REMARK    2  A    between atoms: C_3  and  N_4
REMARK    3  A    between atoms: C_7  and  C_8
REMARK    4  A    between atoms: N_10  and  C_11
REMARK    5  A    between atoms: N_10  and  C_16
REMARK                            x       y       z     vdW  Elec       q    Type
REMARK                         _______ _______ _______ _____ _____    ______ ____
ROOT
ATOM      1  C   UNL     1       4.377   6.049  18.131  0.00  0.00    +0.000 C 
ATOM      2  O   UNL     1       4.851   6.966  17.466  0.00  0.00    +0.000 OA
ATOM      3  N   UNL     1       3.278   6.261  18.993  0.00  0.00    +0.000 N 
ENDROOT
BRANCH   1   7
ATOM      4  N   UNL     1       6.452   4.174  15.526  0.00  0.00    +0.000 NA
ATOM      5  C   UNL     1       6.999   5.050  16.571  0.00  0.00    +0.000 C 
ATOM      6  C   UNL     1       6.523   4.607  17.956  0.00  0.00    +0.000 C 
ATOM      7  C   UNL     1       4.994   4.628  18.070  0.00  0.00    +0.000 C 
ATOM      8  C   UNL     1       4.411   3.811  16.914  0.00  0.00    +0.000 C 
ATOM      9  C   UNL     1       4.976   4.206  15.545  0.00  0.00    +0.000 C 
BRANCH   4  10
ATOM     10  C   UNL     1       7.004   4.578  14.218  0.00  0.00    +0.000 C 
BRANCH  10  12
ATOM     11  C   UNL     1       5.762   3.174  12.107  0.00  0.00    +0.000 C 
ATOM     12  C   UNL     1       6.336   3.822  13.082  0.00  0.00    +0.000 C 
ENDBRANCH  10  12
ENDBRANCH   4  10
ENDBRANCH   1   7
BRANCH   3  13
ATOM     13  C   UNL     1       2.731   7.637  19.072  0.00  0.00    +0.000 C 
ATOM     14  C   UNL     1       1.897   8.039  17.853  0.00  0.00    +0.000 C 
ATOM     15  C   UNL     1       1.059   9.228  18.312  0.00  0.00    +0.000 C 
ATOM     16  C   UNL     1       0.930   9.111  19.826  0.00  0.00    +0.000 C 
ATOM     17  C   UNL     1       1.854   7.982  20.278  0.00  0.00    +0.000 C 
ENDBRANCH   3  13
BRANCH   3  18
ATOM     18  C   UNL     1       2.725   5.194  19.798  0.00  0.00    +0.000 C 
ATOM     19  C   UNL     1       1.373   5.159  20.463  0.00  0.00    +0.000 C 
ATOM     20  C   UNL     1       1.613   4.315  19.261  0.00  0.00    +0.000 C 
ENDBRANCH   3  18
TORSDOF 5
ENDMDL
MODEL 4
REMARK VINA RESULT:      -6.7      1.416      1.779
REMARK  Name = 
REMARK  5 active torsions:
REMARK  status: ('A' for Active; 'I' for Inactive)
REMARK    1  A    between atoms: C_2  and  C_3
REMARK    2  A    between atoms: C_3  and  N_4
REMARK    3  A    between atoms: C_7  and  C_8
REMARK    4  A    between atoms: N_10  and  C_11
REMARK    5  A    between atoms: N_10  and  C_16
REMARK                            x       y       z     vdW  Elec       q    Type
REMARK                         _______ _______ _______ _____ _____    ______ ____
ROOT
ATOM      1  C   UNL     1       4.236   4.723  17.761  0.00  0.00    +0.000 C 
ATOM      2  O   UNL     1       3.983   4.993  18.933  0.00  0.00    +0.000 OA
ATOM      3  N   UNL     1       5.326   5.321  17.091  0.00  0.00    +0.000 N 
ENDROOT
BRANCH   1   7
ATOM      4  N   UNL     1       1.477   2.269  18.747  0.00  0.00    +0.000 NA
ATOM      5  C   UNL     1       1.272   3.690  18.435  0.00  0.00    +0.000 C 
ATOM      6  C   UNL     1       1.841   4.031  17.056  0.00  0.00    +0.000 C 
ATOM      7  C   UNL     1       3.343   3.736  16.967  0.00  0.00    +0.000 C 
ATOM      8  C   UNL     1       3.579   2.288  17.404  0.00  0.00    +0.000 C 
ATOM      9  C   UNL     1       2.916   1.941  18.742  0.00  0.00    +0.000 C 
BRANCH   4  10
ATOM     10  C   UNL     1       0.837   1.962  20.042  0.00  0.00    +0.000 C 
BRANCH  10  12
ATOM     11  C   UNL     1       2.145   3.285  22.166  0.00  0.00    +0.000 C 
ATOM     12  C   UNL     1       1.541   2.673  21.185  0.00  0.00    +0.000 C 
ENDBRANCH  10  12
ENDBRANCH   4  10
ENDBRANCH   1   7
BRANCH   3  13
ATOM     13  C   UNL     1       6.141   6.297  17.854  0.00  0.00    +0.000 C 
ATOM     14  C   UNL     1       7.406   5.695  18.470  0.00  0.00    +0.000 C 
ATOM     15  C   UNL     1       8.313   6.884  18.773  0.00  0.00    +0.000 C 
ATOM     16  C   UNL     1       7.895   8.003  17.826  0.00  0.00    +0.000 C 
ATOM     17  C   UNL     1       6.622   7.549  17.115  0.00  0.00    +0.000 C 
ENDBRANCH   3  13
BRANCH   3  18
ATOM     18  C   UNL     1       5.621   5.029  15.705  0.00  0.00    +0.000 C 
ATOM     19  C   UNL     1       6.978   4.986  15.050  0.00  0.00    +0.000 C 
ATOM     20  C   UNL     1       6.256   3.711  15.311  0.00  0.00    +0.000 C 
ENDBRANCH   3  18
TORSDOF 5
ENDMDL
MODEL 5
REMARK VINA RESULT:      -6.7      1.670      5.947
REMARK  Name = 
REMARK  5 active torsions:
REMARK  status: ('A' for Active; 'I' for Inactive)
REMARK    1  A    between atoms: C_2  and  C_3
REMARK    2  A    between atoms: C_3  and  N_4
REMARK    3  A    between atoms: C_7  and  C_8
REMARK    4  A    between atoms: N_10  and  C_11
REMARK    5  A    between atoms: N_10  and  C_16
REMARK                            x       y       z     vdW  Elec       q    Type
REMARK                         _______ _______ _______ _____ _____    ______ ____
ROOT
ATOM      1  C   UNL     1       5.359   4.798  19.072  0.00  0.00    +0.000 C 
ATOM      2  O   UNL     1       5.483   5.561  20.027  0.00  0.00    +0.000 OA
ATOM      3  N   UNL     1       4.244   3.939  18.960  0.00  0.00    +0.000 N 
ENDROOT
BRANCH   1   7
ATOM      4  N   UNL     1       7.375   7.434  17.175  0.00  0.00    +0.000 NA
ATOM      5  C   UNL     1       7.755   6.849  18.468  0.00  0.00    +0.000 C 
ATOM      6  C   UNL     1       7.802   5.322  18.381  0.00  0.00    +0.000 C 
ATOM      7  C   UNL     1       6.448   4.730  17.970  0.00  0.00    +0.000 C 
ATOM      8  C   UNL     1       5.989   5.419  16.683  0.00  0.00    +0.000 C 
ATOM      9  C   UNL     1       6.044   6.949  16.760  0.00  0.00    +0.000 C 
BRANCH   4  10
ATOM     10  C   UNL     1       7.428   8.906  17.276  0.00  0.00    +0.000 C 
BRANCH  10  12
ATOM     11  C   UNL     1       9.380   9.730  19.142  0.00  0.00    +0.000 C 
ATOM     12  C   UNL     1       8.479   9.350  18.281  0.00  0.00    +0.000 C 
ENDBRANCH  10  12
ENDBRANCH   4  10
ENDBRANCH   1   7
BRANCH   3  13
ATOM     13  C   UNL     1       3.237   3.986  20.048  0.00  0.00    +0.000 C 
ATOM     14  C   UNL     1       1.878   4.533  19.606  0.00  0.00    +0.000 C 
ATOM     15  C   UNL     1       0.890   4.066  20.670  0.00  0.00    +0.000 C 
ATOM     16  C   UNL     1       1.493   2.822  21.310  0.00  0.00    +0.000 C 
ATOM     17  C   UNL     1       2.916   2.676  20.772  0.00  0.00    +0.000 C 
ENDBRANCH   3  13
BRANCH   3  18
ATOM     18  C   UNL     1       4.099   3.019  17.853  0.00  0.00    +0.000 C 
ATOM     19  C   UNL     1       3.101   1.897  17.722  0.00  0.00    +0.000 C 
ATOM     20  C   UNL     1       2.922   3.129  16.905  0.00  0.00    +0.000 C 
ENDBRANCH   3  18
TORSDOF 5
ENDMDL
MODEL 6
REMARK VINA RESULT:      -6.7      0.900      1.199
REMARK  Name = 
REMARK  5 active torsions:
REMARK  status: ('A' for Active; 'I' for Inactive)
REMARK    1  A    between atoms: C_2  and  C_3
REMARK    2  A    between atoms: C_3  and  N_4
REMARK    3  A    between atoms: C_7  and  C_8
REMARK    4  A    between atoms: N_10  and  C_11
REMARK    5  A    between atoms: N_10  and  C_16
REMARK                            x       y       z     vdW  Elec       q    Type
REMARK                         _______ _______ _______ _____ _____    ______ ____
ROOT
ATOM      1  C   UNL     1       5.044   4.089  17.461  0.00  0.00    +0.000 C 
ATOM      2  O   UNL     1       4.990   4.615  18.570  0.00  0.00    +0.000 OA
ATOM      3  N   UNL     1       6.093   4.382  16.562  0.00  0.00    +0.000 N 
ENDROOT
BRANCH   1   7
ATOM      4  N   UNL     1       1.589   3.164  18.810  0.00  0.00    +0.000 NA
ATOM      5  C   UNL     1       1.867   4.273  17.887  0.00  0.00    +0.000 C 
ATOM      6  C   UNL     1       2.605   3.773  16.644  0.00  0.00    +0.000 C 
ATOM      7  C   UNL     1       3.938   3.104  17.000  0.00  0.00    +0.000 C 
ATOM      8  C   UNL     1       3.673   2.023  18.050  0.00  0.00    +0.000 C 
ATOM      9  C   UNL     1       2.847   2.523  19.241  0.00  0.00    +0.000 C 
BRANCH   4  10
ATOM     10  C   UNL     1       0.800   3.671  19.951  0.00  0.00    +0.000 C 
BRANCH  10  12
ATOM     11  C   UNL     1       1.560   2.410  22.359  0.00  0.00    +0.000 C 
ATOM     12  C   UNL     1       1.209   2.992  21.247  0.00  0.00    +0.000 C 
ENDBRANCH  10  12
ENDBRANCH   4  10
ENDBRANCH   1   7
BRANCH   3  13
ATOM     13  C   UNL     1       7.115   5.361  17.005  0.00  0.00    +0.000 C 
ATOM     14  C   UNL     1       6.647   6.817  16.929  0.00  0.00    +0.000 C 
ATOM     15  C   UNL     1       7.594   7.592  17.839  0.00  0.00    +0.000 C 
ATOM     16  C   UNL     1       8.138   6.594  18.854  0.00  0.00    +0.000 C 
ATOM     17  C   UNL     1       7.678   5.204  18.419  0.00  0.00    +0.000 C 
ENDBRANCH   3  13
BRANCH   3  18
ATOM     18  C   UNL     1       6.155   3.786  15.244  0.00  0.00    +0.000 C 
ATOM     19  C   UNL     1       5.409   4.223  14.009  0.00  0.00    +0.000 C 
ATOM     20  C   UNL     1       6.869   4.492  14.110  0.00  0.00    +0.000 C 
ENDBRANCH   3  18
TORSDOF 5
ENDMDL
MODEL 7
REMARK VINA RESULT:      -6.7      1.669      6.370
REMARK  Name = 
REMARK  5 active torsions:
REMARK  status: ('A' for Active; 'I' for Inactive)
REMARK    1  A    between atoms: C_2  and  C_3
REMARK    2  A    between atoms: C_3  and  N_4
REMARK    3  A    between atoms: C_7  and  C_8
REMARK    4  A    between atoms: N_10  and  C_11
REMARK    5  A    between atoms: N_10  and  C_16
REMARK                            x       y       z     vdW  Elec       q    Type
REMARK                         _______ _______ _______ _____ _____    ______ ____
ROOT
ATOM      1  C   UNL     1       5.175   4.827  18.902  0.00  0.00    +0.000 C 
ATOM      2  O   UNL     1       5.659   3.779  19.322  0.00  0.00    +0.000 OA
ATOM      3  N   UNL     1       3.779   5.037  18.891  0.00  0.00    +0.000 N 
ENDROOT
BRANCH   1   7
ATOM      4  N   UNL     1       7.036   5.309  15.598  0.00  0.00    +0.000 NA
ATOM      5  C   UNL     1       5.643   5.702  15.848  0.00  0.00    +0.000 C 
ATOM      6  C   UNL     1       5.548   6.620  17.068  0.00  0.00    +0.000 C 
ATOM      7  C   UNL     1       6.087   5.946  18.335  0.00  0.00    +0.000 C 
ATOM      8  C   UNL     1       7.499   5.429  18.046  0.00  0.00    +0.000 C 
ATOM      9  C   UNL     1       7.588   4.592  16.764  0.00  0.00    +0.000 C 
BRANCH   4  10
ATOM     10  C   UNL     1       7.096   4.499  14.364  0.00  0.00    +0.000 C 
BRANCH  10  12
ATOM     11  C   UNL     1       8.272   5.951  12.247  0.00  0.00    +0.000 C 
ATOM     12  C   UNL     1       7.729   5.280  13.225  0.00  0.00    +0.000 C 
ENDBRANCH  10  12
ENDBRANCH   4  10
ENDBRANCH   1   7
BRANCH   3  13
ATOM     13  C   UNL     1       2.922   3.936  19.394  0.00  0.00    +0.000 C 
ATOM     14  C   UNL     1       2.336   4.198  20.784  0.00  0.00    +0.000 C 
ATOM     15  C   UNL     1       1.156   3.239  20.911  0.00  0.00    +0.000 C 
ATOM     16  C   UNL     1       0.697   2.922  19.493  0.00  0.00    +0.000 C 
ATOM     17  C   UNL     1       1.724   3.523  18.535  0.00  0.00    +0.000 C 
ENDBRANCH   3  13
BRANCH   3  18
ATOM     18  C   UNL     1       3.196   6.257  18.376  0.00  0.00    +0.000 C 
ATOM     19  C   UNL     1       1.731   6.593  18.266  0.00  0.00    +0.000 C 
ATOM     20  C   UNL     1       2.553   7.261  19.312  0.00  0.00    +0.000 C 
ENDBRANCH   3  18
TORSDOF 5
ENDMDL
MODEL 8
REMARK VINA RESULT:      -6.7      1.847      6.001
REMARK  Name = 
REMARK  5 active torsions:
REMARK  status: ('A' for Active; 'I' for Inactive)
REMARK    1  A    between atoms: C_2  and  C_3
REMARK    2  A    between atoms: C_3  and  N_4
REMARK    3  A    between atoms: C_7  and  C_8
REMARK    4  A    between atoms: N_10  and  C_11
REMARK    5  A    between atoms: N_10  and  C_16
REMARK                            x       y       z     vdW  Elec       q    Type
REMARK                         _______ _______ _______ _____ _____    ______ ____
ROOT
ATOM      1  C   UNL     1       4.113   5.782  18.202  0.00  0.00    +0.000 C 
ATOM      2  O   UNL     1       4.474   6.855  17.727  0.00  0.00    +0.000 OA
ATOM      3  N   UNL     1       2.835   5.631  18.785  0.00  0.00    +0.000 N 
ENDROOT
BRANCH   1   7
ATOM      4  N   UNL     1       6.614   4.366  15.682  0.00  0.00    +0.000 NA
ATOM      5  C   UNL     1       6.915   5.400  16.682  0.00  0.00    +0.000 C 
ATOM      6  C   UNL     1       6.554   4.917  18.088  0.00  0.00    +0.000 C 
ATOM      7  C   UNL     1       5.067   4.559  18.206  0.00  0.00    +0.000 C 
ATOM      8  C   UNL     1       4.718   3.569  17.093  0.00  0.00    +0.000 C 
ATOM      9  C   UNL     1       5.177   4.029  15.704  0.00  0.00    +0.000 C 
BRANCH   4  10
ATOM     10  C   UNL     1       7.058   4.834  14.354  0.00  0.00    +0.000 C 
BRANCH  10  12
ATOM     11  C   UNL     1       5.942   3.262  12.292  0.00  0.00    +0.000 C 
ATOM     12  C   UNL     1       6.458   3.988  13.244  0.00  0.00    +0.000 C 
ENDBRANCH  10  12
ENDBRANCH   4  10
ENDBRANCH   1   7
BRANCH   3  13
ATOM     13  C   UNL     1       1.955   6.824  18.812  0.00  0.00    +0.000 C 
ATOM     14  C   UNL     1       2.030   7.614  20.122  0.00  0.00    +0.000 C 
ATOM     15  C   UNL     1       1.471   8.995  19.791  0.00  0.00    +0.000 C 
ATOM     16  C   UNL     1       1.667   9.198  18.294  0.00  0.00    +0.000 C 
ATOM     17  C   UNL     1       2.148   7.870  17.711  0.00  0.00    +0.000 C 
ENDBRANCH   3  13
BRANCH   3  18
ATOM     18  C   UNL     1       2.408   4.377  19.369  0.00  0.00    +0.000 C 
ATOM     19  C   UNL     1       1.100   4.093  20.062  0.00  0.00    +0.000 C 
ATOM     20  C   UNL     1       1.337   3.539  18.701  0.00  0.00    +0.000 C 
ENDBRANCH   3  18
TORSDOF 5
ENDMDL
MODEL 9
REMARK VINA RESULT:      -6.5      1.752      6.254
REMARK  Name = 
REMARK  5 active torsions:
REMARK  status: ('A' for Active; 'I' for Inactive)
REMARK    1  A    between atoms: C_2  and  C_3
REMARK    2  A    between atoms: C_3  and  N_4
REMARK    3  A    between atoms: C_7  and  C_8
REMARK    4  A    between atoms: N_10  and  C_11
REMARK    5  A    between atoms: N_10  and  C_16
REMARK                            x       y       z     vdW  Elec       q    Type
REMARK                         _______ _______ _______ _____ _____    ______ ____
ROOT
ATOM      1  C   UNL     1       4.231   5.448  17.973  0.00  0.00    +0.000 C 
ATOM      2  O   UNL     1       4.388   4.230  17.932  0.00  0.00    +0.000 OA
ATOM      3  N   UNL     1       3.052   6.018  18.503  0.00  0.00    +0.000 N 
ENDROOT
BRANCH   1   7
ATOM      4  N   UNL     1       6.825   5.158  15.181  0.00  0.00    +0.000 NA
ATOM      5  C   UNL     1       5.439   5.610  15.002  0.00  0.00    +0.000 C 
ATOM      6  C   UNL     1       5.124   6.779  15.936  0.00  0.00    +0.000 C 
ATOM      7  C   UNL     1       5.316   6.403  17.411  0.00  0.00    +0.000 C 
ATOM      8  C   UNL     1       6.721   5.822  17.584  0.00  0.00    +0.000 C 
ATOM      9  C   UNL     1       7.050   4.718  16.572  0.00  0.00    +0.000 C 
BRANCH   4  10
ATOM     10  C   UNL     1       7.116   4.091  14.203  0.00  0.00    +0.000 C 
BRANCH  10  12
ATOM     11  C   UNL     1       4.908   3.635  12.504  0.00  0.00    +0.000 C 
ATOM     12  C   UNL     1       5.928   3.846  13.289  0.00  0.00    +0.000 C 
ENDBRANCH  10  12
ENDBRANCH   4  10
ENDBRANCH   1   7
BRANCH   3  13
ATOM     13  C   UNL     1       2.008   5.086  18.994  0.00  0.00    +0.000 C 
ATOM     14  C   UNL     1       1.619   4.008  17.979  0.00  0.00    +0.000 C 
ATOM     15  C   UNL     1       0.939   2.913  18.795  0.00  0.00    +0.000 C 
ATOM     16  C   UNL     1       1.469   3.038  20.219  0.00  0.00    +0.000 C 
ATOM     17  C   UNL     1       2.294   4.321  20.289  0.00  0.00    +0.000 C 
ENDBRANCH   3  13
BRANCH   3  18
ATOM     18  C   UNL     1       2.846   7.450  18.536  0.00  0.00    +0.000 C 
ATOM     19  C   UNL     1       1.663   8.214  17.999  0.00  0.00    +0.000 C 
ATOM     20  C   UNL     1       1.824   8.063  19.471  0.00  0.00    +0.000 C 
ENDBRANCH   3  18
TORSDOF 5
ENDMDL
