MODEL 1
REMARK VINA RESULT:      -8.5      0.000      0.000
REMARK  Name = 
REMARK  16 active torsions:
REMARK  status: ('A' for Active; 'I' for Inactive)
REMARK    1  A    between atoms: C_1  and  C_2
REMARK    2  A    between atoms: C_2  and  C_3
REMARK    3  A    between atoms: C_2  and  C_4
REMARK    4  A    between atoms: C_2  and  C_5
REMARK    5  A    between atoms: C_5  and  N_6
REMARK    6  A    between atoms: N_6  and  C_7
REMARK    7  A    between atoms: C_7  and  C_8
REMARK    8  A    between atoms: C_8  and  O_9
REMARK    9  A    between atoms: C_8  and  C_10
REMARK   10  A    between atoms: C_10  and  C_11
REMARK   11  A    between atoms: C_10  and  N_18
REMARK   12  A    between atoms: C_11  and  C_12
REMARK   13  A    between atoms: C_19  and  C_21
REMARK   14  A    between atoms: C_21  and  C_22
REMARK   15  A    between atoms: C_22  and  C_23
REMARK   16  A    between atoms: C_22  and  C_29
REMARK                            x       y       z     vdW  Elec       q    Type
REMARK                         _______ _______ _______ _____ _____    ______ ____
ROOT
ATOM      1  C   UNL     1       0.216  10.584  18.402  0.00  0.00    +0.000 C 
ENDROOT
BRANCH   1   2
ATOM      2  N   UNL     1       0.962   9.479  19.064  0.00  0.00    +0.000 N 
ATOM      3  C   UNL     1       1.858   8.692  18.357  0.00  0.00    +0.000 C 
ATOM      4  O   UNL     1       2.156   8.925  17.186  0.00  0.00    +0.000 OA
ATOM      5  H   UNL     1       0.713   9.185  19.999  0.00  0.00    +0.000 HD
BRANCH   3   6
ATOM      6  C   UNL     1       2.489   7.530  19.116  0.00  0.00    +0.000 C 
BRANCH   6   7
ATOM      7  C   UNL     1       2.901   6.309  18.267  0.00  0.00    +0.000 C 
BRANCH   7   8
ATOM      8  C   UNL     1       4.406   6.113  18.070  0.00  0.00    +0.000 A 
ATOM      9  C   UNL     1       5.125   6.661  16.995  0.00  0.00    +0.000 A 
ATOM     10  C   UNL     1       6.523   6.564  16.945  0.00  0.00    +0.000 A 
ATOM     11  C   UNL     1       7.223   5.906  17.954  0.00  0.00    +0.000 A 
ATOM     12  C   UNL     1       6.524   5.328  19.009  0.00  0.00    +0.000 A 
ATOM     13  C   UNL     1       5.132   5.428  19.062  0.00  0.00    +0.000 A 
ENDBRANCH   7   8
BRANCH   7  14
ATOM     14  C   UNL     1       2.176   5.010  18.665  0.00  0.00    +0.000 A 
ATOM     15  C   UNL     1       1.626   4.916  19.957  0.00  0.00    +0.000 A 
ATOM     16  C   UNL     1       1.062   3.725  20.419  0.00  0.00    +0.000 A 
ATOM     17  C   UNL     1       1.025   2.605  19.592  0.00  0.00    +0.000 A 
ATOM     18  C   UNL     1       1.512   2.689  18.289  0.00  0.00    +0.000 A 
ATOM     19  C   UNL     1       2.076   3.887  17.824  0.00  0.00    +0.000 A 
ENDBRANCH   7  14
ENDBRANCH   6   7
ENDBRANCH   3   6
ENDBRANCH   1   2
BRANCH   1  20
ATOM     20  C   UNL     1       0.723  12.009  18.787  0.00  0.00    +0.000 C 
BRANCH  20  21
ATOM     21  O   UNL     1       0.135  12.998  17.920  0.00  0.00    +0.000 OA
ATOM     22  H   UNL     1      -0.827  12.946  18.017  0.00  0.00    +0.000 HD
ENDBRANCH  20  21
BRANCH  20  23
ATOM     23  C   UNL     1       0.534  12.469  20.241  0.00  0.00    +0.000 C 
BRANCH  23  24
ATOM     24  N   UNL     1       0.872  11.567  21.331  0.00  0.00    +0.000 NA
ATOM     25  H   UNL     1       1.417  10.801  20.931  0.00  0.00    +0.000 HD
BRANCH  24  26
ATOM     26  C   UNL     1      -0.206  10.969  22.127  0.00  0.00    +0.000 C 
BRANCH  26  28
ATOM     27  C   UNL     1       0.005   9.367  24.069  0.00  0.00    +0.000 C 
ATOM     28  C   UNL     1       0.236   9.527  22.555  0.00  0.00    +0.000 C 
ATOM     29  C   UNL     1       1.730   9.284  22.243  0.00  0.00    +0.000 C 
ATOM     30  C   UNL     1      -0.573   8.438  21.824  0.00  0.00    +0.000 C 
ENDBRANCH  26  28
ENDBRANCH  24  26
ENDBRANCH  23  24
ENDBRANCH  20  23
ENDBRANCH   1  20
BRANCH   1  31
ATOM     31  C   UNL     1      -1.298  10.422  18.741  0.00  0.00    +0.000 C 
BRANCH  31  32
ATOM     32  C   UNL     1      -2.257  10.525  17.572  0.00  0.00    +0.000 A 
ATOM     33  C   UNL     1      -2.038   9.804  16.393  0.00  0.00    +0.000 A 
ATOM     34  C   UNL     1      -2.933   9.906  15.323  0.00  0.00    +0.000 A 
ATOM     35  C   UNL     1      -4.044  10.744  15.411  0.00  0.00    +0.000 A 
ATOM     36  C   UNL     1      -4.269  11.474  16.575  0.00  0.00    +0.000 A 
ATOM     37  C   UNL     1      -3.385  11.357  17.652  0.00  0.00    +0.000 A 
ENDBRANCH  31  32
ENDBRANCH   1  31
TORSDOF 13
ENDMDL
MODEL 2
REMARK VINA RESULT:      -8.4      1.254      1.709
REMARK  Name = 
REMARK  16 active torsions:
REMARK  status: ('A' for Active; 'I' for Inactive)
REMARK    1  A    between atoms: C_1  and  C_2
REMARK    2  A    between atoms: C_2  and  C_3
REMARK    3  A    between atoms: C_2  and  C_4
REMARK    4  A    between atoms: C_2  and  C_5
REMARK    5  A    between atoms: C_5  and  N_6
REMARK    6  A    between atoms: N_6  and  C_7
REMARK    7  A    between atoms: C_7  and  C_8
REMARK    8  A    between atoms: C_8  and  O_9
REMARK    9  A    between atoms: C_8  and  C_10
REMARK   10  A    between atoms: C_10  and  C_11
REMARK   11  A    between atoms: C_10  and  N_18
REMARK   12  A    between atoms: C_11  and  C_12
REMARK   13  A    between atoms: C_19  and  C_21
REMARK   14  A    between atoms: C_21  and  C_22
REMARK   15  A    between atoms: C_22  and  C_23
REMARK   16  A    between atoms: C_22  and  C_29
REMARK                            x       y       z     vdW  Elec       q    Type
REMARK                         _______ _______ _______ _____ _____    ______ ____
ROOT
ATOM      1  C   UNL     1       0.360  10.541  18.704  0.00  0.00    +0.000 C 
ENDROOT
BRANCH   1   2
ATOM      2  N   UNL     1       1.076   9.379  19.296  0.00  0.00    +0.000 N 
ATOM      3  C   UNL     1       1.933   8.599  18.536  0.00  0.00    +0.000 C 
ATOM      4  O   UNL     1       2.223   8.881  17.374  0.00  0.00    +0.000 OA
ATOM      5  H   UNL     1       0.831   9.046  20.219  0.00  0.00    +0.000 HD
BRANCH   3   6
ATOM      6  C   UNL     1       2.535   7.379  19.225  0.00  0.00    +0.000 C 
BRANCH   6   7
ATOM      7  C   UNL     1       2.884   6.186  18.309  0.00  0.00    +0.000 C 
BRANCH   7   8
ATOM      8  C   UNL     1       4.373   5.980  18.024  0.00  0.00    +0.000 A 
ATOM      9  C   UNL     1       5.003   6.404  16.842  0.00  0.00    +0.000 A 
ATOM     10  C   UNL     1       6.395   6.313  16.700  0.00  0.00    +0.000 A 
ATOM     11  C   UNL     1       7.177   5.782  17.724  0.00  0.00    +0.000 A 
ATOM     12  C   UNL     1       6.567   5.326  18.887  0.00  0.00    +0.000 A 
ATOM     13  C   UNL     1       5.181   5.421  19.032  0.00  0.00    +0.000 A 
ENDBRANCH   7   8
BRANCH   7  14
ATOM     14  C   UNL     1       2.163   4.882  18.695  0.00  0.00    +0.000 A 
ATOM     15  C   UNL     1       1.641   4.762  19.997  0.00  0.00    +0.000 A 
ATOM     16  C   UNL     1       1.083   3.564  20.446  0.00  0.00    +0.000 A 
ATOM     17  C   UNL     1       1.024   2.461  19.597  0.00  0.00    +0.000 A 
ATOM     18  C   UNL     1       1.482   2.571  18.286  0.00  0.00    +0.000 A 
ATOM     19  C   UNL     1       2.039   3.777  17.833  0.00  0.00    +0.000 A 
ENDBRANCH   7  14
ENDBRANCH   6   7
ENDBRANCH   3   6
ENDBRANCH   1   2
BRANCH   1  20
ATOM     20  C   UNL     1       0.940  11.925  19.130  0.00  0.00    +0.000 C 
BRANCH  20  21
ATOM     21  O   UNL     1       1.520  12.595  17.994  0.00  0.00    +0.000 OA
ATOM     22  H   UNL     1       1.897  11.919  17.409  0.00  0.00    +0.000 HD
ENDBRANCH  20  21
BRANCH  20  23
ATOM     23  C   UNL     1      -0.003  12.911  19.839  0.00  0.00    +0.000 C 
BRANCH  23  24
ATOM     24  N   UNL     1      -0.022  12.969  21.292  0.00  0.00    +0.000 NA
ATOM     25  H   UNL     1      -0.154  12.014  21.631  0.00  0.00    +0.000 HD
BRANCH  24  26
ATOM     26  C   UNL     1      -1.019  13.812  21.962  0.00  0.00    +0.000 C 
BRANCH  26  28
ATOM     27  C   UNL     1      -2.705  13.561  23.827  0.00  0.00    +0.000 C 
ATOM     28  C   UNL     1      -2.124  12.882  22.573  0.00  0.00    +0.000 C 
ATOM     29  C   UNL     1      -1.542  11.506  22.968  0.00  0.00    +0.000 C 
ATOM     30  C   UNL     1      -3.275  12.631  21.581  0.00  0.00    +0.000 C 
ENDBRANCH  26  28
ENDBRANCH  24  26
ENDBRANCH  23  24
ENDBRANCH  20  23
ENDBRANCH   1  20
BRANCH   1  31
ATOM     31  C   UNL     1      -1.149  10.430  19.084  0.00  0.00    +0.000 C 
BRANCH  31  32
ATOM     32  C   UNL     1      -2.135  10.550  17.940  0.00  0.00    +0.000 A 
ATOM     33  C   UNL     1      -1.918   9.887  16.727  0.00  0.00    +0.000 A 
ATOM     34  C   UNL     1      -2.839  10.006  15.680  0.00  0.00    +0.000 A 
ATOM     35  C   UNL     1      -3.973  10.803  15.826  0.00  0.00    +0.000 A 
ATOM     36  C   UNL     1      -4.196  11.475  17.024  0.00  0.00    +0.000 A 
ATOM     37  C   UNL     1      -3.287  11.342  18.077  0.00  0.00    +0.000 A 
ENDBRANCH  31  32
ENDBRANCH   1  31
TORSDOF 13
ENDMDL
MODEL 3
REMARK VINA RESULT:      -8.2      1.401      2.156
REMARK  Name = 
REMARK  16 active torsions:
REMARK  status: ('A' for Active; 'I' for Inactive)
REMARK    1  A    between atoms: C_1  and  C_2
REMARK    2  A    between atoms: C_2  and  C_3
REMARK    3  A    between atoms: C_2  and  C_4
REMARK    4  A    between atoms: C_2  and  C_5
REMARK    5  A    between atoms: C_5  and  N_6
REMARK    6  A    between atoms: N_6  and  C_7
REMARK    7  A    between atoms: C_7  and  C_8
REMARK    8  A    between atoms: C_8  and  O_9
REMARK    9  A    between atoms: C_8  and  C_10
REMARK   10  A    between atoms: C_10  and  C_11
REMARK   11  A    between atoms: C_10  and  N_18
REMARK   12  A    between atoms: C_11  and  C_12
REMARK   13  A    between atoms: C_19  and  C_21
REMARK   14  A    between atoms: C_21  and  C_22
REMARK   15  A    between atoms: C_22  and  C_23
REMARK   16  A    between atoms: C_22  and  C_29
REMARK                            x       y       z     vdW  Elec       q    Type
REMARK                         _______ _______ _______ _____ _____    ______ ____
ROOT
ATOM      1  C   UNL     1       0.370  10.533  18.685  0.00  0.00    +0.000 C 
ENDROOT
BRANCH   1   2
ATOM      2  N   UNL     1       1.152   9.405  19.258  0.00  0.00    +0.000 N 
ATOM      3  C   UNL     1       1.976   8.624  18.463  0.00  0.00    +0.000 C 
ATOM      4  O   UNL     1       2.181   8.880  17.277  0.00  0.00    +0.000 OA
ATOM      5  H   UNL     1       0.976   9.092  20.204  0.00  0.00    +0.000 HD
BRANCH   3   6
ATOM      6  C   UNL     1       2.651   7.437  19.142  0.00  0.00    +0.000 C 
BRANCH   6   7
ATOM      7  C   UNL     1       2.596   6.097  18.377  0.00  0.00    +0.000 C 
BRANCH   7   8
ATOM      8  C   UNL     1       3.822   5.769  17.523  0.00  0.00    +0.000 A 
ATOM      9  C   UNL     1       3.992   4.550  16.845  0.00  0.00    +0.000 A 
ATOM     10  C   UNL     1       5.069   4.364  15.967  0.00  0.00    +0.000 A 
ATOM     11  C   UNL     1       6.001   5.380  15.763  0.00  0.00    +0.000 A 
ATOM     12  C   UNL     1       5.866   6.581  16.452  0.00  0.00    +0.000 A 
ATOM     13  C   UNL     1       4.792   6.770  17.324  0.00  0.00    +0.000 A 
ENDBRANCH   7   8
BRANCH   7  14
ATOM     14  C   UNL     1       2.138   4.912  19.246  0.00  0.00    +0.000 A 
ATOM     15  C   UNL     1       1.347   3.910  18.653  0.00  0.00    +0.000 A 
ATOM     16  C   UNL     1       0.801   2.873  19.413  0.00  0.00    +0.000 A 
ATOM     17  C   UNL     1       1.045   2.810  20.782  0.00  0.00    +0.000 A 
ATOM     18  C   UNL     1       1.872   3.758  21.383  0.00  0.00    +0.000 A 
ATOM     19  C   UNL     1       2.423   4.797  20.618  0.00  0.00    +0.000 A 
ENDBRANCH   7  14
ENDBRANCH   6   7
ENDBRANCH   3   6
ENDBRANCH   1   2
BRANCH   1  20
ATOM     20  C   UNL     1       0.867  11.942  19.137  0.00  0.00    +0.000 C 
BRANCH  20  21
ATOM     21  O   UNL     1      -0.152  12.932  18.897  0.00  0.00    +0.000 OA
ATOM     22  H   UNL     1      -0.579  12.722  18.053  0.00  0.00    +0.000 HD
ENDBRANCH  20  21
BRANCH  20  23
ATOM     23  C   UNL     1       1.358  12.098  20.585  0.00  0.00    +0.000 C 
BRANCH  23  24
ATOM     24  N   UNL     1       0.457  12.624  21.598  0.00  0.00    +0.000 NA
ATOM     25  H   UNL     1       1.033  12.936  22.383  0.00  0.00    +0.000 HD
BRANCH  24  26
ATOM     26  C   UNL     1      -0.593  11.756  22.144  0.00  0.00    +0.000 C 
BRANCH  26  28
ATOM     27  C   UNL     1      -1.295  13.921  23.240  0.00  0.00    +0.000 C 
ATOM     28  C   UNL     1      -1.816  12.649  22.544  0.00  0.00    +0.000 C 
ATOM     29  C   UNL     1      -2.766  11.900  23.507  0.00  0.00    +0.000 C 
ATOM     30  C   UNL     1      -2.643  13.074  21.316  0.00  0.00    +0.000 C 
ENDBRANCH  26  28
ENDBRANCH  24  26
ENDBRANCH  23  24
ENDBRANCH  20  23
ENDBRANCH   1  20
BRANCH   1  31
ATOM     31  C   UNL     1      -1.131  10.327  19.058  0.00  0.00    +0.000 C 
BRANCH  31  32
ATOM     32  C   UNL     1      -2.124  10.450  17.920  0.00  0.00    +0.000 A 
ATOM     33  C   UNL     1      -1.927   9.769  16.713  0.00  0.00    +0.000 A 
ATOM     34  C   UNL     1      -2.853   9.890  15.672  0.00  0.00    +0.000 A 
ATOM     35  C   UNL     1      -3.974  10.707  15.817  0.00  0.00    +0.000 A 
ATOM     36  C   UNL     1      -4.177  11.396  17.008  0.00  0.00    +0.000 A 
ATOM     37  C   UNL     1      -3.262  11.261  18.056  0.00  0.00    +0.000 A 
ENDBRANCH  31  32
ENDBRANCH   1  31
TORSDOF 13
ENDMDL
MODEL 4
REMARK VINA RESULT:      -8.0      2.198      3.791
REMARK  Name = 
REMARK  16 active torsions:
REMARK  status: ('A' for Active; 'I' for Inactive)
REMARK    1  A    between atoms: C_1  and  C_2
REMARK    2  A    between atoms: C_2  and  C_3
REMARK    3  A    between atoms: C_2  and  C_4
REMARK    4  A    between atoms: C_2  and  C_5
REMARK    5  A    between atoms: C_5  and  N_6
REMARK    6  A    between atoms: N_6  and  C_7
REMARK    7  A    between atoms: C_7  and  C_8
REMARK    8  A    between atoms: C_8  and  O_9
REMARK    9  A    between atoms: C_8  and  C_10
REMARK   10  A    between atoms: C_10  and  C_11
REMARK   11  A    between atoms: C_10  and  N_18
REMARK   12  A    between atoms: C_11  and  C_12
REMARK   13  A    between atoms: C_19  and  C_21
REMARK   14  A    between atoms: C_21  and  C_22
REMARK   15  A    between atoms: C_22  and  C_23
REMARK   16  A    between atoms: C_22  and  C_29
REMARK                            x       y       z     vdW  Elec       q    Type
REMARK                         _______ _______ _______ _____ _____    ______ ____
ROOT
ATOM      1  C   UNL     1       0.320  10.605  18.820  0.00  0.00    +0.000 C 
ENDROOT
BRANCH   1   2
ATOM      2  N   UNL     1       1.073   9.458  19.396  0.00  0.00    +0.000 N 
ATOM      3  C   UNL     1       1.881   8.658  18.604  0.00  0.00    +0.000 C 
ATOM      4  O   UNL     1       2.098   8.910  17.420  0.00  0.00    +0.000 OA
ATOM      5  H   UNL     1       0.885   9.149  20.341  0.00  0.00    +0.000 HD
BRANCH   3   6
ATOM      6  C   UNL     1       2.525   7.455  19.286  0.00  0.00    +0.000 C 
BRANCH   6   7
ATOM      7  C   UNL     1       2.818   6.239  18.381  0.00  0.00    +0.000 C 
BRANCH   7   8
ATOM      8  C   UNL     1       4.279   6.056  17.965  0.00  0.00    +0.000 A 
ATOM      9  C   UNL     1       5.255   5.478  18.794  0.00  0.00    +0.000 A 
ATOM     10  C   UNL     1       6.542   5.210  18.305  0.00  0.00    +0.000 A 
ATOM     11  C   UNL     1       6.881   5.530  16.992  0.00  0.00    +0.000 A 
ATOM     12  C   UNL     1       5.937   6.134  16.168  0.00  0.00    +0.000 A 
ATOM     13  C   UNL     1       4.654   6.398  16.652  0.00  0.00    +0.000 A 
ENDBRANCH   7   8
BRANCH   7  14
ATOM     14  C   UNL     1       2.168   4.934  18.875  0.00  0.00    +0.000 A 
ATOM     15  C   UNL     1       1.973   3.888  17.954  0.00  0.00    +0.000 A 
ATOM     16  C   UNL     1       1.284   2.728  18.310  0.00  0.00    +0.000 A 
ATOM     17  C   UNL     1       0.784   2.583  19.602  0.00  0.00    +0.000 A 
ATOM     18  C   UNL     1       1.014   3.579  20.549  0.00  0.00    +0.000 A 
ATOM     19  C   UNL     1       1.710   4.744  20.192  0.00  0.00    +0.000 A 
ENDBRANCH   7  14
ENDBRANCH   6   7
ENDBRANCH   3   6
ENDBRANCH   1   2
BRANCH   1  20
ATOM     20  C   UNL     1       0.822  12.000  19.306  0.00  0.00    +0.000 C 
BRANCH  20  21
ATOM     21  O   UNL     1       1.299  11.914  20.663  0.00  0.00    +0.000 OA
ATOM     22  H   UNL     1       2.210  12.243  20.682  0.00  0.00    +0.000 HD
ENDBRANCH  20  21
BRANCH  20  23
ATOM     23  C   UNL     1       1.894  12.710  18.464  0.00  0.00    +0.000 C 
BRANCH  23  24
ATOM     24  N   UNL     1       2.400  14.006  18.888  0.00  0.00    +0.000 NA
ATOM     25  H   UNL     1       1.643  14.681  18.766  0.00  0.00    +0.000 HD
BRANCH  24  26
ATOM     26  C   UNL     1       3.590  14.560  18.230  0.00  0.00    +0.000 C 
BRANCH  26  28
ATOM     27  C   UNL     1       2.695  16.468  19.623  0.00  0.00    +0.000 C 
ATOM     28  C   UNL     1       3.573  16.117  18.408  0.00  0.00    +0.000 C 
ATOM     29  C   UNL     1       3.002  16.818  17.154  0.00  0.00    +0.000 C 
ATOM     30  C   UNL     1       4.986  16.683  18.651  0.00  0.00    +0.000 C 
ENDBRANCH  26  28
ENDBRANCH  24  26
ENDBRANCH  23  24
ENDBRANCH  20  23
ENDBRANCH   1  20
BRANCH   1  31
ATOM     31  C   UNL     1      -1.192  10.412  19.152  0.00  0.00    +0.000 C 
BRANCH  31  32
ATOM     32  C   UNL     1      -2.153  10.551  17.988  0.00  0.00    +0.000 A 
ATOM     33  C   UNL     1      -3.296  11.352  18.086  0.00  0.00    +0.000 A 
ATOM     34  C   UNL     1      -4.173  11.472  17.003  0.00  0.00    +0.000 A 
ATOM     35  C   UNL     1      -3.929  10.779  15.818  0.00  0.00    +0.000 A 
ATOM     36  C   UNL     1      -2.800   9.972  15.710  0.00  0.00    +0.000 A 
ATOM     37  C   UNL     1      -1.914   9.866  16.786  0.00  0.00    +0.000 A 
ENDBRANCH  31  32
ENDBRANCH   1  31
TORSDOF 13
ENDMDL
MODEL 5
REMARK VINA RESULT:      -8.0      1.892      3.513
REMARK  Name = 
REMARK  16 active torsions:
REMARK  status: ('A' for Active; 'I' for Inactive)
REMARK    1  A    between atoms: C_1  and  C_2
REMARK    2  A    between atoms: C_2  and  C_3
REMARK    3  A    between atoms: C_2  and  C_4
REMARK    4  A    between atoms: C_2  and  C_5
REMARK    5  A    between atoms: C_5  and  N_6
REMARK    6  A    between atoms: N_6  and  C_7
REMARK    7  A    between atoms: C_7  and  C_8
REMARK    8  A    between atoms: C_8  and  O_9
REMARK    9  A    between atoms: C_8  and  C_10
REMARK   10  A    between atoms: C_10  and  C_11
REMARK   11  A    between atoms: C_10  and  N_18
REMARK   12  A    between atoms: C_11  and  C_12
REMARK   13  A    between atoms: C_19  and  C_21
REMARK   14  A    between atoms: C_21  and  C_22
REMARK   15  A    between atoms: C_22  and  C_23
REMARK   16  A    between atoms: C_22  and  C_29
REMARK                            x       y       z     vdW  Elec       q    Type
REMARK                         _______ _______ _______ _____ _____    ______ ____
ROOT
ATOM      1  C   UNL     1       0.528  10.507  18.623  0.00  0.00    +0.000 C 
ENDROOT
BRANCH   1   2
ATOM      2  N   UNL     1       1.142   9.297  19.233  0.00  0.00    +0.000 N 
ATOM      3  C   UNL     1       1.994   8.479  18.507  0.00  0.00    +0.000 C 
ATOM      4  O   UNL     1       2.364   8.761  17.368  0.00  0.00    +0.000 OA
ATOM      5  H   UNL     1       0.826   8.965  20.135  0.00  0.00    +0.000 HD
BRANCH   3   6
ATOM      6  C   UNL     1       2.484   7.215  19.206  0.00  0.00    +0.000 C 
BRANCH   6   7
ATOM      7  C   UNL     1       3.023   6.098  18.288  0.00  0.00    +0.000 C 
BRANCH   7   8
ATOM      8  C   UNL     1       4.544   6.044  18.130  0.00  0.00    +0.000 A 
ATOM      9  C   UNL     1       5.408   5.534  19.113  0.00  0.00    +0.000 A 
ATOM     10  C   UNL     1       6.778   5.382  18.853  0.00  0.00    +0.000 A 
ATOM     11  C   UNL     1       7.310   5.752  17.619  0.00  0.00    +0.000 A 
ATOM     12  C   UNL     1       6.474   6.291  16.647  0.00  0.00    +0.000 A 
ATOM     13  C   UNL     1       5.109   6.439  16.902  0.00  0.00    +0.000 A 
ENDBRANCH   7   8
BRANCH   7  14
ATOM     14  C   UNL     1       2.401   4.718  18.567  0.00  0.00    +0.000 A 
ATOM     15  C   UNL     1       2.626   3.679  17.644  0.00  0.00    +0.000 A 
ATOM     16  C   UNL     1       1.994   2.442  17.778  0.00  0.00    +0.000 A 
ATOM     17  C   UNL     1       1.130   2.213  18.847  0.00  0.00    +0.000 A 
ATOM     18  C   UNL     1       0.935   3.205  19.805  0.00  0.00    +0.000 A 
ATOM     19  C   UNL     1       1.574   4.447  19.672  0.00  0.00    +0.000 A 
ENDBRANCH   7  14
ENDBRANCH   6   7
ENDBRANCH   3   6
ENDBRANCH   1   2
BRANCH   1  20
ATOM     20  C   UNL     1       1.287  11.832  18.946  0.00  0.00    +0.000 C 
BRANCH  20  21
ATOM     21  O   UNL     1       2.080  12.242  17.815  0.00  0.00    +0.000 OA
ATOM     22  H   UNL     1       3.006  12.286  18.099  0.00  0.00    +0.000 HD
ENDBRANCH  20  21
BRANCH  20  23
ATOM     23  C   UNL     1       0.458  13.038  19.415  0.00  0.00    +0.000 C 
BRANCH  23  24
ATOM     24  N   UNL     1       1.133  14.253  19.841  0.00  0.00    +0.000 NA
ATOM     25  H   UNL     1       0.672  14.571  20.696  0.00  0.00    +0.000 HD
BRANCH  24  26
ATOM     26  C   UNL     1       1.192  15.399  18.926  0.00  0.00    +0.000 C 
BRANCH  26  28
ATOM     27  C   UNL     1       3.165  16.363  17.677  0.00  0.00    +0.000 C 
ATOM     28  C   UNL     1       2.594  16.083  19.079  0.00  0.00    +0.000 C 
ATOM     29  C   UNL     1       3.577  15.177  19.854  0.00  0.00    +0.000 C 
ATOM     30  C   UNL     1       2.499  17.421  19.839  0.00  0.00    +0.000 C 
ENDBRANCH  26  28
ENDBRANCH  24  26
ENDBRANCH  23  24
ENDBRANCH  20  23
ENDBRANCH   1  20
BRANCH   1  31
ATOM     31  C   UNL     1      -0.958  10.590  19.091  0.00  0.00    +0.000 C 
BRANCH  31  32
ATOM     32  C   UNL     1      -2.000  10.645  17.992  0.00  0.00    +0.000 A 
ATOM     33  C   UNL     1      -3.108  11.496  18.089  0.00  0.00    +0.000 A 
ATOM     34  C   UNL     1      -4.061  11.538  17.067  0.00  0.00    +0.000 A 
ATOM     35  C   UNL     1      -3.930  10.718  15.947  0.00  0.00    +0.000 A 
ATOM     36  C   UNL     1      -2.839   9.861  15.842  0.00  0.00    +0.000 A 
ATOM     37  C   UNL     1      -1.876   9.832  16.855  0.00  0.00    +0.000 A 
ENDBRANCH  31  32
ENDBRANCH   1  31
TORSDOF 13
ENDMDL
MODEL 6
REMARK VINA RESULT:      -7.9      2.142      3.618
REMARK  Name = 
REMARK  16 active torsions:
REMARK  status: ('A' for Active; 'I' for Inactive)
REMARK    1  A    between atoms: C_1  and  C_2
REMARK    2  A    between atoms: C_2  and  C_3
REMARK    3  A    between atoms: C_2  and  C_4
REMARK    4  A    between atoms: C_2  and  C_5
REMARK    5  A    between atoms: C_5  and  N_6
REMARK    6  A    between atoms: N_6  and  C_7
REMARK    7  A    between atoms: C_7  and  C_8
REMARK    8  A    between atoms: C_8  and  O_9
REMARK    9  A    between atoms: C_8  and  C_10
REMARK   10  A    between atoms: C_10  and  C_11
REMARK   11  A    between atoms: C_10  and  N_18
REMARK   12  A    between atoms: C_11  and  C_12
REMARK   13  A    between atoms: C_19  and  C_21
REMARK   14  A    between atoms: C_21  and  C_22
REMARK   15  A    between atoms: C_22  and  C_23
REMARK   16  A    between atoms: C_22  and  C_29
REMARK                            x       y       z     vdW  Elec       q    Type
REMARK                         _______ _______ _______ _____ _____    ______ ____
ROOT
ATOM      1  C   UNL     1       0.315  10.685  19.026  0.00  0.00    +0.000 C 
ENDROOT
BRANCH   1   2
ATOM      2  N   UNL     1       1.174   9.570  19.507  0.00  0.00    +0.000 N 
ATOM      3  C   UNL     1       1.827   8.730  18.618  0.00  0.00    +0.000 C 
ATOM      4  O   UNL     1       1.814   8.919  17.403  0.00  0.00    +0.000 OA
ATOM      5  H   UNL     1       1.172   9.310  20.484  0.00  0.00    +0.000 HD
BRANCH   3   6
ATOM      6  C   UNL     1       2.600   7.564  19.226  0.00  0.00    +0.000 C 
BRANCH   6   7
ATOM      7  C   UNL     1       2.817   6.342  18.309  0.00  0.00    +0.000 C 
BRANCH   7   8
ATOM      8  C   UNL     1       4.266   6.061  17.906  0.00  0.00    +0.000 A 
ATOM      9  C   UNL     1       5.192   5.415  18.742  0.00  0.00    +0.000 A 
ATOM     10  C   UNL     1       6.463   5.062  18.264  0.00  0.00    +0.000 A 
ATOM     11  C   UNL     1       6.836   5.363  16.956  0.00  0.00    +0.000 A 
ATOM     12  C   UNL     1       5.943   6.033  16.125  0.00  0.00    +0.000 A 
ATOM     13  C   UNL     1       4.676   6.381  16.598  0.00  0.00    +0.000 A 
ENDBRANCH   7   8
BRANCH   7  14
ATOM     14  C   UNL     1       2.072   5.080  18.779  0.00  0.00    +0.000 A 
ATOM     15  C   UNL     1       1.721   4.973  20.138  0.00  0.00    +0.000 A 
ATOM     16  C   UNL     1       1.152   3.805  20.650  0.00  0.00    +0.000 A 
ATOM     17  C   UNL     1       0.910   2.722  19.809  0.00  0.00    +0.000 A 
ATOM     18  C   UNL     1       1.195   2.823  18.448  0.00  0.00    +0.000 A 
ATOM     19  C   UNL     1       1.763   3.998  17.934  0.00  0.00    +0.000 A 
ENDBRANCH   7  14
ENDBRANCH   6   7
ENDBRANCH   3   6
ENDBRANCH   1   2
BRANCH   1  20
ATOM     20  C   UNL     1       0.639  12.062  19.683  0.00  0.00    +0.000 C 
BRANCH  20  21
ATOM     21  O   UNL     1       1.382  11.871  20.903  0.00  0.00    +0.000 OA
ATOM     22  H   UNL     1       2.101  11.247  20.720  0.00  0.00    +0.000 HD
ENDBRANCH  20  21
BRANCH  20  23
ATOM     23  C   UNL     1       1.374  13.109  18.831  0.00  0.00    +0.000 C 
BRANCH  23  24
ATOM     24  N   UNL     1       2.486  13.851  19.403  0.00  0.00    +0.000 NA
ATOM     25  H   UNL     1       2.092  14.648  19.906  0.00  0.00    +0.000 HD
BRANCH  24  26
ATOM     26  C   UNL     1       3.533  14.370  18.515  0.00  0.00    +0.000 C 
BRANCH  26  28
ATOM     27  C   UNL     1       5.006  16.387  18.894  0.00  0.00    +0.000 C 
ATOM     28  C   UNL     1       3.558  15.932  18.638  0.00  0.00    +0.000 C 
ATOM     29  C   UNL     1       2.664  16.416  19.803  0.00  0.00    +0.000 C 
ATOM     30  C   UNL     1       3.054  16.617  17.353  0.00  0.00    +0.000 C 
ENDBRANCH  26  28
ENDBRANCH  24  26
ENDBRANCH  23  24
ENDBRANCH  20  23
ENDBRANCH   1  20
BRANCH   1  31
ATOM     31  C   UNL     1      -1.175  10.291  19.266  0.00  0.00    +0.000 C 
BRANCH  31  32
ATOM     32  C   UNL     1      -2.117  10.503  18.097  0.00  0.00    +0.000 A 
ATOM     33  C   UNL     1      -3.227  11.348  18.208  0.00  0.00    +0.000 A 
ATOM     34  C   UNL     1      -4.086  11.536  17.121  0.00  0.00    +0.000 A 
ATOM     35  C   UNL     1      -3.859  10.867  15.919  0.00  0.00    +0.000 A 
ATOM     36  C   UNL     1      -2.764  10.017  15.798  0.00  0.00    +0.000 A 
ATOM     37  C   UNL     1      -1.894   9.843  16.878  0.00  0.00    +0.000 A 
ENDBRANCH  31  32
ENDBRANCH   1  31
TORSDOF 13
ENDMDL
MODEL 7
REMARK VINA RESULT:      -7.9      1.626      3.059
REMARK  Name = 
REMARK  16 active torsions:
REMARK  status: ('A' for Active; 'I' for Inactive)
REMARK    1  A    between atoms: C_1  and  C_2
REMARK    2  A    between atoms: C_2  and  C_3
REMARK    3  A    between atoms: C_2  and  C_4
REMARK    4  A    between atoms: C_2  and  C_5
REMARK    5  A    between atoms: C_5  and  N_6
REMARK    6  A    between atoms: N_6  and  C_7
REMARK    7  A    between atoms: C_7  and  C_8
REMARK    8  A    between atoms: C_8  and  O_9
REMARK    9  A    between atoms: C_8  and  C_10
REMARK   10  A    between atoms: C_10  and  C_11
REMARK   11  A    between atoms: C_10  and  N_18
REMARK   12  A    between atoms: C_11  and  C_12
REMARK   13  A    between atoms: C_19  and  C_21
REMARK   14  A    between atoms: C_21  and  C_22
REMARK   15  A    between atoms: C_22  and  C_23
REMARK   16  A    between atoms: C_22  and  C_29
REMARK                            x       y       z     vdW  Elec       q    Type
REMARK                         _______ _______ _______ _____ _____    ______ ____
ROOT
ATOM      1  C   UNL     1       0.185  10.688  18.743  0.00  0.00    +0.000 C 
ENDROOT
BRANCH   1   2
ATOM      2  N   UNL     1       0.923   9.542  19.338  0.00  0.00    +0.000 N 
ATOM      3  C   UNL     1       1.766   8.753  18.570  0.00  0.00    +0.000 C 
ATOM      4  O   UNL     1       2.024   9.016  17.396  0.00  0.00    +0.000 OA
ATOM      5  H   UNL     1       0.704   9.224  20.272  0.00  0.00    +0.000 HD
BRANCH   3   6
ATOM      6  C   UNL     1       2.393   7.549  19.265  0.00  0.00    +0.000 C 
BRANCH   6   7
ATOM      7  C   UNL     1       2.712   6.336  18.364  0.00  0.00    +0.000 C 
BRANCH   7   8
ATOM      8  C   UNL     1       4.189   6.132  18.023  0.00  0.00    +0.000 A 
ATOM      9  C   UNL     1       5.093   5.458  18.860  0.00  0.00    +0.000 A 
ATOM     10  C   UNL     1       6.398   5.181  18.429  0.00  0.00    +0.000 A 
ATOM     11  C   UNL     1       6.828   5.588  17.167  0.00  0.00    +0.000 A 
ATOM     12  C   UNL     1       5.956   6.287  16.338  0.00  0.00    +0.000 A 
ATOM     13  C   UNL     1       4.655   6.559  16.764  0.00  0.00    +0.000 A 
ENDBRANCH   7   8
BRANCH   7  14
ATOM     14  C   UNL     1       2.016   5.038  18.813  0.00  0.00    +0.000 A 
ATOM     15  C   UNL     1       1.667   4.895  20.169  0.00  0.00    +0.000 A 
ATOM     16  C   UNL     1       1.144   3.698  20.660  0.00  0.00    +0.000 A 
ATOM     17  C   UNL     1       0.947   2.619  19.801  0.00  0.00    +0.000 A 
ATOM     18  C   UNL     1       1.232   2.753  18.444  0.00  0.00    +0.000 A 
ATOM     19  C   UNL     1       1.754   3.958  17.949  0.00  0.00    +0.000 A 
ENDBRANCH   7  14
ENDBRANCH   6   7
ENDBRANCH   3   6
ENDBRANCH   1   2
BRANCH   1  20
ATOM     20  C   UNL     1       0.655  12.082  19.263  0.00  0.00    +0.000 C 
BRANCH  20  21
ATOM     21  O   UNL     1      -0.415  13.041  19.160  0.00  0.00    +0.000 OA
ATOM     22  H   UNL     1      -0.419  13.388  18.255  0.00  0.00    +0.000 HD
ENDBRANCH  20  21
BRANCH  20  23
ATOM     23  C   UNL     1       1.235  12.159  20.685  0.00  0.00    +0.000 C 
BRANCH  23  24
ATOM     24  N   UNL     1       1.778  13.416  21.173  0.00  0.00    +0.000 NA
ATOM     25  H   UNL     1       1.074  14.136  21.003  0.00  0.00    +0.000 HD
BRANCH  24  26
ATOM     26  C   UNL     1       3.048  13.909  20.625  0.00  0.00    +0.000 C 
BRANCH  26  28
ATOM     27  C   UNL     1       1.893  16.096  21.138  0.00  0.00    +0.000 C 
ATOM     28  C   UNL     1       2.842  15.389  20.153  0.00  0.00    +0.000 C 
ATOM     29  C   UNL     1       2.230  15.444  18.735  0.00  0.00    +0.000 C 
ATOM     30  C   UNL     1       4.170  16.169  20.115  0.00  0.00    +0.000 C 
ENDBRANCH  26  28
ENDBRANCH  24  26
ENDBRANCH  23  24
ENDBRANCH  20  23
ENDBRANCH   1  20
BRANCH   1  31
ATOM     31  C   UNL     1      -1.338  10.480  19.011  0.00  0.00    +0.000 C 
BRANCH  31  32
ATOM     32  C   UNL     1      -2.244  10.551  17.798  0.00  0.00    +0.000 A 
ATOM     33  C   UNL     1      -3.373  11.379  17.788  0.00  0.00    +0.000 A 
ATOM     34  C   UNL     1      -4.199  11.436  16.661  0.00  0.00    +0.000 A 
ATOM     35  C   UNL     1      -3.919  10.654  15.541  0.00  0.00    +0.000 A 
ATOM     36  C   UNL     1      -2.805   9.820  15.541  0.00  0.00    +0.000 A 
ATOM     37  C   UNL     1      -1.968   9.776  16.660  0.00  0.00    +0.000 A 
ENDBRANCH  31  32
ENDBRANCH   1  31
TORSDOF 13
ENDMDL
MODEL 8
REMARK VINA RESULT:      -7.9      2.078      3.349
REMARK  Name = 
REMARK  16 active torsions:
REMARK  status: ('A' for Active; 'I' for Inactive)
REMARK    1  A    between atoms: C_1  and  C_2
REMARK    2  A    between atoms: C_2  and  C_3
REMARK    3  A    between atoms: C_2  and  C_4
REMARK    4  A    between atoms: C_2  and  C_5
REMARK    5  A    between atoms: C_5  and  N_6
REMARK    6  A    between atoms: N_6  and  C_7
REMARK    7  A    between atoms: C_7  and  C_8
REMARK    8  A    between atoms: C_8  and  O_9
REMARK    9  A    between atoms: C_8  and  C_10
REMARK   10  A    between atoms: C_10  and  C_11
REMARK   11  A    between atoms: C_10  and  N_18
REMARK   12  A    between atoms: C_11  and  C_12
REMARK   13  A    between atoms: C_19  and  C_21
REMARK   14  A    between atoms: C_21  and  C_22
REMARK   15  A    between atoms: C_22  and  C_23
REMARK   16  A    between atoms: C_22  and  C_29
REMARK                            x       y       z     vdW  Elec       q    Type
REMARK                         _______ _______ _______ _____ _____    ______ ____
ROOT
ATOM      1  C   UNL     1       0.255  10.664  18.762  0.00  0.00    +0.000 C 
ENDROOT
BRANCH   1   2
ATOM      2  N   UNL     1       1.020   9.526  19.339  0.00  0.00    +0.000 N 
ATOM      3  C   UNL     1       1.852   8.746  18.552  0.00  0.00    +0.000 C 
ATOM      4  O   UNL     1       2.079   9.011  17.371  0.00  0.00    +0.000 OA
ATOM      5  H   UNL     1       0.827   9.207  20.279  0.00  0.00    +0.000 HD
BRANCH   3   6
ATOM      6  C   UNL     1       2.508   7.549  19.232  0.00  0.00    +0.000 C 
BRANCH   6   7
ATOM      7  C   UNL     1       2.792   6.329  18.330  0.00  0.00    +0.000 C 
BRANCH   7   8
ATOM      8  C   UNL     1       4.264   6.078  17.995  0.00  0.00    +0.000 A 
ATOM      9  C   UNL     1       5.166   5.459  18.877  0.00  0.00    +0.000 A 
ATOM     10  C   UNL     1       6.464   5.132  18.459  0.00  0.00    +0.000 A 
ATOM     11  C   UNL     1       6.888   5.430  17.166  0.00  0.00    +0.000 A 
ATOM     12  C   UNL     1       6.019   6.074  16.291  0.00  0.00    +0.000 A 
ATOM     13  C   UNL     1       4.724   6.397  16.704  0.00  0.00    +0.000 A 
ENDBRANCH   7   8
BRANCH   7  14
ATOM     14  C   UNL     1       2.053   5.053  18.773  0.00  0.00    +0.000 A 
ATOM     15  C   UNL     1       1.664   4.933  20.120  0.00  0.00    +0.000 A 
ATOM     16  C   UNL     1       1.098   3.754  20.609  0.00  0.00    +0.000 A 
ATOM     17  C   UNL     1       0.899   2.671  19.756  0.00  0.00    +0.000 A 
ATOM     18  C   UNL     1       1.224   2.784  18.406  0.00  0.00    +0.000 A 
ATOM     19  C   UNL     1       1.788   3.970  17.914  0.00  0.00    +0.000 A 
ENDBRANCH   7  14
ENDBRANCH   6   7
ENDBRANCH   3   6
ENDBRANCH   1   2
BRANCH   1  20
ATOM     20  C   UNL     1       0.737  12.065  19.254  0.00  0.00    +0.000 C 
BRANCH  20  21
ATOM     21  O   UNL     1       1.326  11.958  20.565  0.00  0.00    +0.000 OA
ATOM     22  H   UNL     1       2.243  12.267  20.507  0.00  0.00    +0.000 HD
ENDBRANCH  20  21
BRANCH  20  23
ATOM     23  C   UNL     1       1.706  12.848  18.354  0.00  0.00    +0.000 C 
BRANCH  23  24
ATOM     24  N   UNL     1       2.926  13.400  18.919  0.00  0.00    +0.000 NA
ATOM     25  H   UNL     1       2.706  13.713  19.866  0.00  0.00    +0.000 HD
BRANCH  24  26
ATOM     26  C   UNL     1       3.592  14.516  18.234  0.00  0.00    +0.000 C 
BRANCH  26  28
ATOM     27  C   UNL     1       2.548  16.365  19.603  0.00  0.00    +0.000 C 
ATOM     28  C   UNL     1       3.872  15.645  19.285  0.00  0.00    +0.000 C 
ATOM     29  C   UNL     1       4.889  16.674  18.743  0.00  0.00    +0.000 C 
ATOM     30  C   UNL     1       4.442  15.077  20.599  0.00  0.00    +0.000 C 
ENDBRANCH  26  28
ENDBRANCH  24  26
ENDBRANCH  23  24
ENDBRANCH  20  23
ENDBRANCH   1  20
BRANCH   1  31
ATOM     31  C   UNL     1      -1.256  10.452  19.087  0.00  0.00    +0.000 C 
BRANCH  31  32
ATOM     32  C   UNL     1      -2.211  10.556  17.914  0.00  0.00    +0.000 A 
ATOM     33  C   UNL     1      -1.986   9.838  16.734  0.00  0.00    +0.000 A 
ATOM     34  C   UNL     1      -2.877   9.943  15.661  0.00  0.00    +0.000 A 
ATOM     35  C   UNL     1      -3.988  10.780  15.746  0.00  0.00    +0.000 A 
ATOM     36  C   UNL     1      -4.219  11.506  16.911  0.00  0.00    +0.000 A 
ATOM     37  C   UNL     1      -3.339  11.388  17.991  0.00  0.00    +0.000 A 
ENDBRANCH  31  32
ENDBRANCH   1  31
TORSDOF 13
ENDMDL
MODEL 9
REMARK VINA RESULT:      -7.8      2.049      3.377
REMARK  Name = 
REMARK  16 active torsions:
REMARK  status: ('A' for Active; 'I' for Inactive)
REMARK    1  A    between atoms: C_1  and  C_2
REMARK    2  A    between atoms: C_2  and  C_3
REMARK    3  A    between atoms: C_2  and  C_4
REMARK    4  A    between atoms: C_2  and  C_5
REMARK    5  A    between atoms: C_5  and  N_6
REMARK    6  A    between atoms: N_6  and  C_7
REMARK    7  A    between atoms: C_7  and  C_8
REMARK    8  A    between atoms: C_8  and  O_9
REMARK    9  A    between atoms: C_8  and  C_10
REMARK   10  A    between atoms: C_10  and  C_11
REMARK   11  A    between atoms: C_10  and  N_18
REMARK   12  A    between atoms: C_11  and  C_12
REMARK   13  A    between atoms: C_19  and  C_21
REMARK   14  A    between atoms: C_21  and  C_22
REMARK   15  A    between atoms: C_22  and  C_23
REMARK   16  A    between atoms: C_22  and  C_29
REMARK                            x       y       z     vdW  Elec       q    Type
REMARK                         _______ _______ _______ _____ _____    ______ ____
ROOT
ATOM      1  C   UNL     1       0.935  10.164  18.469  0.00  0.00    +0.000 C 
ENDROOT
BRANCH   1   2
ATOM      2  N   UNL     1       1.573   8.918  18.974  0.00  0.00    +0.000 N 
ATOM      3  C   UNL     1       2.448   8.188  18.184  0.00  0.00    +0.000 C 
ATOM      4  O   UNL     1       2.818   8.579  17.078  0.00  0.00    +0.000 OA
ATOM      5  H   UNL     1       1.260   8.500  19.840  0.00  0.00    +0.000 HD
BRANCH   3   6
ATOM      6  C   UNL     1       2.964   6.879  18.772  0.00  0.00    +0.000 C 
BRANCH   6   7
ATOM      7  C   UNL     1       3.194   5.729  17.767  0.00  0.00    +0.000 C 
BRANCH   7   8
ATOM      8  C   UNL     1       4.579   5.679  17.120  0.00  0.00    +0.000 A 
ATOM      9  C   UNL     1       5.697   6.362  17.627  0.00  0.00    +0.000 A 
ATOM     10  C   UNL     1       6.969   6.164  17.071  0.00  0.00    +0.000 A 
ATOM     11  C   UNL     1       7.144   5.299  15.992  0.00  0.00    +0.000 A 
ATOM     12  C   UNL     1       6.041   4.641  15.456  0.00  0.00    +0.000 A 
ATOM     13  C   UNL     1       4.775   4.833  16.012  0.00  0.00    +0.000 A 
ENDBRANCH   7   8
BRANCH   7  14
ATOM     14  C   UNL     1       2.725   4.357  18.285  0.00  0.00    +0.000 A 
ATOM     15  C   UNL     1       1.390   3.973  18.061  0.00  0.00    +0.000 A 
ATOM     16  C   UNL     1       0.872   2.798  18.607  0.00  0.00    +0.000 A 
ATOM     17  C   UNL     1       1.684   1.973  19.382  0.00  0.00    +0.000 A 
ATOM     18  C   UNL     1       3.025   2.301  19.571  0.00  0.00    +0.000 A 
ATOM     19  C   UNL     1       3.546   3.481  19.019  0.00  0.00    +0.000 A 
ENDBRANCH   7  14
ENDBRANCH   6   7
ENDBRANCH   3   6
ENDBRANCH   1   2
BRANCH   1  20
ATOM     20  C   UNL     1       1.803  11.445  18.670  0.00  0.00    +0.000 C 
BRANCH  20  21
ATOM     21  O   UNL     1       2.417  11.833  17.426  0.00  0.00    +0.000 OA
ATOM     22  H   UNL     1       2.916  12.649  17.580  0.00  0.00    +0.000 HD
ENDBRANCH  20  21
BRANCH  20  23
ATOM     23  C   UNL     1       1.125  12.683  19.279  0.00  0.00    +0.000 C 
BRANCH  23  24
ATOM     24  N   UNL     1       0.840  13.834  18.437  0.00  0.00    +0.000 NA
ATOM     25  H   UNL     1       1.667  14.434  18.454  0.00  0.00    +0.000 HD
BRANCH  24  26
ATOM     26  C   UNL     1      -0.319  14.679  18.747  0.00  0.00    +0.000 C 
BRANCH  26  28
ATOM     27  C   UNL     1       0.252  16.357  20.546  0.00  0.00    +0.000 C 
ATOM     28  C   UNL     1       0.190  16.136  19.024  0.00  0.00    +0.000 C 
ATOM     29  C   UNL     1      -0.755  17.187  18.399  0.00  0.00    +0.000 C 
ATOM     30  C   UNL     1       1.596  16.372  18.441  0.00  0.00    +0.000 C 
ENDBRANCH  26  28
ENDBRANCH  24  26
ENDBRANCH  23  24
ENDBRANCH  20  23
ENDBRANCH   1  20
BRANCH   1  31
ATOM     31  C   UNL     1      -0.452  10.318  19.165  0.00  0.00    +0.000 C 
BRANCH  31  32
ATOM     32  C   UNL     1      -1.644  10.494  18.245  0.00  0.00    +0.000 A 
ATOM     33  C   UNL     1      -1.742   9.778  17.046  0.00  0.00    +0.000 A 
ATOM     34  C   UNL     1      -2.848   9.949  16.208  0.00  0.00    +0.000 A 
ATOM     35  C   UNL     1      -3.857  10.850  16.546  0.00  0.00    +0.000 A 
ATOM     36  C   UNL     1      -3.767  11.575  17.731  0.00  0.00    +0.000 A 
ATOM     37  C   UNL     1      -2.671  11.391  18.579  0.00  0.00    +0.000 A 
ENDBRANCH  31  32
ENDBRANCH   1  31
TORSDOF 13
ENDMDL
