MODEL 1
REMARK VINA RESULT:      -7.1      0.000      0.000
REMARK  Name = 
REMARK  8 active torsions:
REMARK  status: ('A' for Active; 'I' for Inactive)
REMARK    1  A    between atoms: C_1  and  C_2
REMARK    2  A    between atoms: C_2  and  C_3
REMARK    3  A    between atoms: C_10  and  C_11
REMARK    4  A    between atoms: C_11  and  C_12
REMARK    5  A    between atoms: C_12  and  C_13
REMARK    6  A    between atoms: C_12  and  O_14
REMARK    7  A    between atoms: C_15  and  C_16
REMARK    8  A    between atoms: C_16  and  O_17
REMARK                            x       y       z     vdW  Elec       q    Type
REMARK                         _______ _______ _______ _____ _____    ______ ____
ROOT
ATOM      1  C   UNL     1       7.505   4.842  13.061  0.00  0.00    +0.000 C 
ATOM      2  C   UNL     1       6.274   4.250  13.683  0.00  0.00    +0.000 C 
ATOM      3  C   UNL     1       5.463   3.302  12.839  0.00  0.00    +0.000 C 
ATOM      4  C   UNL     1       5.890   4.512  14.944  0.00  0.00    +0.000 C 
ATOM      5  O   UNL     1       4.726   3.969  15.491  0.00  0.00    +0.000 OA
ATOM      6  C   UNL     1       4.653   4.421  16.789  0.00  0.00    +0.000 A 
ATOM      7  C   UNL     1       5.723   5.240  17.132  0.00  0.00    +0.000 A 
ATOM      8  C   UNL     1       5.857   5.771  18.393  0.00  0.00    +0.000 A 
ATOM      9  C   UNL     1       4.847   5.475  19.317  0.00  0.00    +0.000 A 
ATOM     10  C   UNL     1       3.707   4.691  18.974  0.00  0.00    +0.000 A 
ATOM     11  C   UNL     1       3.629   4.109  17.679  0.00  0.00    +0.000 A 
ATOM     12  C   UNL     1       6.576   5.372  15.953  0.00  0.00    +0.000 C 
ATOM     13  O   UNL     1       7.589   6.028  15.852  0.00  0.00    +0.000 OA
ENDROOT
BRANCH  10  14
ATOM     14  C   UNL     1       2.615   4.441  20.003  0.00  0.00    +0.000 C 
BRANCH  14  15
ATOM     15  C   UNL     1       2.780   3.278  21.001  0.00  0.00    +0.000 C 
ATOM     16  C   UNL     1       1.461   2.613  21.376  0.00  0.00    +0.000 C 
BRANCH  15  17
ATOM     17  O   UNL     1       3.621   2.278  20.411  0.00  0.00    +0.000 OA
ATOM     18  H   UNL     1       3.346   2.166  19.483  0.00  0.00    +0.000 HD
ENDBRANCH  15  17
ENDBRANCH  14  15
ENDBRANCH  10  14
BRANCH  11  19
ATOM     19  C   UNL     1       2.484   3.272  17.158  0.00  0.00    +0.000 C 
BRANCH  19  20
ATOM     20  O   UNL     1       2.510   1.927  17.612  0.00  0.00    +0.000 OA
ATOM     21  H   UNL     1       2.468   1.362  16.822  0.00  0.00    +0.000 HD
ENDBRANCH  19  20
ENDBRANCH  11  19
TORSDOF 5
ENDMDL
MODEL 2
REMARK VINA RESULT:      -7.0      1.131      1.368
REMARK  Name = 
REMARK  8 active torsions:
REMARK  status: ('A' for Active; 'I' for Inactive)
REMARK    1  A    between atoms: C_1  and  C_2
REMARK    2  A    between atoms: C_2  and  C_3
REMARK    3  A    between atoms: C_10  and  C_11
REMARK    4  A    between atoms: C_11  and  C_12
REMARK    5  A    between atoms: C_12  and  C_13
REMARK    6  A    between atoms: C_12  and  O_14
REMARK    7  A    between atoms: C_15  and  C_16
REMARK    8  A    between atoms: C_16  and  O_17
REMARK                            x       y       z     vdW  Elec       q    Type
REMARK                         _______ _______ _______ _____ _____    ______ ____
ROOT
ATOM      1  C   UNL     1       7.610   5.136  13.040  0.00  0.00    +0.000 C 
ATOM      2  C   UNL     1       6.493   4.380  13.698  0.00  0.00    +0.000 C 
ATOM      3  C   UNL     1       5.732   3.397  12.847  0.00  0.00    +0.000 C 
ATOM      4  C   UNL     1       6.168   4.531  14.993  0.00  0.00    +0.000 C 
ATOM      5  O   UNL     1       5.106   3.834  15.575  0.00  0.00    +0.000 OA
ATOM      6  C   UNL     1       5.072   4.206  16.900  0.00  0.00    +0.000 A 
ATOM      7  C   UNL     1       6.071   5.116  17.228  0.00  0.00    +0.000 A 
ATOM      8  C   UNL     1       6.231   5.589  18.508  0.00  0.00    +0.000 A 
ATOM      9  C   UNL     1       5.321   5.136  19.471  0.00  0.00    +0.000 A 
ATOM     10  C   UNL     1       4.250   4.252  19.150  0.00  0.00    +0.000 A 
ATOM     11  C   UNL     1       4.148   3.736  17.829  0.00  0.00    +0.000 A 
ATOM     12  C   UNL     1       6.824   5.404  16.009  0.00  0.00    +0.000 C 
ATOM     13  O   UNL     1       7.754   6.170  15.887  0.00  0.00    +0.000 OA
ENDROOT
BRANCH  10  14
ATOM     14  C   UNL     1       3.261   3.829  20.226  0.00  0.00    +0.000 C 
BRANCH  14  15
ATOM     15  C   UNL     1       2.018   4.701  20.485  0.00  0.00    +0.000 C 
ATOM     16  C   UNL     1       2.118   6.091  19.868  0.00  0.00    +0.000 C 
BRANCH  15  17
ATOM     17  O   UNL     1       0.871   4.053  19.918  0.00  0.00    +0.000 OA
ATOM     18  H   UNL     1       0.620   3.320  20.508  0.00  0.00    +0.000 HD
ENDBRANCH  15  17
ENDBRANCH  14  15
ENDBRANCH  10  14
BRANCH  11  19
ATOM     19  C   UNL     1       3.065   2.808  17.327  0.00  0.00    +0.000 C 
BRANCH  19  20
ATOM     20  O   UNL     1       1.816   3.451  17.124  0.00  0.00    +0.000 OA
ATOM     21  H   UNL     1       1.754   4.162  17.784  0.00  0.00    +0.000 HD
ENDBRANCH  19  20
ENDBRANCH  11  19
TORSDOF 5
ENDMDL
MODEL 3
REMARK VINA RESULT:      -6.8      1.399      1.678
REMARK  Name = 
REMARK  8 active torsions:
REMARK  status: ('A' for Active; 'I' for Inactive)
REMARK    1  A    between atoms: C_1  and  C_2
REMARK    2  A    between atoms: C_2  and  C_3
REMARK    3  A    between atoms: C_10  and  C_11
REMARK    4  A    between atoms: C_11  and  C_12
REMARK    5  A    between atoms: C_12  and  C_13
REMARK    6  A    between atoms: C_12  and  O_14
REMARK    7  A    between atoms: C_15  and  C_16
REMARK    8  A    between atoms: C_16  and  O_17
REMARK                            x       y       z     vdW  Elec       q    Type
REMARK                         _______ _______ _______ _____ _____    ______ ____
ROOT
ATOM      1  C   UNL     1       7.231   4.205  11.878  0.00  0.00    +0.000 C 
ATOM      2  C   UNL     1       6.117   3.784  12.792  0.00  0.00    +0.000 C 
ATOM      3  C   UNL     1       5.076   2.854  12.226  0.00  0.00    +0.000 C 
ATOM      4  C   UNL     1       6.028   4.181  14.073  0.00  0.00    +0.000 C 
ATOM      5  O   UNL     1       4.966   3.796  14.895  0.00  0.00    +0.000 OA
ATOM      6  C   UNL     1       5.204   4.355  16.130  0.00  0.00    +0.000 A 
ATOM      7  C   UNL     1       6.382   5.092  16.168  0.00  0.00    +0.000 A 
ATOM      8  C   UNL     1       6.818   5.706  17.318  0.00  0.00    +0.000 A 
ATOM      9  C   UNL     1       6.005   5.582  18.452  0.00  0.00    +0.000 A 
ATOM     10  C   UNL     1       4.762   4.886  18.424  0.00  0.00    +0.000 A 
ATOM     11  C   UNL     1       4.368   4.213  17.235  0.00  0.00    +0.000 A 
ATOM     12  C   UNL     1       6.975   5.048  14.833  0.00  0.00    +0.000 C 
ATOM     13  O   UNL     1       7.992   5.594  14.465  0.00  0.00    +0.000 OA
ENDROOT
BRANCH  10  14
ATOM     14  C   UNL     1       3.895   4.823  19.673  0.00  0.00    +0.000 C 
BRANCH  14  15
ATOM     15  C   UNL     1       2.506   5.489  19.653  0.00  0.00    +0.000 C 
ATOM     16  C   UNL     1       1.455   4.716  20.442  0.00  0.00    +0.000 C 
BRANCH  15  17
ATOM     17  O   UNL     1       2.612   6.797  20.232  0.00  0.00    +0.000 OA
ATOM     18  H   UNL     1       3.554   7.044  20.241  0.00  0.00    +0.000 HD
ENDBRANCH  15  17
ENDBRANCH  14  15
ENDBRANCH  10  14
BRANCH  11  19
ATOM     19  C   UNL     1       3.079   3.450  17.040  0.00  0.00    +0.000 C 
BRANCH  19  20
ATOM     20  O   UNL     1       3.083   2.163  17.640  0.00  0.00    +0.000 OA
ATOM     21  H   UNL     1       3.986   1.813  17.548  0.00  0.00    +0.000 HD
ENDBRANCH  19  20
ENDBRANCH  11  19
TORSDOF 5
ENDMDL
MODEL 4
REMARK VINA RESULT:      -6.7      0.980      1.174
REMARK  Name = 
REMARK  8 active torsions:
REMARK  status: ('A' for Active; 'I' for Inactive)
REMARK    1  A    between atoms: C_1  and  C_2
REMARK    2  A    between atoms: C_2  and  C_3
REMARK    3  A    between atoms: C_10  and  C_11
REMARK    4  A    between atoms: C_11  and  C_12
REMARK    5  A    between atoms: C_12  and  C_13
REMARK    6  A    between atoms: C_12  and  O_14
REMARK    7  A    between atoms: C_15  and  C_16
REMARK    8  A    between atoms: C_16  and  O_17
REMARK                            x       y       z     vdW  Elec       q    Type
REMARK                         _______ _______ _______ _____ _____    ______ ____
ROOT
ATOM      1  C   UNL     1       7.183   4.259  11.813  0.00  0.00    +0.000 C 
ATOM      2  C   UNL     1       6.050   3.835  12.702  0.00  0.00    +0.000 C 
ATOM      3  C   UNL     1       4.961   3.002  12.079  0.00  0.00    +0.000 C 
ATOM      4  C   UNL     1       5.985   4.147  14.007  0.00  0.00    +0.000 C 
ATOM      5  O   UNL     1       4.906   3.763  14.807  0.00  0.00    +0.000 OA
ATOM      6  C   UNL     1       5.176   4.222  16.077  0.00  0.00    +0.000 A 
ATOM      7  C   UNL     1       6.391   4.892  16.158  0.00  0.00    +0.000 A 
ATOM      8  C   UNL     1       6.861   5.401  17.345  0.00  0.00    +0.000 A 
ATOM      9  C   UNL     1       6.046   5.242  18.472  0.00  0.00    +0.000 A 
ATOM     10  C   UNL     1       4.767   4.616  18.404  0.00  0.00    +0.000 A 
ATOM     11  C   UNL     1       4.336   4.048  17.174  0.00  0.00    +0.000 A 
ATOM     12  C   UNL     1       6.978   4.909  14.820  0.00  0.00    +0.000 C 
ATOM     13  O   UNL     1       8.021   5.425  14.485  0.00  0.00    +0.000 OA
ENDROOT
BRANCH  10  14
ATOM     14  C   UNL     1       3.901   4.513  19.651  0.00  0.00    +0.000 C 
BRANCH  14  15
ATOM     15  C   UNL     1       4.016   3.260  20.540  0.00  0.00    +0.000 C 
ATOM     16  C   UNL     1       2.667   2.640  20.886  0.00  0.00    +0.000 C 
BRANCH  15  17
ATOM     17  O   UNL     1       4.787   2.270  19.847  0.00  0.00    +0.000 OA
ATOM     18  H   UNL     1       4.287   1.434  19.867  0.00  0.00    +0.000 HD
ENDBRANCH  15  17
ENDBRANCH  14  15
ENDBRANCH  10  14
BRANCH  11  19
ATOM     19  C   UNL     1       3.008   3.369  16.935  0.00  0.00    +0.000 C 
BRANCH  19  20
ATOM     20  O   UNL     1       2.947   2.044  17.441  0.00  0.00    +0.000 OA
ATOM     21  H   UNL     1       2.006   1.817  17.524  0.00  0.00    +0.000 HD
ENDBRANCH  19  20
ENDBRANCH  11  19
TORSDOF 5
ENDMDL
MODEL 5
REMARK VINA RESULT:      -6.4      4.562      7.105
REMARK  Name = 
REMARK  8 active torsions:
REMARK  status: ('A' for Active; 'I' for Inactive)
REMARK    1  A    between atoms: C_1  and  C_2
REMARK    2  A    between atoms: C_2  and  C_3
REMARK    3  A    between atoms: C_10  and  C_11
REMARK    4  A    between atoms: C_11  and  C_12
REMARK    5  A    between atoms: C_12  and  C_13
REMARK    6  A    between atoms: C_12  and  O_14
REMARK    7  A    between atoms: C_15  and  C_16
REMARK    8  A    between atoms: C_16  and  O_17
REMARK                            x       y       z     vdW  Elec       q    Type
REMARK                         _______ _______ _______ _____ _____    ______ ____
ROOT
ATOM      1  C   UNL     1      -0.245  11.440  21.746  0.00  0.00    +0.000 C 
ATOM      2  C   UNL     1       0.068   9.978  21.876  0.00  0.00    +0.000 C 
ATOM      3  C   UNL     1      -0.426   9.275  23.114  0.00  0.00    +0.000 C 
ATOM      4  C   UNL     1       0.738   9.284  20.941  0.00  0.00    +0.000 C 
ATOM      5  O   UNL     1       1.040   7.930  21.098  0.00  0.00    +0.000 OA
ATOM      6  C   UNL     1       1.702   7.540  19.955  0.00  0.00    +0.000 A 
ATOM      7  C   UNL     1       1.850   8.576  19.041  0.00  0.00    +0.000 A 
ATOM      8  C   UNL     1       2.456   8.388  17.822  0.00  0.00    +0.000 A 
ATOM      9  C   UNL     1       2.948   7.106  17.548  0.00  0.00    +0.000 A 
ATOM     10  C   UNL     1       2.866   6.042  18.493  0.00  0.00    +0.000 A 
ATOM     11  C   UNL     1       2.182   6.254  19.721  0.00  0.00    +0.000 A 
ATOM     12  C   UNL     1       1.260   9.776  19.632  0.00  0.00    +0.000 C 
ATOM     13  O   UNL     1       1.220  10.886  19.149  0.00  0.00    +0.000 OA
ENDROOT
BRANCH  10  14
ATOM     14  C   UNL     1       3.461   4.681  18.162  0.00  0.00    +0.000 C 
BRANCH  14  15
ATOM     15  C   UNL     1       2.613   3.666  17.372  0.00  0.00    +0.000 C 
ATOM     16  C   UNL     1       2.795   2.229  17.847  0.00  0.00    +0.000 C 
BRANCH  15  17
ATOM     17  O   UNL     1       1.228   4.004  17.523  0.00  0.00    +0.000 OA
ATOM     18  H   UNL     1       0.743   3.618  16.771  0.00  0.00    +0.000 HD
ENDBRANCH  15  17
ENDBRANCH  14  15
ENDBRANCH  10  14
BRANCH  11  19
ATOM     19  C   UNL     1       2.025   5.238  20.828  0.00  0.00    +0.000 C 
BRANCH  19  20
ATOM     20  O   UNL     1       0.977   4.307  20.600  0.00  0.00    +0.000 OA
ATOM     21  H   UNL     1       0.171   4.691  20.984  0.00  0.00    +0.000 HD
ENDBRANCH  19  20
ENDBRANCH  11  19
TORSDOF 5
ENDMDL
MODEL 6
REMARK VINA RESULT:      -6.3      4.352      6.899
REMARK  Name = 
REMARK  8 active torsions:
REMARK  status: ('A' for Active; 'I' for Inactive)
REMARK    1  A    between atoms: C_1  and  C_2
REMARK    2  A    between atoms: C_2  and  C_3
REMARK    3  A    between atoms: C_10  and  C_11
REMARK    4  A    between atoms: C_11  and  C_12
REMARK    5  A    between atoms: C_12  and  C_13
REMARK    6  A    between atoms: C_12  and  O_14
REMARK    7  A    between atoms: C_15  and  C_16
REMARK    8  A    between atoms: C_16  and  O_17
REMARK                            x       y       z     vdW  Elec       q    Type
REMARK                         _______ _______ _______ _____ _____    ______ ____
ROOT
ATOM      1  C   UNL     1      -0.098  11.311  21.425  0.00  0.00    +0.000 C 
ATOM      2  C   UNL     1       0.211   9.858  21.639  0.00  0.00    +0.000 C 
ATOM      3  C   UNL     1      -0.311   9.222  22.900  0.00  0.00    +0.000 C 
ATOM      4  C   UNL     1       0.902   9.117  20.756  0.00  0.00    +0.000 C 
ATOM      5  O   UNL     1       1.199   7.772  20.991  0.00  0.00    +0.000 OA
ATOM      6  C   UNL     1       1.886   7.323  19.886  0.00  0.00    +0.000 A 
ATOM      7  C   UNL     1       2.056   8.310  18.922  0.00  0.00    +0.000 A 
ATOM      8  C   UNL     1       2.690   8.058  17.729  0.00  0.00    +0.000 A 
ATOM      9  C   UNL     1       3.187   6.764  17.534  0.00  0.00    +0.000 A 
ATOM     10  C   UNL     1       3.083   5.751  18.532  0.00  0.00    +0.000 A 
ATOM     11  C   UNL     1       2.371   6.027  19.731  0.00  0.00    +0.000 A 
ATOM     12  C   UNL     1       1.454   9.539  19.435  0.00  0.00    +0.000 C 
ATOM     13  O   UNL     1       1.425  10.622  18.894  0.00  0.00    +0.000 OA
ENDROOT
BRANCH  10  14
ATOM     14  C   UNL     1       3.684   4.375  18.287  0.00  0.00    +0.000 C 
BRANCH  14  15
ATOM     15  C   UNL     1       5.183   4.153  18.566  0.00  0.00    +0.000 C 
ATOM     16  C   UNL     1       5.848   5.333  19.264  0.00  0.00    +0.000 C 
BRANCH  15  17
ATOM     17  O   UNL     1       5.330   3.005  19.413  0.00  0.00    +0.000 OA
ATOM     18  H   UNL     1       4.451   2.777  19.764  0.00  0.00    +0.000 HD
ENDBRANCH  15  17
ENDBRANCH  14  15
ENDBRANCH  10  14
BRANCH  11  19
ATOM     19  C   UNL     1       2.188   5.071  20.886  0.00  0.00    +0.000 C 
BRANCH  19  20
ATOM     20  O   UNL     1       1.073   4.205  20.736  0.00  0.00    +0.000 OA
ATOM     21  H   UNL     1       0.833   3.897  21.626  0.00  0.00    +0.000 HD
ENDBRANCH  19  20
ENDBRANCH  11  19
TORSDOF 5
ENDMDL
MODEL 7
REMARK VINA RESULT:      -6.3      3.954      6.343
REMARK  Name = 
REMARK  8 active torsions:
REMARK  status: ('A' for Active; 'I' for Inactive)
REMARK    1  A    between atoms: C_1  and  C_2
REMARK    2  A    between atoms: C_2  and  C_3
REMARK    3  A    between atoms: C_10  and  C_11
REMARK    4  A    between atoms: C_11  and  C_12
REMARK    5  A    between atoms: C_12  and  C_13
REMARK    6  A    between atoms: C_12  and  O_14
REMARK    7  A    between atoms: C_15  and  C_16
REMARK    8  A    between atoms: C_16  and  O_17
REMARK                            x       y       z     vdW  Elec       q    Type
REMARK                         _______ _______ _______ _____ _____    ______ ____
ROOT
ATOM      1  C   UNL     1       0.019  10.931  20.469  0.00  0.00    +0.000 C 
ATOM      2  C   UNL     1       0.342   9.512  20.835  0.00  0.00    +0.000 C 
ATOM      3  C   UNL     1      -0.304   8.957  22.077  0.00  0.00    +0.000 C 
ATOM      4  C   UNL     1       1.152   8.730  20.100  0.00  0.00    +0.000 C 
ATOM      5  O   UNL     1       1.457   7.421  20.477  0.00  0.00    +0.000 OA
ATOM      6  C   UNL     1       2.281   6.913  19.498  0.00  0.00    +0.000 A 
ATOM      7  C   UNL     1       2.533   7.827  18.481  0.00  0.00    +0.000 A 
ATOM      8  C   UNL     1       3.308   7.507  17.392  0.00  0.00    +0.000 A 
ATOM      9  C   UNL     1       3.861   6.221  17.362  0.00  0.00    +0.000 A 
ATOM     10  C   UNL     1       3.671   5.286  18.420  0.00  0.00    +0.000 A 
ATOM     11  C   UNL     1       2.817   5.628  19.505  0.00  0.00    +0.000 A 
ATOM     12  C   UNL     1       1.841   9.069  18.820  0.00  0.00    +0.000 C 
ATOM     13  O   UNL     1       1.844  10.104  18.192  0.00  0.00    +0.000 OA
ENDROOT
BRANCH  10  14
ATOM     14  C   UNL     1       4.335   3.918  18.359  0.00  0.00    +0.000 C 
BRANCH  14  15
ATOM     15  C   UNL     1       3.626   2.775  17.610  0.00  0.00    +0.000 C 
ATOM     16  C   UNL     1       3.416   1.531  18.466  0.00  0.00    +0.000 C 
BRANCH  15  17
ATOM     17  O   UNL     1       2.336   3.233  17.181  0.00  0.00    +0.000 OA
ATOM     18  H   UNL     1       1.766   3.298  17.967  0.00  0.00    +0.000 HD
ENDBRANCH  15  17
ENDBRANCH  14  15
ENDBRANCH  10  14
BRANCH  11  19
ATOM     19  C   UNL     1       2.528   4.759  20.706  0.00  0.00    +0.000 C 
BRANCH  19  20
ATOM     20  O   UNL     1       1.169   4.360  20.806  0.00  0.00    +0.000 OA
ATOM     21  H   UNL     1       1.063   3.936  21.674  0.00  0.00    +0.000 HD
ENDBRANCH  19  20
ENDBRANCH  11  19
TORSDOF 5
ENDMDL
MODEL 8
REMARK VINA RESULT:      -6.2      3.478      5.657
REMARK  Name = 
REMARK  8 active torsions:
REMARK  status: ('A' for Active; 'I' for Inactive)
REMARK    1  A    between atoms: C_1  and  C_2
REMARK    2  A    between atoms: C_2  and  C_3
REMARK    3  A    between atoms: C_10  and  C_11
REMARK    4  A    between atoms: C_11  and  C_12
REMARK    5  A    between atoms: C_12  and  C_13
REMARK    6  A    between atoms: C_12  and  O_14
REMARK    7  A    between atoms: C_15  and  C_16
REMARK    8  A    between atoms: C_16  and  O_17
REMARK                            x       y       z     vdW  Elec       q    Type
REMARK                         _______ _______ _______ _____ _____    ______ ____
ROOT
ATOM      1  C   UNL     1       0.940  10.661  19.083  0.00  0.00    +0.000 C 
ATOM      2  C   UNL     1       0.974   9.378  19.863  0.00  0.00    +0.000 C 
ATOM      3  C   UNL     1       0.153   9.317  21.124  0.00  0.00    +0.000 C 
ATOM      4  C   UNL     1       1.677   8.301  19.474  0.00  0.00    +0.000 C 
ATOM      5  O   UNL     1       1.713   7.128  20.231  0.00  0.00    +0.000 OA
ATOM      6  C   UNL     1       2.497   6.235  19.535  0.00  0.00    +0.000 A 
ATOM      7  C   UNL     1       2.980   6.762  18.343  0.00  0.00    +0.000 A 
ATOM      8  C   UNL     1       3.758   6.022  17.484  0.00  0.00    +0.000 A 
ATOM      9  C   UNL     1       4.069   4.714  17.876  0.00  0.00    +0.000 A 
ATOM     10  C   UNL     1       3.639   4.171  19.121  0.00  0.00    +0.000 A 
ATOM     11  C   UNL     1       2.789   4.942  19.960  0.00  0.00    +0.000 A 
ATOM     12  C   UNL     1       2.503   8.140  18.241  0.00  0.00    +0.000 C 
ATOM     13  O   UNL     1       2.738   8.933  17.356  0.00  0.00    +0.000 OA
ENDROOT
BRANCH  10  14
ATOM     14  C   UNL     1       4.048   2.760  19.519  0.00  0.00    +0.000 C 
BRANCH  14  15
ATOM     15  C   UNL     1       3.340   1.562  18.858  0.00  0.00    +0.000 C 
ATOM     16  C   UNL     1       2.116   1.959  18.042  0.00  0.00    +0.000 C 
BRANCH  15  17
ATOM     17  O   UNL     1       4.263   0.911  17.974  0.00  0.00    +0.000 OA
ATOM     18  H   UNL     1       4.677   0.177  18.462  0.00  0.00    +0.000 HD
ENDBRANCH  15  17
ENDBRANCH  14  15
ENDBRANCH  10  14
BRANCH  11  19
ATOM     19  C   UNL     1       2.265   4.518  21.312  0.00  0.00    +0.000 C 
BRANCH  19  20
ATOM     20  O   UNL     1       1.318   3.462  21.249  0.00  0.00    +0.000 OA
ATOM     21  H   UNL     1       1.573   2.814  21.927  0.00  0.00    +0.000 HD
ENDBRANCH  19  20
ENDBRANCH  11  19
TORSDOF 5
ENDMDL
MODEL 9
REMARK VINA RESULT:      -6.1      4.911      6.819
REMARK  Name = 
REMARK  8 active torsions:
REMARK  status: ('A' for Active; 'I' for Inactive)
REMARK    1  A    between atoms: C_1  and  C_2
REMARK    2  A    between atoms: C_2  and  C_3
REMARK    3  A    between atoms: C_10  and  C_11
REMARK    4  A    between atoms: C_11  and  C_12
REMARK    5  A    between atoms: C_12  and  C_13
REMARK    6  A    between atoms: C_12  and  O_14
REMARK    7  A    between atoms: C_15  and  C_16
REMARK    8  A    between atoms: C_16  and  O_17
REMARK                            x       y       z     vdW  Elec       q    Type
REMARK                         _______ _______ _______ _____ _____    ______ ____
ROOT
ATOM      1  C   UNL     1       3.076   2.620  19.504  0.00  0.00    +0.000 C 
ATOM      2  C   UNL     1       2.545   3.767  20.314  0.00  0.00    +0.000 C 
ATOM      3  C   UNL     1       2.178   3.486  21.747  0.00  0.00    +0.000 C 
ATOM      4  C   UNL     1       2.407   5.011  19.823  0.00  0.00    +0.000 C 
ATOM      5  O   UNL     1       1.885   6.055  20.589  0.00  0.00    +0.000 OA
ATOM      6  C   UNL     1       1.909   7.177  19.792  0.00  0.00    +0.000 A 
ATOM      7  C   UNL     1       2.430   6.926  18.528  0.00  0.00    +0.000 A 
ATOM      8  C   UNL     1       2.571   7.921  17.590  0.00  0.00    +0.000 A 
ATOM      9  C   UNL     1       2.137   9.202  17.952  0.00  0.00    +0.000 A 
ATOM     10  C   UNL     1       1.541   9.473  19.218  0.00  0.00    +0.000 A 
ATOM     11  C   UNL     1       1.464   8.436  20.187  0.00  0.00    +0.000 A 
ATOM     12  C   UNL     1       2.760   5.504  18.459  0.00  0.00    +0.000 C 
ATOM     13  O   UNL     1       3.211   4.902  17.510  0.00  0.00    +0.000 OA
ENDROOT
BRANCH  10  14
ATOM     14  C   UNL     1       1.042  10.874  19.542  0.00  0.00    +0.000 C 
BRANCH  14  15
ATOM     15  C   UNL     1      -0.437  11.219  19.286  0.00  0.00    +0.000 C 
ATOM     16  C   UNL     1      -1.125  10.254  18.327  0.00  0.00    +0.000 C 
BRANCH  15  17
ATOM     17  O   UNL     1      -1.145  11.175  20.532  0.00  0.00    +0.000 OA
ATOM     18  H   UNL     1      -1.676  10.359  20.546  0.00  0.00    +0.000 HD
ENDBRANCH  15  17
ENDBRANCH  14  15
ENDBRANCH  10  14
BRANCH  11  19
ATOM     19  C   UNL     1       0.847   8.558  21.561  0.00  0.00    +0.000 C 
BRANCH  19  20
ATOM     20  O   UNL     1      -0.568   8.444  21.561  0.00  0.00    +0.000 OA
ATOM     21  H   UNL     1      -0.890   8.933  20.785  0.00  0.00    +0.000 HD
ENDBRANCH  19  20
ENDBRANCH  11  19
TORSDOF 5
ENDMDL
