MODEL 1
REMARK VINA RESULT:      -8.8      0.000      0.000
REMARK  Name = 
REMARK  9 active torsions:
REMARK  status: ('A' for Active; 'I' for Inactive)
REMARK    1  A    between atoms: C_1  and  C_2
REMARK    2  A    between atoms: C_5  and  C_6
REMARK    3  A    between atoms: C_7  and  C_8
REMARK    4  A    between atoms: C_8  and  N_9
REMARK    5  A    between atoms: C_11  and  N_12
REMARK    6  A    between atoms: N_16  and  C_17
REMARK    7  A    between atoms: C_17  and  C_18
REMARK    8  A    between atoms: C_18  and  C_19
REMARK    9  A    between atoms: C_22  and  O_23
REMARK                            x       y       z     vdW  Elec       q    Type
REMARK                         _______ _______ _______ _____ _____    ______ ____
ROOT
ATOM      1  N   UNL     1       2.342   6.674  18.918  0.00  0.00    +0.000 N 
ATOM      2  C   UNL     1       1.940   6.576  20.227  0.00  0.00    +0.000 C 
ATOM      3  O   UNL     1       1.938   5.595  20.963  0.00  0.00    +0.000 OA
ATOM      4  C   UNL     1       1.520   7.956  20.691  0.00  0.00    +0.000 C 
ATOM      5  N   UNL     1       1.683   8.736  19.488  0.00  0.00    +0.000 N 
ATOM      6  C   UNL     1       2.214   7.965  18.451  0.00  0.00    +0.000 C 
ATOM      7  O   UNL     1       2.454   8.390  17.338  0.00  0.00    +0.000 OA
ENDROOT
BRANCH   1  10
ATOM      8  N   UNL     1       3.988   4.203  16.978  0.00  0.00    +0.000 N 
ATOM      9  C   UNL     1       3.980   5.455  17.528  0.00  0.00    +0.000 A 
ATOM     10  C   UNL     1       2.753   5.612  18.132  0.00  0.00    +0.000 A 
ATOM     11  C   UNL     1       2.050   4.432  17.790  0.00  0.00    +0.000 A 
ATOM     12  N   UNL     1       2.795   3.577  17.082  0.00  0.00    +0.000 NA
BRANCH   8  13
ATOM     13  C   UNL     1       5.164   3.473  16.506  0.00  0.00    +0.000 C 
BRANCH  13  20
ATOM     14  C   UNL     1       5.746   3.822  13.342  0.00  0.00    +0.000 C 
ATOM     15  C   UNL     1       6.408   4.509  14.476  0.00  0.00    +0.000 A 
ATOM     16  N   UNL     1       7.388   5.383  14.232  0.00  0.00    +0.000 NA
ATOM     17  O   UNL     1       7.812   5.827  15.460  0.00  0.00    +0.000 OA
ATOM     18  C   UNL     1       7.095   5.219  16.444  0.00  0.00    +0.000 A 
ATOM     19  C   UNL     1       7.486   5.614  17.814  0.00  0.00    +0.000 C 
ATOM     20  C   UNL     1       6.164   4.370  15.873  0.00  0.00    +0.000 A 
ENDBRANCH  13  20
ENDBRANCH   8  13
ENDBRANCH   1  10
BRANCH   5  21
ATOM     21  C   UNL     1       1.197  10.104  19.348  0.00  0.00    +0.000 C 
BRANCH  21  22
ATOM     22  C   UNL     1      -0.142  10.333  20.052  0.00  0.00    +0.000 C 
BRANCH  22  23
ATOM     23  C   UNL     1      -1.255  10.691  19.108  0.00  0.00    +0.000 A 
ATOM     24  C   UNL     1      -1.331  10.087  17.845  0.00  0.00    +0.000 A 
ATOM     25  C   UNL     1      -2.323  10.467  16.940  0.00  0.00    +0.000 A 
ATOM     26  C   UNL     1      -3.239  11.447  17.306  0.00  0.00    +0.000 A 
ATOM     27  C   UNL     1      -3.193  12.036  18.563  0.00  0.00    +0.000 A 
ATOM     28  C   UNL     1      -2.202  11.658  19.467  0.00  0.00    +0.000 A 
BRANCH  26  29
ATOM     29  O   UNL     1      -4.199  11.878  16.438  0.00  0.00    +0.000 OA
ATOM     30  H   UNL     1      -5.003  11.353  16.584  0.00  0.00    +0.000 HD
ENDBRANCH  26  29
ENDBRANCH  22  23
ENDBRANCH  21  22
ENDBRANCH   5  21
TORSDOF 7
ENDMDL
MODEL 2
REMARK VINA RESULT:      -8.8      0.970      1.374
REMARK  Name = 
REMARK  9 active torsions:
REMARK  status: ('A' for Active; 'I' for Inactive)
REMARK    1  A    between atoms: C_1  and  C_2
REMARK    2  A    between atoms: C_5  and  C_6
REMARK    3  A    between atoms: C_7  and  C_8
REMARK    4  A    between atoms: C_8  and  N_9
REMARK    5  A    between atoms: C_11  and  N_12
REMARK    6  A    between atoms: N_16  and  C_17
REMARK    7  A    between atoms: C_17  and  C_18
REMARK    8  A    between atoms: C_18  and  C_19
REMARK    9  A    between atoms: C_22  and  O_23
REMARK                            x       y       z     vdW  Elec       q    Type
REMARK                         _______ _______ _______ _____ _____    ______ ____
ROOT
ATOM      1  N   UNL     1       2.057   7.588  19.109  0.00  0.00    +0.000 N 
ATOM      2  C   UNL     1       1.560   7.622  20.388  0.00  0.00    +0.000 C 
ATOM      3  O   UNL     1       1.569   6.743  21.244  0.00  0.00    +0.000 OA
ATOM      4  C   UNL     1       1.010   9.012  20.638  0.00  0.00    +0.000 C 
ATOM      5  N   UNL     1       1.212   9.646  19.359  0.00  0.00    +0.000 N 
ATOM      6  C   UNL     1       1.876   8.796  18.470  0.00  0.00    +0.000 C 
ATOM      7  O   UNL     1       2.172   9.097  17.331  0.00  0.00    +0.000 OA
ENDROOT
BRANCH   1  10
ATOM      8  N   UNL     1       4.022   4.985  17.714  0.00  0.00    +0.000 N 
ATOM      9  C   UNL     1       3.921   6.275  18.159  0.00  0.00    +0.000 A 
ATOM     10  C   UNL     1       2.601   6.472  18.498  0.00  0.00    +0.000 A 
ATOM     11  C   UNL     1       1.965   5.267  18.114  0.00  0.00    +0.000 A 
ATOM     12  N   UNL     1       2.825   4.365  17.629  0.00  0.00    +0.000 NA
BRANCH   8  13
ATOM     13  C   UNL     1       5.259   4.228  17.535  0.00  0.00    +0.000 C 
BRANCH  13  20
ATOM     14  C   UNL     1       5.701   3.866  14.350  0.00  0.00    +0.000 C 
ATOM     15  C   UNL     1       6.420   4.770  15.277  0.00  0.00    +0.000 A 
ATOM     16  N   UNL     1       7.396   5.552  14.806  0.00  0.00    +0.000 NA
ATOM     17  O   UNL     1       7.879   6.245  15.889  0.00  0.00    +0.000 OA
ATOM     18  C   UNL     1       7.202   5.880  17.011  0.00  0.00    +0.000 A 
ATOM     19  C   UNL     1       7.658   6.557  18.243  0.00  0.00    +0.000 C 
ATOM     20  C   UNL     1       6.238   4.945  16.680  0.00  0.00    +0.000 A 
ENDBRANCH  13  20
ENDBRANCH   8  13
ENDBRANCH   1  10
BRANCH   5  21
ATOM     21  C   UNL     1       0.644  10.943  19.008  0.00  0.00    +0.000 C 
BRANCH  21  22
ATOM     22  C   UNL     1      -0.800  11.107  19.487  0.00  0.00    +0.000 C 
BRANCH  22  23
ATOM     23  C   UNL     1      -1.807  11.002  18.377  0.00  0.00    +0.000 A 
ATOM     24  C   UNL     1      -3.056  11.631  18.493  0.00  0.00    +0.000 A 
ATOM     25  C   UNL     1      -4.018  11.477  17.495  0.00  0.00    +0.000 A 
ATOM     26  C   UNL     1      -3.726  10.700  16.380  0.00  0.00    +0.000 A 
ATOM     27  C   UNL     1      -2.484  10.092  16.237  0.00  0.00    +0.000 A 
ATOM     28  C   UNL     1      -1.523  10.243  17.235  0.00  0.00    +0.000 A 
BRANCH  26  29
ATOM     29  O   UNL     1      -4.651  10.489  15.401  0.00  0.00    +0.000 OA
ATOM     30  H   UNL     1      -5.358  11.147  15.501  0.00  0.00    +0.000 HD
ENDBRANCH  26  29
ENDBRANCH  22  23
ENDBRANCH  21  22
ENDBRANCH   5  21
TORSDOF 7
ENDMDL
MODEL 3
REMARK VINA RESULT:      -8.6      1.286      1.578
REMARK  Name = 
REMARK  9 active torsions:
REMARK  status: ('A' for Active; 'I' for Inactive)
REMARK    1  A    between atoms: C_1  and  C_2
REMARK    2  A    between atoms: C_5  and  C_6
REMARK    3  A    between atoms: C_7  and  C_8
REMARK    4  A    between atoms: C_8  and  N_9
REMARK    5  A    between atoms: C_11  and  N_12
REMARK    6  A    between atoms: N_16  and  C_17
REMARK    7  A    between atoms: C_17  and  C_18
REMARK    8  A    between atoms: C_18  and  C_19
REMARK    9  A    between atoms: C_22  and  O_23
REMARK                            x       y       z     vdW  Elec       q    Type
REMARK                         _______ _______ _______ _____ _____    ______ ____
ROOT
ATOM      1  N   UNL     1       1.905   8.001  19.218  0.00  0.00    +0.000 N 
ATOM      2  C   UNL     1       1.398   8.067  20.492  0.00  0.00    +0.000 C 
ATOM      3  O   UNL     1       1.483   7.248  21.401  0.00  0.00    +0.000 OA
ATOM      4  C   UNL     1       0.718   9.412  20.655  0.00  0.00    +0.000 C 
ATOM      5  N   UNL     1       0.869   9.983  19.338  0.00  0.00    +0.000 N 
ATOM      6  C   UNL     1       1.616   9.145  18.505  0.00  0.00    +0.000 C 
ATOM      7  O   UNL     1       1.891   9.402  17.350  0.00  0.00    +0.000 OA
ENDROOT
BRANCH   1  10
ATOM      8  N   UNL     1       4.108   5.465  18.080  0.00  0.00    +0.000 N 
ATOM      9  C   UNL     1       3.913   6.748  18.513  0.00  0.00    +0.000 A 
ATOM     10  C   UNL     1       2.556   6.906  18.678  0.00  0.00    +0.000 A 
ATOM     11  C   UNL     1       2.010   5.688  18.208  0.00  0.00    +0.000 A 
ATOM     12  N   UNL     1       2.951   4.813  17.836  0.00  0.00    +0.000 NA
BRANCH   8  13
ATOM     13  C   UNL     1       5.379   4.743  18.060  0.00  0.00    +0.000 C 
BRANCH  13  20
ATOM     14  C   UNL     1       5.781   3.700  15.024  0.00  0.00    +0.000 C 
ATOM     15  C   UNL     1       6.482   4.810  15.711  0.00  0.00    +0.000 A 
ATOM     16  N   UNL     1       7.421   5.499  15.056  0.00  0.00    +0.000 NA
ATOM     17  O   UNL     1       7.896   6.430  15.947  0.00  0.00    +0.000 OA
ATOM     18  C   UNL     1       7.251   6.301  17.138  0.00  0.00    +0.000 A 
ATOM     19  C   UNL     1       7.702   7.248  18.179  0.00  0.00    +0.000 C 
ATOM     20  C   UNL     1       6.317   5.285  17.045  0.00  0.00    +0.000 A 
ENDBRANCH  13  20
ENDBRANCH   8  13
ENDBRANCH   1  10
BRANCH   5  21
ATOM     21  C   UNL     1       0.185  11.196  18.907  0.00  0.00    +0.000 C 
BRANCH  21  22
ATOM     22  C   UNL     1      -1.312  11.178  19.224  0.00  0.00    +0.000 C 
BRANCH  22  23
ATOM     23  C   UNL     1      -2.167  10.878  18.026  0.00  0.00    +0.000 A 
ATOM     24  C   UNL     1      -1.746   9.939  17.073  0.00  0.00    +0.000 A 
ATOM     25  C   UNL     1      -2.504   9.709  15.925  0.00  0.00    +0.000 A 
ATOM     26  C   UNL     1      -3.687  10.416  15.737  0.00  0.00    +0.000 A 
ATOM     27  C   UNL     1      -4.132  11.331  16.684  0.00  0.00    +0.000 A 
ATOM     28  C   UNL     1      -3.374  11.562  17.830  0.00  0.00    +0.000 A 
BRANCH  26  29
ATOM     29  O   UNL     1      -4.438  10.254  14.611  0.00  0.00    +0.000 OA
ATOM     30  H   UNL     1      -5.259  10.763  14.713  0.00  0.00    +0.000 HD
ENDBRANCH  26  29
ENDBRANCH  22  23
ENDBRANCH  21  22
ENDBRANCH   5  21
TORSDOF 7
ENDMDL
MODEL 4
REMARK VINA RESULT:      -8.3      0.979      1.166
REMARK  Name = 
REMARK  9 active torsions:
REMARK  status: ('A' for Active; 'I' for Inactive)
REMARK    1  A    between atoms: C_1  and  C_2
REMARK    2  A    between atoms: C_5  and  C_6
REMARK    3  A    between atoms: C_7  and  C_8
REMARK    4  A    between atoms: C_8  and  N_9
REMARK    5  A    between atoms: C_11  and  N_12
REMARK    6  A    between atoms: N_16  and  C_17
REMARK    7  A    between atoms: C_17  and  C_18
REMARK    8  A    between atoms: C_18  and  C_19
REMARK    9  A    between atoms: C_22  and  O_23
REMARK                            x       y       z     vdW  Elec       q    Type
REMARK                         _______ _______ _______ _____ _____    ______ ____
ROOT
ATOM      1  N   UNL     1       2.723   6.105  19.335  0.00  0.00    +0.000 N 
ATOM      2  C   UNL     1       1.860   6.030  20.399  0.00  0.00    +0.000 C 
ATOM      3  O   UNL     1       1.610   5.074  21.125  0.00  0.00    +0.000 OA
ATOM      4  C   UNL     1       1.256   7.404  20.608  0.00  0.00    +0.000 C 
ATOM      5  N   UNL     1       1.837   8.152  19.520  0.00  0.00    +0.000 N 
ATOM      6  C   UNL     1       2.742   7.373  18.794  0.00  0.00    +0.000 C 
ATOM      7  O   UNL     1       3.371   7.774  17.836  0.00  0.00    +0.000 OA
ENDROOT
BRANCH   1  10
ATOM      8  N   UNL     1       4.496   3.696  17.428  0.00  0.00    +0.000 N 
ATOM      9  C   UNL     1       3.623   4.747  17.478  0.00  0.00    +0.000 A 
ATOM     10  C   UNL     1       3.431   5.038  18.810  0.00  0.00    +0.000 A 
ATOM     11  C   UNL     1       4.151   4.026  19.488  0.00  0.00    +0.000 A 
ATOM     12  N   UNL     1       4.793   3.204  18.651  0.00  0.00    +0.000 NA
BRANCH   8  13
ATOM     13  C   UNL     1       5.230   3.236  16.251  0.00  0.00    +0.000 C 
BRANCH  13  20
ATOM     14  C   UNL     1       6.090   3.764  13.176  0.00  0.00    +0.000 C 
ATOM     15  C   UNL     1       6.555   4.473  14.392  0.00  0.00    +0.000 A 
ATOM     16  N   UNL     1       7.453   5.455  14.276  0.00  0.00    +0.000 NA
ATOM     17  O   UNL     1       7.699   5.894  15.554  0.00  0.00    +0.000 OA
ATOM     18  C   UNL     1       6.956   5.177  16.440  0.00  0.00    +0.000 A 
ATOM     19  C   UNL     1       7.160   5.558  17.853  0.00  0.00    +0.000 C 
ATOM     20  C   UNL     1       6.186   4.256  15.752  0.00  0.00    +0.000 A 
ENDBRANCH  13  20
ENDBRANCH   8  13
ENDBRANCH   1  10
BRANCH   5  21
ATOM     21  C   UNL     1       1.399   9.492  19.145  0.00  0.00    +0.000 C 
BRANCH  21  22
ATOM     22  C   UNL     1       0.553   9.505  17.870  0.00  0.00    +0.000 C 
BRANCH  22  23
ATOM     23  C   UNL     1      -0.769  10.197  18.043  0.00  0.00    +0.000 A 
ATOM     24  C   UNL     1      -1.850   9.877  17.208  0.00  0.00    +0.000 A 
ATOM     25  C   UNL     1      -3.057  10.567  17.321  0.00  0.00    +0.000 A 
ATOM     26  C   UNL     1      -3.181  11.572  18.275  0.00  0.00    +0.000 A 
ATOM     27  C   UNL     1      -2.128  11.883  19.127  0.00  0.00    +0.000 A 
ATOM     28  C   UNL     1      -0.922  11.196  19.014  0.00  0.00    +0.000 A 
BRANCH  26  29
ATOM     29  O   UNL     1      -4.328  12.300  18.392  0.00  0.00    +0.000 OA
ATOM     30  H   UNL     1      -4.136  13.091  18.922  0.00  0.00    +0.000 HD
ENDBRANCH  26  29
ENDBRANCH  22  23
ENDBRANCH  21  22
ENDBRANCH   5  21
TORSDOF 7
ENDMDL
MODEL 5
REMARK VINA RESULT:      -8.2      1.795      2.258
REMARK  Name = 
REMARK  9 active torsions:
REMARK  status: ('A' for Active; 'I' for Inactive)
REMARK    1  A    between atoms: C_1  and  C_2
REMARK    2  A    between atoms: C_5  and  C_6
REMARK    3  A    between atoms: C_7  and  C_8
REMARK    4  A    between atoms: C_8  and  N_9
REMARK    5  A    between atoms: C_11  and  N_12
REMARK    6  A    between atoms: N_16  and  C_17
REMARK    7  A    between atoms: C_17  and  C_18
REMARK    8  A    between atoms: C_18  and  C_19
REMARK    9  A    between atoms: C_22  and  O_23
REMARK                            x       y       z     vdW  Elec       q    Type
REMARK                         _______ _______ _______ _____ _____    ______ ____
ROOT
ATOM      1  N   UNL     1       2.253   6.482  19.154  0.00  0.00    +0.000 N 
ATOM      2  C   UNL     1       1.895   6.242  20.457  0.00  0.00    +0.000 C 
ATOM      3  O   UNL     1       1.987   5.204  21.104  0.00  0.00    +0.000 OA
ATOM      4  C   UNL     1       1.384   7.541  21.048  0.00  0.00    +0.000 C 
ATOM      5  N   UNL     1       1.454   8.431  19.915  0.00  0.00    +0.000 N 
ATOM      6  C   UNL     1       2.014   7.794  18.803  0.00  0.00    +0.000 C 
ATOM      7  O   UNL     1       2.191   8.330  17.728  0.00  0.00    +0.000 OA
ENDROOT
BRANCH   1  10
ATOM      8  N   UNL     1       4.041   4.240  17.067  0.00  0.00    +0.000 N 
ATOM      9  C   UNL     1       4.006   5.398  17.793  0.00  0.00    +0.000 A 
ATOM     10  C   UNL     1       2.721   5.526  18.269  0.00  0.00    +0.000 A 
ATOM     11  C   UNL     1       2.027   4.445  17.677  0.00  0.00    +0.000 A 
ATOM     12  N   UNL     1       2.824   3.665  16.939  0.00  0.00    +0.000 NA
BRANCH   8  13
ATOM     13  C   UNL     1       5.240   3.529  16.628  0.00  0.00    +0.000 C 
BRANCH  13  20
ATOM     14  C   UNL     1       5.806   3.790  13.453  0.00  0.00    +0.000 C 
ATOM     15  C   UNL     1       6.453   4.531  14.562  0.00  0.00    +0.000 A 
ATOM     16  N   UNL     1       7.408   5.423  14.287  0.00  0.00    +0.000 NA
ATOM     17  O   UNL     1       7.823   5.917  15.499  0.00  0.00    +0.000 OA
ATOM     18  C   UNL     1       7.125   5.323  16.504  0.00  0.00    +0.000 A 
ATOM     19  C   UNL     1       7.508   5.772  17.859  0.00  0.00    +0.000 C 
ATOM     20  C   UNL     1       6.215   4.431  15.964  0.00  0.00    +0.000 A 
ENDBRANCH  13  20
ENDBRANCH   8  13
ENDBRANCH   1  10
BRANCH   5  21
ATOM     21  C   UNL     1       0.863   9.764  19.904  0.00  0.00    +0.000 C 
BRANCH  21  22
ATOM     22  C   UNL     1       0.873  10.428  21.283  0.00  0.00    +0.000 C 
BRANCH  22  23
ATOM     23  C   UNL     1      -0.385  11.193  21.581  0.00  0.00    +0.000 A 
ATOM     24  C   UNL     1      -0.954  11.146  22.863  0.00  0.00    +0.000 A 
ATOM     25  C   UNL     1      -2.159  11.799  23.123  0.00  0.00    +0.000 A 
ATOM     26  C   UNL     1      -2.788  12.503  22.102  0.00  0.00    +0.000 A 
ATOM     27  C   UNL     1      -2.224  12.581  20.834  0.00  0.00    +0.000 A 
ATOM     28  C   UNL     1      -1.022  11.927  20.572  0.00  0.00    +0.000 A 
BRANCH  26  29
ATOM     29  O   UNL     1      -3.987  13.121  22.301  0.00  0.00    +0.000 OA
ATOM     30  H   UNL     1      -4.693  12.463  22.190  0.00  0.00    +0.000 HD
ENDBRANCH  26  29
ENDBRANCH  22  23
ENDBRANCH  21  22
ENDBRANCH   5  21
TORSDOF 7
ENDMDL
MODEL 6
REMARK VINA RESULT:      -8.2      1.255      1.504
REMARK  Name = 
REMARK  9 active torsions:
REMARK  status: ('A' for Active; 'I' for Inactive)
REMARK    1  A    between atoms: C_1  and  C_2
REMARK    2  A    between atoms: C_5  and  C_6
REMARK    3  A    between atoms: C_7  and  C_8
REMARK    4  A    between atoms: C_8  and  N_9
REMARK    5  A    between atoms: C_11  and  N_12
REMARK    6  A    between atoms: N_16  and  C_17
REMARK    7  A    between atoms: C_17  and  C_18
REMARK    8  A    between atoms: C_18  and  C_19
REMARK    9  A    between atoms: C_22  and  O_23
REMARK                            x       y       z     vdW  Elec       q    Type
REMARK                         _______ _______ _______ _____ _____    ______ ____
ROOT
ATOM      1  N   UNL     1       2.010   7.877  19.268  0.00  0.00    +0.000 N 
ATOM      2  C   UNL     1       1.446   8.149  20.489  0.00  0.00    +0.000 C 
ATOM      3  O   UNL     1       1.464   7.476  21.515  0.00  0.00    +0.000 OA
ATOM      4  C   UNL     1       0.799   9.517  20.411  0.00  0.00    +0.000 C 
ATOM      5  N   UNL     1       1.028   9.876  19.033  0.00  0.00    +0.000 N 
ATOM      6  C   UNL     1       1.788   8.905  18.375  0.00  0.00    +0.000 C 
ATOM      7  O   UNL     1       2.125   8.976  17.210  0.00  0.00    +0.000 OA
ENDROOT
BRANCH   1  10
ATOM      8  N   UNL     1       4.200   5.212  18.441  0.00  0.00    +0.000 N 
ATOM      9  C   UNL     1       3.958   6.556  18.519  0.00  0.00    +0.000 A 
ATOM     10  C   UNL     1       2.653   6.698  18.934  0.00  0.00    +0.000 A 
ATOM     11  C   UNL     1       2.159   5.373  18.971  0.00  0.00    +0.000 A 
ATOM     12  N   UNL     1       3.095   4.468  18.665  0.00  0.00    +0.000 NA
BRANCH   8  13
ATOM     13  C   UNL     1       5.511   4.574  18.343  0.00  0.00    +0.000 C 
BRANCH  13  20
ATOM     14  C   UNL     1       5.603   3.786  15.206  0.00  0.00    +0.000 C 
ATOM     15  C   UNL     1       6.387   4.827  15.912  0.00  0.00    +0.000 A 
ATOM     16  N   UNL     1       7.271   5.558  15.229  0.00  0.00    +0.000 NA
ATOM     17  O   UNL     1       7.846   6.406  16.144  0.00  0.00    +0.000 OA
ATOM     18  C   UNL     1       7.315   6.184  17.377  0.00  0.00    +0.000 A 
ATOM     19  C   UNL     1       7.882   7.035  18.444  0.00  0.00    +0.000 C 
ATOM     20  C   UNL     1       6.358   5.189  17.290  0.00  0.00    +0.000 A 
ENDBRANCH  13  20
ENDBRANCH   8  13
ENDBRANCH   1  10
BRANCH   5  21
ATOM     21  C   UNL     1       0.401  11.024  18.389  0.00  0.00    +0.000 C 
BRANCH  21  22
ATOM     22  C   UNL     1      -0.698  11.657  19.245  0.00  0.00    +0.000 C 
BRANCH  22  23
ATOM     23  C   UNL     1      -2.059  11.583  18.612  0.00  0.00    +0.000 A 
ATOM     24  C   UNL     1      -2.194  11.205  17.268  0.00  0.00    +0.000 A 
ATOM     25  C   UNL     1      -3.449  11.202  16.659  0.00  0.00    +0.000 A 
ATOM     26  C   UNL     1      -4.567  11.571  17.400  0.00  0.00    +0.000 A 
ATOM     27  C   UNL     1      -4.453  11.922  18.740  0.00  0.00    +0.000 A 
ATOM     28  C   UNL     1      -3.200  11.928  19.348  0.00  0.00    +0.000 A 
BRANCH  26  29
ATOM     29  O   UNL     1      -5.807  11.622  16.834  0.00  0.00    +0.000 OA
ATOM     30  H   UNL     1      -6.136  10.713  16.736  0.00  0.00    +0.000 HD
ENDBRANCH  26  29
ENDBRANCH  22  23
ENDBRANCH  21  22
ENDBRANCH   5  21
TORSDOF 7
ENDMDL
MODEL 7
REMARK VINA RESULT:      -8.1      1.800      2.763
REMARK  Name = 
REMARK  9 active torsions:
REMARK  status: ('A' for Active; 'I' for Inactive)
REMARK    1  A    between atoms: C_1  and  C_2
REMARK    2  A    between atoms: C_5  and  C_6
REMARK    3  A    between atoms: C_7  and  C_8
REMARK    4  A    between atoms: C_8  and  N_9
REMARK    5  A    between atoms: C_11  and  N_12
REMARK    6  A    between atoms: N_16  and  C_17
REMARK    7  A    between atoms: C_17  and  C_18
REMARK    8  A    between atoms: C_18  and  C_19
REMARK    9  A    between atoms: C_22  and  O_23
REMARK                            x       y       z     vdW  Elec       q    Type
REMARK                         _______ _______ _______ _____ _____    ______ ____
ROOT
ATOM      1  N   UNL     1       2.214   6.858  18.973  0.00  0.00    +0.000 N 
ATOM      2  C   UNL     1       1.830   6.781  20.288  0.00  0.00    +0.000 C 
ATOM      3  O   UNL     1       1.840   5.812  21.040  0.00  0.00    +0.000 OA
ATOM      4  C   UNL     1       1.414   8.168  20.735  0.00  0.00    +0.000 C 
ATOM      5  N   UNL     1       1.559   8.928  19.517  0.00  0.00    +0.000 N 
ATOM      6  C   UNL     1       2.077   8.140  18.486  0.00  0.00    +0.000 C 
ATOM      7  O   UNL     1       2.301   8.548  17.363  0.00  0.00    +0.000 OA
ENDROOT
BRANCH   1  10
ATOM      8  N   UNL     1       3.844   4.316  17.111  0.00  0.00    +0.000 N 
ATOM      9  C   UNL     1       3.872   5.559  17.682  0.00  0.00    +0.000 A 
ATOM     10  C   UNL     1       2.615   5.783  18.198  0.00  0.00    +0.000 A 
ATOM     11  C   UNL     1       1.869   4.654  17.786  0.00  0.00    +0.000 A 
ATOM     12  N   UNL     1       2.610   3.765  17.118  0.00  0.00    +0.000 NA
BRANCH   8  13
ATOM     13  C   UNL     1       5.004   3.523  16.711  0.00  0.00    +0.000 C 
BRANCH  13  20
ATOM     14  C   UNL     1       7.393   5.481  17.676  0.00  0.00    +0.000 C 
ATOM     15  C   UNL     1       6.984   5.149  16.291  0.00  0.00    +0.000 A 
ATOM     16  N   UNL     1       7.632   5.705  15.264  0.00  0.00    +0.000 NA
ATOM     17  O   UNL     1       7.020   5.231  14.130  0.00  0.00    +0.000 OA
ATOM     18  C   UNL     1       6.002   4.395  14.470  0.00  0.00    +0.000 A 
ATOM     19  C   UNL     1       5.261   3.840  13.317  0.00  0.00    +0.000 C 
ATOM     20  C   UNL     1       5.938   4.288  15.847  0.00  0.00    +0.000 A 
ENDBRANCH  13  20
ENDBRANCH   8  13
ENDBRANCH   1  10
BRANCH   5  21
ATOM     21  C   UNL     1       1.069  10.293  19.361  0.00  0.00    +0.000 C 
BRANCH  21  22
ATOM     22  C   UNL     1      -0.459  10.374  19.324  0.00  0.00    +0.000 C 
BRANCH  22  23
ATOM     23  C   UNL     1      -1.036  11.200  20.438  0.00  0.00    +0.000 A 
ATOM     24  C   UNL     1      -2.004  12.178  20.166  0.00  0.00    +0.000 A 
ATOM     25  C   UNL     1      -2.490  12.993  21.188  0.00  0.00    +0.000 A 
ATOM     26  C   UNL     1      -2.010  12.823  22.482  0.00  0.00    +0.000 A 
ATOM     27  C   UNL     1      -1.071  11.841  22.773  0.00  0.00    +0.000 A 
ATOM     28  C   UNL     1      -0.583  11.028  21.753  0.00  0.00    +0.000 A 
BRANCH  26  29
ATOM     29  O   UNL     1      -2.427  13.625  23.504  0.00  0.00    +0.000 OA
ATOM     30  H   UNL     1      -3.385  13.509  23.612  0.00  0.00    +0.000 HD
ENDBRANCH  26  29
ENDBRANCH  22  23
ENDBRANCH  21  22
ENDBRANCH   5  21
TORSDOF 7
ENDMDL
MODEL 8
REMARK VINA RESULT:      -8.1      4.278     10.386
REMARK  Name = 
REMARK  9 active torsions:
REMARK  status: ('A' for Active; 'I' for Inactive)
REMARK    1  A    between atoms: C_1  and  C_2
REMARK    2  A    between atoms: C_5  and  C_6
REMARK    3  A    between atoms: C_7  and  C_8
REMARK    4  A    between atoms: C_8  and  N_9
REMARK    5  A    between atoms: C_11  and  N_12
REMARK    6  A    between atoms: N_16  and  C_17
REMARK    7  A    between atoms: C_17  and  C_18
REMARK    8  A    between atoms: C_18  and  C_19
REMARK    9  A    between atoms: C_22  and  O_23
REMARK                            x       y       z     vdW  Elec       q    Type
REMARK                         _______ _______ _______ _____ _____    ______ ____
ROOT
ATOM      1  N   UNL     1       0.155  10.608  21.005  0.00  0.00    +0.000 N 
ATOM      2  C   UNL     1       0.475   9.823  22.083  0.00  0.00    +0.000 C 
ATOM      3  O   UNL     1       0.247  10.014  23.273  0.00  0.00    +0.000 OA
ATOM      4  C   UNL     1       1.149   8.569  21.564  0.00  0.00    +0.000 C 
ATOM      5  N   UNL     1       1.198   8.824  20.145  0.00  0.00    +0.000 N 
ATOM      6  C   UNL     1       0.564  10.027  19.823  0.00  0.00    +0.000 C 
ATOM      7  O   UNL     1       0.461  10.463  18.694  0.00  0.00    +0.000 OA
ENDROOT
BRANCH   1  10
ATOM      8  N   UNL     1      -1.899  13.500  21.067  0.00  0.00    +0.000 N 
ATOM      9  C   UNL     1      -1.700  12.205  20.673  0.00  0.00    +0.000 A 
ATOM     10  C   UNL     1      -0.431  11.860  21.079  0.00  0.00    +0.000 A 
ATOM     11  C   UNL     1       0.096  13.060  21.614  0.00  0.00    +0.000 A 
ATOM     12  N   UNL     1      -0.791  14.061  21.600  0.00  0.00    +0.000 NA
BRANCH   8  13
ATOM     13  C   UNL     1      -3.182  14.196  21.134  0.00  0.00    +0.000 C 
BRANCH  13  20
ATOM     14  C   UNL     1      -5.633  12.789  19.558  0.00  0.00    +0.000 C 
ATOM     15  C   UNL     1      -5.327  12.737  21.006  0.00  0.00    +0.000 A 
ATOM     16  N   UNL     1      -6.131  12.052  21.824  0.00  0.00    +0.000 NA
ATOM     17  O   UNL     1      -5.609  12.208  23.084  0.00  0.00    +0.000 OA
ATOM     18  C   UNL     1      -4.495  12.987  23.030  0.00  0.00    +0.000 A 
ATOM     19  C   UNL     1      -3.862  13.234  24.343  0.00  0.00    +0.000 C 
ATOM     20  C   UNL     1      -4.252  13.347  21.717  0.00  0.00    +0.000 A 
ENDBRANCH  13  20
ENDBRANCH   8  13
ENDBRANCH   1  10
BRANCH   5  21
ATOM     21  C   UNL     1       1.958   8.003  19.209  0.00  0.00    +0.000 C 
BRANCH  21  22
ATOM     22  C   UNL     1       2.669   6.831  19.889  0.00  0.00    +0.000 C 
BRANCH  22  23
ATOM     23  C   UNL     1       2.085   5.495  19.529  0.00  0.00    +0.000 A 
ATOM     24  C   UNL     1       1.485   4.696  20.514  0.00  0.00    +0.000 A 
ATOM     25  C   UNL     1       1.005   3.426  20.196  0.00  0.00    +0.000 A 
ATOM     26  C   UNL     1       1.121   2.960  18.890  0.00  0.00    +0.000 A 
ATOM     27  C   UNL     1       1.689   3.749  17.897  0.00  0.00    +0.000 A 
ATOM     28  C   UNL     1       2.171   5.018  18.214  0.00  0.00    +0.000 A 
BRANCH  26  29
ATOM     29  O   UNL     1       0.702   1.709  18.544  0.00  0.00    +0.000 OA
ATOM     30  H   UNL     1       1.083   1.488  17.679  0.00  0.00    +0.000 HD
ENDBRANCH  26  29
ENDBRANCH  22  23
ENDBRANCH  21  22
ENDBRANCH   5  21
TORSDOF 7
ENDMDL
MODEL 9
REMARK VINA RESULT:      -8.0      1.692      2.620
REMARK  Name = 
REMARK  9 active torsions:
REMARK  status: ('A' for Active; 'I' for Inactive)
REMARK    1  A    between atoms: C_1  and  C_2
REMARK    2  A    between atoms: C_5  and  C_6
REMARK    3  A    between atoms: C_7  and  C_8
REMARK    4  A    between atoms: C_8  and  N_9
REMARK    5  A    between atoms: C_11  and  N_12
REMARK    6  A    between atoms: N_16  and  C_17
REMARK    7  A    between atoms: C_17  and  C_18
REMARK    8  A    between atoms: C_18  and  C_19
REMARK    9  A    between atoms: C_22  and  O_23
REMARK                            x       y       z     vdW  Elec       q    Type
REMARK                         _______ _______ _______ _____ _____    ______ ____
ROOT
ATOM      1  N   UNL     1       2.229   6.423  19.125  0.00  0.00    +0.000 N 
ATOM      2  C   UNL     1       1.893   6.207  20.438  0.00  0.00    +0.000 C 
ATOM      3  O   UNL     1       1.949   5.169  21.089  0.00  0.00    +0.000 OA
ATOM      4  C   UNL     1       1.466   7.533  21.034  0.00  0.00    +0.000 C 
ATOM      5  N   UNL     1       1.553   8.413  19.895  0.00  0.00    +0.000 N 
ATOM      6  C   UNL     1       2.049   7.743  18.773  0.00  0.00    +0.000 C 
ATOM      7  O   UNL     1       2.225   8.265  17.690  0.00  0.00    +0.000 OA
ENDROOT
BRANCH   1  10
ATOM      8  N   UNL     1       3.843   4.078  17.008  0.00  0.00    +0.000 N 
ATOM      9  C   UNL     1       3.889   5.238  17.731  0.00  0.00    +0.000 A 
ATOM     10  C   UNL     1       2.624   5.440  18.234  0.00  0.00    +0.000 A 
ATOM     11  C   UNL     1       1.858   4.396  17.661  0.00  0.00    +0.000 A 
ATOM     12  N   UNL     1       2.594   3.572  16.909  0.00  0.00    +0.000 NA
BRANCH   8  13
ATOM     13  C   UNL     1       4.992   3.301  16.546  0.00  0.00    +0.000 C 
BRANCH  13  20
ATOM     14  C   UNL     1       7.420   5.156  17.612  0.00  0.00    +0.000 C 
ATOM     15  C   UNL     1       6.989   4.927  16.213  0.00  0.00    +0.000 A 
ATOM     16  N   UNL     1       7.632   5.545  15.219  0.00  0.00    +0.000 NA
ATOM     17  O   UNL     1       6.999   5.158  14.063  0.00  0.00    +0.000 OA
ATOM     18  C   UNL     1       5.974   4.315  14.357  0.00  0.00    +0.000 A 
ATOM     19  C   UNL     1       5.210   3.851  13.179  0.00  0.00    +0.000 C 
ATOM     20  C   UNL     1       5.925   4.113  15.725  0.00  0.00    +0.000 A 
ENDBRANCH  13  20
ENDBRANCH   8  13
ENDBRANCH   1  10
BRANCH   5  21
ATOM     21  C   UNL     1       1.031   9.775  19.892  0.00  0.00    +0.000 C 
BRANCH  21  22
ATOM     22  C   UNL     1       0.841  10.341  21.301  0.00  0.00    +0.000 C 
BRANCH  22  23
ATOM     23  C   UNL     1      -0.408  11.163  21.446  0.00  0.00    +0.000 A 
ATOM     24  C   UNL     1      -0.958  11.395  22.716  0.00  0.00    +0.000 A 
ATOM     25  C   UNL     1      -2.155  12.099  22.847  0.00  0.00    +0.000 A 
ATOM     26  C   UNL     1      -2.795  12.575  21.708  0.00  0.00    +0.000 A 
ATOM     27  C   UNL     1      -2.249  12.377  20.446  0.00  0.00    +0.000 A 
ATOM     28  C   UNL     1      -1.054  11.672  20.313  0.00  0.00    +0.000 A 
BRANCH  26  29
ATOM     29  O   UNL     1      -3.987  13.232  21.788  0.00  0.00    +0.000 OA
ATOM     30  H   UNL     1      -4.370  13.280  20.896  0.00  0.00    +0.000 HD
ENDBRANCH  26  29
ENDBRANCH  22  23
ENDBRANCH  21  22
ENDBRANCH   5  21
TORSDOF 7
ENDMDL
