MODEL 1
REMARK VINA RESULT:      -8.6      0.000      0.000
REMARK  Name = 
REMARK  7 active torsions:
REMARK  status: ('A' for Active; 'I' for Inactive)
REMARK    1  A    between atoms: C_1  and  C_2
REMARK    2  A    between atoms: C_8  and  C_9
REMARK    3  A    between atoms: C_13  and  N_14
REMARK    4  A    between atoms: N_14  and  CA_15
REMARK    5  A    between atoms: CA_15  and  C_16
REMARK    6  A    between atoms: CA_15  and  C_18
REMARK    7  A    between atoms: C_16  and  O_17
REMARK                            x       y       z     vdW  Elec       q    Type
REMARK                         _______ _______ _______ _____ _____    ______ ____
ROOT
ATOM      1  C   UNL     1       2.994   5.968  18.796  0.00  0.00    +0.000 A 
ATOM      2  C   UNL     1       3.089   5.063  19.853  0.00  0.00    +0.000 A 
ATOM      3  N   UNL     1       3.687   3.857  19.751  0.00  0.00    +0.000 NA
ATOM      4  C   UNL     1       4.231   3.610  18.538  0.00  0.00    +0.000 A 
ATOM      5  C   UNL     1       4.193   4.508  17.466  0.00  0.00    +0.000 A 
ATOM      6  N   UNL     1       3.532   5.679  17.577  0.00  0.00    +0.000 NA
ENDROOT
BRANCH   1  14
ATOM      7  C   UNL     1       0.417   9.294  22.753  0.00  0.00    +0.000 C 
ATOM      8  C   UNL     1       0.600   9.704  21.340  0.00  0.00    +0.000 A 
ATOM      9  N   UNL     1       0.172  10.902  20.917  0.00  0.00    +0.000 NA
ATOM     10  N   UNL     1       0.517  10.925  19.619  0.00  0.00    +0.000 N 
ATOM     11  C   UNL     1       1.152   9.794  19.185  0.00  0.00    +0.000 A 
ATOM     12  C   UNL     1       1.672   9.434  17.937  0.00  0.00    +0.000 A 
ATOM     13  C   UNL     1       2.275   8.174  17.843  0.00  0.00    +0.000 A 
ATOM     14  C   UNL     1       2.355   7.287  18.933  0.00  0.00    +0.000 A 
ATOM     15  C   UNL     1       1.821   7.703  20.174  0.00  0.00    +0.000 A 
ATOM     16  C   UNL     1       1.213   8.965  20.293  0.00  0.00    +0.000 A 
ATOM     17  H   UNL     1       0.294  11.754  19.080  0.00  0.00    +0.000 HD
ENDBRANCH   1  14
BRANCH   5  18
ATOM     18  N   UNL     1       4.882   4.180  16.301  0.00  0.00    +0.000 N 
ATOM     19  H   UNL     1       4.232   3.820  15.606  0.00  0.00    +0.000 HD
BRANCH  18  20
ATOM     20  CA  UNL     1       5.818   5.160  15.738  0.00  0.00    +0.000 C 
BRANCH  20  21
ATOM     21  C   UNL     1       6.230   4.657  14.350  0.00  0.00    +0.000 A 
ATOM     22  C   UNL     1       5.438   3.729  13.655  0.00  0.00    +0.000 A 
ATOM     23  C   UNL     1       5.803   3.309  12.371  0.00  0.00    +0.000 A 
ATOM     24  C   UNL     1       6.952   3.814  11.763  0.00  0.00    +0.000 A 
ATOM     25  C   UNL     1       7.740   4.750  12.431  0.00  0.00    +0.000 A 
ATOM     26  C   UNL     1       7.380   5.161  13.708  0.00  0.00    +0.000 A 
ENDBRANCH  20  21
BRANCH  20  27
ATOM     27  C   UNL     1       7.092   5.346  16.621  0.00  0.00    +0.000 C 
BRANCH  27  28
ATOM     28  O   UNL     1       7.554   6.700  16.723  0.00  0.00    +0.000 OA
ATOM     29  H   UNL     1       7.421   7.120  15.858  0.00  0.00    +0.000 HD
ENDBRANCH  27  28
ENDBRANCH  20  27
ENDBRANCH  18  20
ENDBRANCH   5  18
TORSDOF 6
ENDMDL
MODEL 2
REMARK VINA RESULT:      -8.6      1.453      1.825
REMARK  Name = 
REMARK  7 active torsions:
REMARK  status: ('A' for Active; 'I' for Inactive)
REMARK    1  A    between atoms: C_1  and  C_2
REMARK    2  A    between atoms: C_8  and  C_9
REMARK    3  A    between atoms: C_13  and  N_14
REMARK    4  A    between atoms: N_14  and  CA_15
REMARK    5  A    between atoms: CA_15  and  C_16
REMARK    6  A    between atoms: CA_15  and  C_18
REMARK    7  A    between atoms: C_16  and  O_17
REMARK                            x       y       z     vdW  Elec       q    Type
REMARK                         _______ _______ _______ _____ _____    ______ ____
ROOT
ATOM      1  C   UNL     1       2.544   5.707  19.955  0.00  0.00    +0.000 A 
ATOM      2  C   UNL     1       1.939   4.698  20.704  0.00  0.00    +0.000 A 
ATOM      3  N   UNL     1       2.435   3.447  20.808  0.00  0.00    +0.000 NA
ATOM      4  C   UNL     1       3.602   3.258  20.152  0.00  0.00    +0.000 A 
ATOM      5  C   UNL     1       4.261   4.254  19.425  0.00  0.00    +0.000 A 
ATOM      6  N   UNL     1       3.710   5.477  19.285  0.00  0.00    +0.000 NA
ENDROOT
BRANCH   1  14
ATOM      7  C   UNL     1      -0.264   9.601  23.165  0.00  0.00    +0.000 C 
ATOM      8  C   UNL     1       0.136   9.843  21.758  0.00  0.00    +0.000 A 
ATOM      9  N   UNL     1      -0.137  11.013  21.163  0.00  0.00    +0.000 NA
ATOM     10  N   UNL     1       0.378  10.873  19.930  0.00  0.00    +0.000 N 
ATOM     11  C   UNL     1       0.973   9.663  19.703  0.00  0.00    +0.000 A 
ATOM     12  C   UNL     1       1.624   9.137  18.582  0.00  0.00    +0.000 A 
ATOM     13  C   UNL     1       2.133   7.838  18.698  0.00  0.00    +0.000 A 
ATOM     14  C   UNL     1       1.998   7.071  19.870  0.00  0.00    +0.000 A 
ATOM     15  C   UNL     1       1.339   7.653  20.977  0.00  0.00    +0.000 A 
ATOM     16  C   UNL     1       0.822   8.957  20.885  0.00  0.00    +0.000 A 
ATOM     17  H   UNL     1       0.294  11.651  19.286  0.00  0.00    +0.000 HD
ENDBRANCH   1  14
BRANCH   5  18
ATOM     18  N   UNL     1       5.511   3.964  18.882  0.00  0.00    +0.000 N 
ATOM     19  H   UNL     1       5.452   3.123  18.313  0.00  0.00    +0.000 HD
BRANCH  18  20
ATOM     20  CA  UNL     1       6.256   5.041  18.219  0.00  0.00    +0.000 C 
BRANCH  20  21
ATOM     21  C   UNL     1       6.271   4.730  16.718  0.00  0.00    +0.000 A 
ATOM     22  C   UNL     1       5.163   4.136  16.094  0.00  0.00    +0.000 A 
ATOM     23  C   UNL     1       5.173   3.896  14.714  0.00  0.00    +0.000 A 
ATOM     24  C   UNL     1       6.278   4.254  13.944  0.00  0.00    +0.000 A 
ATOM     25  C   UNL     1       7.379   4.862  14.544  0.00  0.00    +0.000 A 
ATOM     26  C   UNL     1       7.372   5.094  15.914  0.00  0.00    +0.000 A 
ENDBRANCH  20  21
BRANCH  20  27
ATOM     27  C   UNL     1       7.724   5.159  18.738  0.00  0.00    +0.000 C 
BRANCH  27  28
ATOM     28  O   UNL     1       7.839   5.502  20.126  0.00  0.00    +0.000 OA
ATOM     29  H   UNL     1       8.241   6.384  20.177  0.00  0.00    +0.000 HD
ENDBRANCH  27  28
ENDBRANCH  20  27
ENDBRANCH  18  20
ENDBRANCH   5  18
TORSDOF 6
ENDMDL
MODEL 3
REMARK VINA RESULT:      -8.5      0.704      1.179
REMARK  Name = 
REMARK  7 active torsions:
REMARK  status: ('A' for Active; 'I' for Inactive)
REMARK    1  A    between atoms: C_1  and  C_2
REMARK    2  A    between atoms: C_8  and  C_9
REMARK    3  A    between atoms: C_13  and  N_14
REMARK    4  A    between atoms: N_14  and  CA_15
REMARK    5  A    between atoms: CA_15  and  C_16
REMARK    6  A    between atoms: CA_15  and  C_18
REMARK    7  A    between atoms: C_16  and  O_17
REMARK                            x       y       z     vdW  Elec       q    Type
REMARK                         _______ _______ _______ _____ _____    ______ ____
ROOT
ATOM      1  C   UNL     1       3.014   5.716  18.861  0.00  0.00    +0.000 A 
ATOM      2  C   UNL     1       2.856   4.784  19.886  0.00  0.00    +0.000 A 
ATOM      3  N   UNL     1       3.391   3.545  19.856  0.00  0.00    +0.000 NA
ATOM      4  C   UNL     1       4.135   3.290  18.757  0.00  0.00    +0.000 A 
ATOM      5  C   UNL     1       4.351   4.210  17.727  0.00  0.00    +0.000 A 
ATOM      6  N   UNL     1       3.752   5.419  17.753  0.00  0.00    +0.000 NA
ENDROOT
BRANCH   1  14
ATOM      7  C   UNL     1       0.442   9.315  22.574  0.00  0.00    +0.000 C 
ATOM      8  C   UNL     1       0.709   9.663  21.158  0.00  0.00    +0.000 A 
ATOM      9  N   UNL     1       0.365  10.864  20.673  0.00  0.00    +0.000 NA
ATOM     10  N   UNL     1       0.769  10.820  19.393  0.00  0.00    +0.000 N 
ATOM     11  C   UNL     1       1.362   9.644  19.029  0.00  0.00    +0.000 A 
ATOM     12  C   UNL     1       1.917   9.211  17.821  0.00  0.00    +0.000 A 
ATOM     13  C   UNL     1       2.456   7.919  17.799  0.00  0.00    +0.000 A 
ATOM     14  C   UNL     1       2.440   7.070  18.922  0.00  0.00    +0.000 A 
ATOM     15  C   UNL     1       1.874   7.559  20.121  0.00  0.00    +0.000 A 
ATOM     16  C   UNL     1       1.328   8.855  20.168  0.00  0.00    +0.000 A 
ATOM     17  H   UNL     1       0.614  11.639  18.816  0.00  0.00    +0.000 HD
ENDBRANCH   1  14
BRANCH   5  18
ATOM     18  N   UNL     1       5.223   3.864  16.698  0.00  0.00    +0.000 N 
ATOM     19  H   UNL     1       4.703   3.441  15.933  0.00  0.00    +0.000 HD
BRANCH  18  20
ATOM     20  CA  UNL     1       6.193   4.863  16.233  0.00  0.00    +0.000 C 
BRANCH  20  21
ATOM     21  C   UNL     1       6.421   4.618  14.737  0.00  0.00    +0.000 A 
ATOM     22  C   UNL     1       7.469   5.254  14.054  0.00  0.00    +0.000 A 
ATOM     23  C   UNL     1       7.694   4.989  12.698  0.00  0.00    +0.000 A 
ATOM     24  C   UNL     1       6.884   4.084  12.013  0.00  0.00    +0.000 A 
ATOM     25  C   UNL     1       5.850   3.430  12.680  0.00  0.00    +0.000 A 
ATOM     26  C   UNL     1       5.624   3.698  14.024  0.00  0.00    +0.000 A 
ENDBRANCH  20  21
BRANCH  20  27
ATOM     27  C   UNL     1       7.557   4.769  16.987  0.00  0.00    +0.000 C 
BRANCH  27  28
ATOM     28  O   UNL     1       7.477   4.171  18.289  0.00  0.00    +0.000 OA
ATOM     29  H   UNL     1       8.129   3.453  18.321  0.00  0.00    +0.000 HD
ENDBRANCH  27  28
ENDBRANCH  20  27
ENDBRANCH  18  20
ENDBRANCH   5  18
TORSDOF 6
ENDMDL
MODEL 4
REMARK VINA RESULT:      -8.4      1.476      2.977
REMARK  Name = 
REMARK  7 active torsions:
REMARK  status: ('A' for Active; 'I' for Inactive)
REMARK    1  A    between atoms: C_1  and  C_2
REMARK    2  A    between atoms: C_8  and  C_9
REMARK    3  A    between atoms: C_13  and  N_14
REMARK    4  A    between atoms: N_14  and  CA_15
REMARK    5  A    between atoms: CA_15  and  C_16
REMARK    6  A    between atoms: CA_15  and  C_18
REMARK    7  A    between atoms: C_16  and  O_17
REMARK                            x       y       z     vdW  Elec       q    Type
REMARK                         _______ _______ _______ _____ _____    ______ ____
ROOT
ATOM      1  C   UNL     1       2.854   6.268  18.792  0.00  0.00    +0.000 A 
ATOM      2  C   UNL     1       2.939   5.293  19.786  0.00  0.00    +0.000 A 
ATOM      3  N   UNL     1       3.536   4.096  19.607  0.00  0.00    +0.000 NA
ATOM      4  C   UNL     1       4.088   3.930  18.384  0.00  0.00    +0.000 A 
ATOM      5  C   UNL     1       4.060   4.898  17.375  0.00  0.00    +0.000 A 
ATOM      6  N   UNL     1       3.401   6.060  17.560  0.00  0.00    +0.000 NA
ENDROOT
BRANCH   1  14
ATOM      7  C   UNL     1       0.292   9.343  22.957  0.00  0.00    +0.000 C 
ATOM      8  C   UNL     1       0.471   9.840  21.572  0.00  0.00    +0.000 A 
ATOM      9  N   UNL     1       0.043  11.062  21.225  0.00  0.00    +0.000 NA
ATOM     10  N   UNL     1       0.384  11.166  19.930  0.00  0.00    +0.000 N 
ATOM     11  C   UNL     1       1.017  10.064  19.424  0.00  0.00    +0.000 A 
ATOM     12  C   UNL     1       1.532   9.782  18.155  0.00  0.00    +0.000 A 
ATOM     13  C   UNL     1       2.134   8.530  17.981  0.00  0.00    +0.000 A 
ATOM     14  C   UNL     1       2.216   7.577  19.013  0.00  0.00    +0.000 A 
ATOM     15  C   UNL     1       1.687   7.915  20.279  0.00  0.00    +0.000 A 
ATOM     16  C   UNL     1       1.080   9.168  20.479  0.00  0.00    +0.000 A 
ATOM     17  H   UNL     1       0.161  12.027  19.445  0.00  0.00    +0.000 HD
ENDBRANCH   1  14
BRANCH   5  18
ATOM     18  N   UNL     1       4.756   4.647  16.195  0.00  0.00    +0.000 N 
ATOM     19  H   UNL     1       4.573   5.388  15.523  0.00  0.00    +0.000 HD
BRANCH  18  20
ATOM     20  CA  UNL     1       6.182   4.307  16.279  0.00  0.00    +0.000 C 
BRANCH  20  21
ATOM     21  C   UNL     1       6.858   5.376  17.144  0.00  0.00    +0.000 A 
ATOM     22  C   UNL     1       7.466   5.039  18.363  0.00  0.00    +0.000 A 
ATOM     23  C   UNL     1       8.118   6.017  19.124  0.00  0.00    +0.000 A 
ATOM     24  C   UNL     1       8.179   7.336  18.674  0.00  0.00    +0.000 A 
ATOM     25  C   UNL     1       7.596   7.685  17.456  0.00  0.00    +0.000 A 
ATOM     26  C   UNL     1       6.944   6.714  16.706  0.00  0.00    +0.000 A 
ENDBRANCH  20  21
BRANCH  20  27
ATOM     27  C   UNL     1       6.869   4.263  14.878  0.00  0.00    +0.000 C 
BRANCH  27  28
ATOM     28  O   UNL     1       6.286   3.330  13.958  0.00  0.00    +0.000 OA
ATOM     29  H   UNL     1       5.946   2.582  14.476  0.00  0.00    +0.000 HD
ENDBRANCH  27  28
ENDBRANCH  20  27
ENDBRANCH  18  20
ENDBRANCH   5  18
TORSDOF 6
ENDMDL
MODEL 5
REMARK VINA RESULT:      -8.1      2.100      8.477
REMARK  Name = 
REMARK  7 active torsions:
REMARK  status: ('A' for Active; 'I' for Inactive)
REMARK    1  A    between atoms: C_1  and  C_2
REMARK    2  A    between atoms: C_8  and  C_9
REMARK    3  A    between atoms: C_13  and  N_14
REMARK    4  A    between atoms: N_14  and  CA_15
REMARK    5  A    between atoms: CA_15  and  C_16
REMARK    6  A    between atoms: CA_15  and  C_18
REMARK    7  A    between atoms: C_16  and  O_17
REMARK                            x       y       z     vdW  Elec       q    Type
REMARK                         _______ _______ _______ _____ _____    ______ ____
ROOT
ATOM      1  C   UNL     1       3.633   4.934  18.569  0.00  0.00    +0.000 A 
ATOM      2  C   UNL     1       2.944   3.724  18.655  0.00  0.00    +0.000 A 
ATOM      3  N   UNL     1       1.900   3.518  19.484  0.00  0.00    +0.000 NA
ATOM      4  C   UNL     1       1.544   4.604  20.207  0.00  0.00    +0.000 A 
ATOM      5  C   UNL     1       2.182   5.845  20.120  0.00  0.00    +0.000 A 
ATOM      6  N   UNL     1       3.264   6.004  19.330  0.00  0.00    +0.000 NA
ENDROOT
BRANCH   1  14
ATOM      7  C   UNL     1       5.250   3.725  13.158  0.00  0.00    +0.000 C 
ATOM      8  C   UNL     1       6.095   4.488  14.108  0.00  0.00    +0.000 A 
ATOM      9  N   UNL     1       7.296   4.950  13.733  0.00  0.00    +0.000 NA
ATOM     10  N   UNL     1       7.749   5.588  14.826  0.00  0.00    +0.000 N 
ATOM     11  C   UNL     1       6.891   5.561  15.890  0.00  0.00    +0.000 A 
ATOM     12  C   UNL     1       6.978   6.104  17.176  0.00  0.00    +0.000 A 
ATOM     13  C   UNL     1       5.890   5.885  18.030  0.00  0.00    +0.000 A 
ATOM     14  C   UNL     1       4.757   5.146  17.642  0.00  0.00    +0.000 A 
ATOM     15  C   UNL     1       4.715   4.626  16.329  0.00  0.00    +0.000 A 
ATOM     16  C   UNL     1       5.795   4.834  15.452  0.00  0.00    +0.000 A 
ATOM     17  H   UNL     1       8.658   6.032  14.777  0.00  0.00    +0.000 HD
ENDBRANCH   1  14
BRANCH   5  18
ATOM     18  N   UNL     1       1.655   6.915  20.839  0.00  0.00    +0.000 N 
ATOM     19  H   UNL     1       1.916   6.835  21.818  0.00  0.00    +0.000 HD
BRANCH  18  20
ATOM     20  CA  UNL     1       1.845   8.274  20.317  0.00  0.00    +0.000 C 
BRANCH  20  21
ATOM     21  C   UNL     1       0.890   9.196  21.083  0.00  0.00    +0.000 A 
ATOM     22  C   UNL     1       0.546   8.930  22.417  0.00  0.00    +0.000 A 
ATOM     23  C   UNL     1      -0.293   9.804  23.119  0.00  0.00    +0.000 A 
ATOM     24  C   UNL     1      -0.789  10.953  22.504  0.00  0.00    +0.000 A 
ATOM     25  C   UNL     1      -0.442  11.242  21.185  0.00  0.00    +0.000 A 
ATOM     26  C   UNL     1       0.385  10.371  20.487  0.00  0.00    +0.000 A 
ENDBRANCH  20  21
BRANCH  20  27
ATOM     27  C   UNL     1       1.546   8.373  18.788  0.00  0.00    +0.000 C 
BRANCH  27  28
ATOM     28  O   UNL     1       2.697   8.630  17.972  0.00  0.00    +0.000 OA
ATOM     29  H   UNL     1       2.559   9.484  17.531  0.00  0.00    +0.000 HD
ENDBRANCH  27  28
ENDBRANCH  20  27
ENDBRANCH  18  20
ENDBRANCH   5  18
TORSDOF 6
ENDMDL
MODEL 6
REMARK VINA RESULT:      -8.0      2.372      3.257
REMARK  Name = 
REMARK  7 active torsions:
REMARK  status: ('A' for Active; 'I' for Inactive)
REMARK    1  A    between atoms: C_1  and  C_2
REMARK    2  A    between atoms: C_8  and  C_9
REMARK    3  A    between atoms: C_13  and  N_14
REMARK    4  A    between atoms: N_14  and  CA_15
REMARK    5  A    between atoms: CA_15  and  C_16
REMARK    6  A    between atoms: CA_15  and  C_18
REMARK    7  A    between atoms: C_16  and  O_17
REMARK                            x       y       z     vdW  Elec       q    Type
REMARK                         _______ _______ _______ _____ _____    ______ ____
ROOT
ATOM      1  C   UNL     1       2.598   5.602  19.725  0.00  0.00    +0.000 A 
ATOM      2  C   UNL     1       1.818   4.530  20.159  0.00  0.00    +0.000 A 
ATOM      3  N   UNL     1       2.262   3.257  20.210  0.00  0.00    +0.000 NA
ATOM      4  C   UNL     1       3.554   3.106  19.840  0.00  0.00    +0.000 A 
ATOM      5  C   UNL     1       4.381   4.160  19.438  0.00  0.00    +0.000 A 
ATOM      6  N   UNL     1       3.891   5.413  19.335  0.00  0.00    +0.000 NA
ENDROOT
BRANCH   1  14
ATOM      7  C   UNL     1       0.005   9.490  23.118  0.00  0.00    +0.000 C 
ATOM      8  C   UNL     1       0.383   9.763  21.711  0.00  0.00    +0.000 A 
ATOM      9  N   UNL     1       0.142  10.960  21.159  0.00  0.00    +0.000 NA
ATOM     10  N   UNL     1       0.625  10.841  19.911  0.00  0.00    +0.000 N 
ATOM     11  C   UNL     1       1.171   9.619  19.633  0.00  0.00    +0.000 A 
ATOM     12  C   UNL     1       1.777   9.106  18.482  0.00  0.00    +0.000 A 
ATOM     13  C   UNL     1       2.240   7.786  18.545  0.00  0.00    +0.000 A 
ATOM     14  C   UNL     1       2.101   6.988  19.695  0.00  0.00    +0.000 A 
ATOM     15  C   UNL     1       1.488   7.556  20.835  0.00  0.00    +0.000 A 
ATOM     16  C   UNL     1       1.018   8.881  20.796  0.00  0.00    +0.000 A 
ATOM     17  H   UNL     1       0.557  11.643  19.295  0.00  0.00    +0.000 HD
ENDBRANCH   1  14
BRANCH   5  18
ATOM     18  N   UNL     1       5.723   3.890  19.183  0.00  0.00    +0.000 N 
ATOM     19  H   UNL     1       5.945   2.940  19.471  0.00  0.00    +0.000 HD
BRANCH  18  20
ATOM     20  CA  UNL     1       6.266   4.216  17.859  0.00  0.00    +0.000 C 
BRANCH  20  21
ATOM     21  C   UNL     1       6.846   5.632  17.937  0.00  0.00    +0.000 A 
ATOM     22  C   UNL     1       7.856   5.949  18.858  0.00  0.00    +0.000 A 
ATOM     23  C   UNL     1       8.407   7.236  18.891  0.00  0.00    +0.000 A 
ATOM     24  C   UNL     1       7.965   8.215  18.001  0.00  0.00    +0.000 A 
ATOM     25  C   UNL     1       6.975   7.913  17.068  0.00  0.00    +0.000 A 
ATOM     26  C   UNL     1       6.425   6.637  17.041  0.00  0.00    +0.000 A 
ENDBRANCH  20  21
BRANCH  20  27
ATOM     27  C   UNL     1       5.180   4.161  16.739  0.00  0.00    +0.000 C 
BRANCH  27  28
ATOM     28  O   UNL     1       5.642   3.633  15.488  0.00  0.00    +0.000 OA
ATOM     29  H   UNL     1       6.595   3.808  15.429  0.00  0.00    +0.000 HD
ENDBRANCH  27  28
ENDBRANCH  20  27
ENDBRANCH  18  20
ENDBRANCH   5  18
TORSDOF 6
ENDMDL
MODEL 7
REMARK VINA RESULT:      -7.9      3.277      8.663
REMARK  Name = 
REMARK  7 active torsions:
REMARK  status: ('A' for Active; 'I' for Inactive)
REMARK    1  A    between atoms: C_1  and  C_2
REMARK    2  A    between atoms: C_8  and  C_9
REMARK    3  A    between atoms: C_13  and  N_14
REMARK    4  A    between atoms: N_14  and  CA_15
REMARK    5  A    between atoms: CA_15  and  C_16
REMARK    6  A    between atoms: CA_15  and  C_18
REMARK    7  A    between atoms: C_16  and  O_17
REMARK                            x       y       z     vdW  Elec       q    Type
REMARK                         _______ _______ _______ _____ _____    ______ ____
ROOT
ATOM      1  C   UNL     1       2.191   7.495  19.006  0.00  0.00    +0.000 A 
ATOM      2  C   UNL     1       1.893   7.479  20.368  0.00  0.00    +0.000 A 
ATOM      3  N   UNL     1       1.212   8.462  20.994  0.00  0.00    +0.000 NA
ATOM      4  C   UNL     1       0.802   9.457  20.176  0.00  0.00    +0.000 A 
ATOM      5  C   UNL     1       1.045   9.490  18.800  0.00  0.00    +0.000 A 
ATOM      6  N   UNL     1       1.784   8.526  18.212  0.00  0.00    +0.000 NA
ENDROOT
BRANCH   1  14
ATOM      7  C   UNL     1       7.394   6.276  16.812  0.00  0.00    +0.000 C 
ATOM      8  C   UNL     1       6.262   5.318  16.802  0.00  0.00    +0.000 A 
ATOM      9  N   UNL     1       6.410   4.093  16.278  0.00  0.00    +0.000 NA
ATOM     10  N   UNL     1       5.208   3.520  16.459  0.00  0.00    +0.000 N 
ATOM     11  C   UNL     1       4.289   4.322  17.078  0.00  0.00    +0.000 A 
ATOM     12  C   UNL     1       2.960   4.104  17.453  0.00  0.00    +0.000 A 
ATOM     13  C   UNL     1       2.300   5.163  18.088  0.00  0.00    +0.000 A 
ATOM     14  C   UNL     1       2.918   6.402  18.337  0.00  0.00    +0.000 A 
ATOM     15  C   UNL     1       4.266   6.568  17.946  0.00  0.00    +0.000 A 
ATOM     16  C   UNL     1       4.950   5.518  17.308  0.00  0.00    +0.000 A 
ATOM     17  H   UNL     1       5.080   2.567  16.138  0.00  0.00    +0.000 HD
ENDBRANCH   1  14
BRANCH   5  18
ATOM     18  N   UNL     1       0.479  10.518  18.049  0.00  0.00    +0.000 N 
ATOM     19  H   UNL     1       0.113  10.146  17.176  0.00  0.00    +0.000 HD
BRANCH  18  20
ATOM     20  CA  UNL     1      -0.462  11.432  18.707  0.00  0.00    +0.000 C 
BRANCH  20  21
ATOM     21  C   UNL     1      -1.846  11.181  18.099  0.00  0.00    +0.000 A 
ATOM     22  C   UNL     1      -2.991  11.791  18.634  0.00  0.00    +0.000 A 
ATOM     23  C   UNL     1      -4.244  11.587  18.043  0.00  0.00    +0.000 A 
ATOM     24  C   UNL     1      -4.367  10.783  16.910  0.00  0.00    +0.000 A 
ATOM     25  C   UNL     1      -3.238  10.184  16.354  0.00  0.00    +0.000 A 
ATOM     26  C   UNL     1      -1.996  10.382  16.945  0.00  0.00    +0.000 A 
ENDBRANCH  20  21
BRANCH  20  27
ATOM     27  C   UNL     1      -0.075  12.932  18.510  0.00  0.00    +0.000 C 
BRANCH  27  28
ATOM     28  O   UNL     1       1.233  13.141  17.959  0.00  0.00    +0.000 OA
ATOM     29  H   UNL     1       1.136  13.218  16.996  0.00  0.00    +0.000 HD
ENDBRANCH  27  28
ENDBRANCH  20  27
ENDBRANCH  18  20
ENDBRANCH   5  18
TORSDOF 6
ENDMDL
MODEL 8
REMARK VINA RESULT:      -7.9      4.324      8.718
REMARK  Name = 
REMARK  7 active torsions:
REMARK  status: ('A' for Active; 'I' for Inactive)
REMARK    1  A    between atoms: C_1  and  C_2
REMARK    2  A    between atoms: C_8  and  C_9
REMARK    3  A    between atoms: C_13  and  N_14
REMARK    4  A    between atoms: N_14  and  CA_15
REMARK    5  A    between atoms: CA_15  and  C_16
REMARK    6  A    between atoms: CA_15  and  C_18
REMARK    7  A    between atoms: C_16  and  O_17
REMARK                            x       y       z     vdW  Elec       q    Type
REMARK                         _______ _______ _______ _____ _____    ______ ____
ROOT
ATOM      1  C   UNL     1       1.458   8.363  20.445  0.00  0.00    +0.000 A 
ATOM      2  C   UNL     1       1.468   8.666  21.806  0.00  0.00    +0.000 A 
ATOM      3  N   UNL     1       0.952   9.803  22.320  0.00  0.00    +0.000 NA
ATOM      4  C   UNL     1       0.380  10.615  21.403  0.00  0.00    +0.000 A 
ATOM      5  C   UNL     1       0.313  10.328  20.037  0.00  0.00    +0.000 A 
ATOM      6  N   UNL     1       0.894   9.215  19.542  0.00  0.00    +0.000 NA
ENDROOT
BRANCH   1  14
ATOM      7  C   UNL     1       1.687   2.713  21.624  0.00  0.00    +0.000 C 
ATOM      8  C   UNL     1       2.331   3.323  20.436  0.00  0.00    +0.000 A 
ATOM      9  N   UNL     1       3.001   2.563  19.559  0.00  0.00    +0.000 NA
ATOM     10  N   UNL     1       3.421   3.439  18.631  0.00  0.00    +0.000 N 
ATOM     11  C   UNL     1       3.049   4.733  18.870  0.00  0.00    +0.000 A 
ATOM     12  C   UNL     1       3.268   5.916  18.157  0.00  0.00    +0.000 A 
ATOM     13  C   UNL     1       2.729   7.090  18.697  0.00  0.00    +0.000 A 
ATOM     14  C   UNL     1       2.008   7.108  19.905  0.00  0.00    +0.000 A 
ATOM     15  C   UNL     1       1.808   5.884  20.583  0.00  0.00    +0.000 A 
ATOM     16  C   UNL     1       2.338   4.692  20.058  0.00  0.00    +0.000 A 
ATOM     17  H   UNL     1       3.957   3.085  17.847  0.00  0.00    +0.000 HD
ENDBRANCH   1  14
BRANCH   5  18
ATOM     18  N   UNL     1      -0.396  11.196  19.209  0.00  0.00    +0.000 N 
ATOM     19  H   UNL     1      -0.172  11.003  18.236  0.00  0.00    +0.000 HD
BRANCH  18  20
ATOM     20  CA  UNL     1      -1.837  11.359  19.432  0.00  0.00    +0.000 C 
BRANCH  20  21
ATOM     21  C   UNL     1      -2.543  11.054  18.107  0.00  0.00    +0.000 A 
ATOM     22  C   UNL     1      -3.808  11.592  17.823  0.00  0.00    +0.000 A 
ATOM     23  C   UNL     1      -4.424  11.341  16.591  0.00  0.00    +0.000 A 
ATOM     24  C   UNL     1      -3.784  10.561  15.628  0.00  0.00    +0.000 A 
ATOM     25  C   UNL     1      -2.520  10.033  15.887  0.00  0.00    +0.000 A 
ATOM     26  C   UNL     1      -1.912  10.278  17.112  0.00  0.00    +0.000 A 
ENDBRANCH  20  21
BRANCH  20  27
ATOM     27  C   UNL     1      -2.210  12.802  19.898  0.00  0.00    +0.000 C 
BRANCH  27  28
ATOM     28  O   UNL     1      -2.551  12.910  21.286  0.00  0.00    +0.000 OA
ATOM     29  H   UNL     1      -2.649  12.009  21.635  0.00  0.00    +0.000 HD
ENDBRANCH  27  28
ENDBRANCH  20  27
ENDBRANCH  18  20
ENDBRANCH   5  18
TORSDOF 6
ENDMDL
MODEL 9
REMARK VINA RESULT:      -7.9      2.149      8.512
REMARK  Name = 
REMARK  7 active torsions:
REMARK  status: ('A' for Active; 'I' for Inactive)
REMARK    1  A    between atoms: C_1  and  C_2
REMARK    2  A    between atoms: C_8  and  C_9
REMARK    3  A    between atoms: C_13  and  N_14
REMARK    4  A    between atoms: N_14  and  CA_15
REMARK    5  A    between atoms: CA_15  and  C_16
REMARK    6  A    between atoms: CA_15  and  C_18
REMARK    7  A    between atoms: C_16  and  O_17
REMARK                            x       y       z     vdW  Elec       q    Type
REMARK                         _______ _______ _______ _____ _____    ______ ____
ROOT
ATOM      1  C   UNL     1       3.439   4.609  19.097  0.00  0.00    +0.000 A 
ATOM      2  C   UNL     1       2.670   3.449  19.183  0.00  0.00    +0.000 A 
ATOM      3  N   UNL     1       1.536   3.359  19.909  0.00  0.00    +0.000 NA
ATOM      4  C   UNL     1       1.178   4.509  20.522  0.00  0.00    +0.000 A 
ATOM      5  C   UNL     1       1.899   5.703  20.427  0.00  0.00    +0.000 A 
ATOM      6  N   UNL     1       3.063   5.748  19.747  0.00  0.00    +0.000 NA
ENDROOT
BRANCH   1  14
ATOM      7  C   UNL     1       5.217   4.045  13.630  0.00  0.00    +0.000 C 
ATOM      8  C   UNL     1       6.128   4.378  14.751  0.00  0.00    +0.000 A 
ATOM      9  N   UNL     1       7.435   4.578  14.532  0.00  0.00    +0.000 NA
ATOM     10  N   UNL     1       7.924   4.867  15.749  0.00  0.00    +0.000 N 
ATOM     11  C   UNL     1       6.989   4.865  16.747  0.00  0.00    +0.000 A 
ATOM     12  C   UNL     1       7.083   5.121  18.118  0.00  0.00    +0.000 A 
ATOM     13  C   UNL     1       5.900   5.034  18.861  0.00  0.00    +0.000 A 
ATOM     14  C   UNL     1       4.663   4.693  18.283  0.00  0.00    +0.000 A 
ATOM     15  C   UNL     1       4.620   4.452  16.891  0.00  0.00    +0.000 A 
ATOM     16  C   UNL     1       5.796   4.536  16.123  0.00  0.00    +0.000 A 
ATOM     17  H   UNL     1       8.914   5.065  15.832  0.00  0.00    +0.000 HD
ENDBRANCH   1  14
BRANCH   5  18
ATOM     18  N   UNL     1       1.370   6.848  21.018  0.00  0.00    +0.000 N 
ATOM     19  H   UNL     1       1.475   6.794  22.028  0.00  0.00    +0.000 HD
BRANCH  18  20
ATOM     20  CA  UNL     1       1.757   8.159  20.483  0.00  0.00    +0.000 C 
BRANCH  20  21
ATOM     21  C   UNL     1       0.893   9.213  21.184  0.00  0.00    +0.000 A 
ATOM     22  C   UNL     1       0.458  10.359  20.501  0.00  0.00    +0.000 A 
ATOM     23  C   UNL     1      -0.365  11.294  21.140  0.00  0.00    +0.000 A 
ATOM     24  C   UNL     1      -0.770  11.092  22.459  0.00  0.00    +0.000 A 
ATOM     25  C   UNL     1      -0.363   9.950  23.147  0.00  0.00    +0.000 A 
ATOM     26  C   UNL     1       0.460   9.027  22.514  0.00  0.00    +0.000 A 
ENDBRANCH  20  21
BRANCH  20  27
ATOM     27  C   UNL     1       1.546   8.260  18.939  0.00  0.00    +0.000 C 
BRANCH  27  28
ATOM     28  O   UNL     1       2.757   8.280  18.173  0.00  0.00    +0.000 OA
ATOM     29  H   UNL     1       3.026   7.359  18.024  0.00  0.00    +0.000 HD
ENDBRANCH  27  28
ENDBRANCH  20  27
ENDBRANCH  18  20
ENDBRANCH   5  18
TORSDOF 6
ENDMDL
