MODEL 1
REMARK VINA RESULT:      -7.4      0.000      0.000
REMARK  Name = 
REMARK  6 active torsions:
REMARK  status: ('A' for Active; 'I' for Inactive)
REMARK    1  A    between atoms: C_1  and  C_2
REMARK    2  A    between atoms: C_2  and  C_3
REMARK    3  A    between atoms: C_6  and  C_7
REMARK    4  A    between atoms: C_7  and  C_8
REMARK    5  A    between atoms: C_7  and  N_9
REMARK    6  A    between atoms: C_12  and  C_13
REMARK                            x       y       z     vdW  Elec       q    Type
REMARK                         _______ _______ _______ _____ _____    ______ ____
ROOT
ATOM      1  C   UNL     1       5.990   5.932  17.535  0.00  0.00    +0.000 C 
ATOM      2  C   UNL     1       7.127   6.116  18.538  0.00  0.00    +0.000 C 
ENDROOT
BRANCH   1   6
ATOM      3  C   UNL     1       6.427   4.552  14.307  0.00  0.00    +0.000 A 
ATOM      4  N   UNL     1       7.552   5.235  14.338  0.00  0.00    +0.000 NA
ATOM      5  N   UNL     1       7.589   5.871  15.560  0.00  0.00    +0.000 NA
ATOM      6  C   UNL     1       6.485   5.529  16.193  0.00  0.00    +0.000 A 
ATOM      7  O   UNL     1       5.687   4.694  15.450  0.00  0.00    +0.000 OA
BRANCH   3   9
ATOM      8  C   UNL     1       6.799   3.631  12.039  0.00  0.00    +0.000 C 
ATOM      9  C   UNL     1       5.878   3.679  13.245  0.00  0.00    +0.000 C 
ENDBRANCH   3   9
ENDBRANCH   1   6
BRANCH   1  10
ATOM     10  N   UNL     1       5.008   4.959  18.014  0.00  0.00    +0.000 N 
ATOM     11  C   UNL     1       5.226   3.885  18.832  0.00  0.00    +0.000 A 
ATOM     12  C   UNL     1       3.994   3.326  19.072  0.00  0.00    +0.000 A 
ATOM     13  C   UNL     1       3.066   4.130  18.358  0.00  0.00    +0.000 A 
ATOM     14  N   UNL     1       3.701   5.133  17.715  0.00  0.00    +0.000 NA
BRANCH  13  15
ATOM     15  C   UNL     1       1.572   3.939  18.304  0.00  0.00    +0.000 C 
ATOM     16  F   UNL     1       1.236   2.632  18.110  0.00  0.00    +0.000 F 
ATOM     17  F   UNL     1       0.957   4.323  19.455  0.00  0.00    +0.000 F 
ATOM     18  F   UNL     1       0.992   4.637  17.292  0.00  0.00    +0.000 F 
ENDBRANCH  13  15
ENDBRANCH   1  10
TORSDOF 4
ENDMDL
MODEL 2
REMARK VINA RESULT:      -7.3      1.186      1.768
REMARK  Name = 
REMARK  6 active torsions:
REMARK  status: ('A' for Active; 'I' for Inactive)
REMARK    1  A    between atoms: C_1  and  C_2
REMARK    2  A    between atoms: C_2  and  C_3
REMARK    3  A    between atoms: C_6  and  C_7
REMARK    4  A    between atoms: C_7  and  C_8
REMARK    5  A    between atoms: C_7  and  N_9
REMARK    6  A    between atoms: C_12  and  C_13
REMARK                            x       y       z     vdW  Elec       q    Type
REMARK                         _______ _______ _______ _____ _____    ______ ____
ROOT
ATOM      1  C   UNL     1       5.861   5.844  17.837  0.00  0.00    +0.000 C 
ATOM      2  C   UNL     1       6.839   5.463  18.947  0.00  0.00    +0.000 C 
ENDROOT
BRANCH   1   6
ATOM      3  C   UNL     1       6.367   4.617  14.558  0.00  0.00    +0.000 A 
ATOM      4  N   UNL     1       7.488   5.301  14.642  0.00  0.00    +0.000 NA
ATOM      5  N   UNL     1       7.498   5.880  15.893  0.00  0.00    +0.000 NA
ATOM      6  C   UNL     1       6.384   5.506  16.488  0.00  0.00    +0.000 A 
ATOM      7  O   UNL     1       5.605   4.703  15.691  0.00  0.00    +0.000 OA
BRANCH   3   9
ATOM      8  C   UNL     1       6.806   3.772  12.272  0.00  0.00    +0.000 C 
ATOM      9  C   UNL     1       5.843   3.793  13.446  0.00  0.00    +0.000 C 
ENDBRANCH   3   9
ENDBRANCH   1   6
BRANCH   1  10
ATOM     10  N   UNL     1       4.556   5.213  18.036  0.00  0.00    +0.000 N 
ATOM     11  C   UNL     1       3.321   5.765  17.834  0.00  0.00    +0.000 A 
ATOM     12  C   UNL     1       2.409   4.765  18.067  0.00  0.00    +0.000 A 
ATOM     13  C   UNL     1       3.177   3.621  18.409  0.00  0.00    +0.000 A 
ATOM     14  N   UNL     1       4.496   3.907  18.382  0.00  0.00    +0.000 NA
BRANCH  13  15
ATOM     15  C   UNL     1       2.644   2.252  18.749  0.00  0.00    +0.000 C 
ATOM     16  F   UNL     1       1.441   2.017  18.152  0.00  0.00    +0.000 F 
ATOM     17  F   UNL     1       3.473   1.255  18.340  0.00  0.00    +0.000 F 
ATOM     18  F   UNL     1       2.448   2.085  20.083  0.00  0.00    +0.000 F 
ENDBRANCH  13  15
ENDBRANCH   1  10
TORSDOF 4
ENDMDL
MODEL 3
REMARK VINA RESULT:      -7.3      2.185      3.729
REMARK  Name = 
REMARK  6 active torsions:
REMARK  status: ('A' for Active; 'I' for Inactive)
REMARK    1  A    between atoms: C_1  and  C_2
REMARK    2  A    between atoms: C_2  and  C_3
REMARK    3  A    between atoms: C_6  and  C_7
REMARK    4  A    between atoms: C_7  and  C_8
REMARK    5  A    between atoms: C_7  and  N_9
REMARK    6  A    between atoms: C_12  and  C_13
REMARK                            x       y       z     vdW  Elec       q    Type
REMARK                         _______ _______ _______ _____ _____    ______ ____
ROOT
ATOM      1  C   UNL     1       5.405   4.163  17.132  0.00  0.00    +0.000 C 
ATOM      2  C   UNL     1       5.330   4.276  15.610  0.00  0.00    +0.000 C 
ENDROOT
BRANCH   1   6
ATOM      3  C   UNL     1       7.460   6.939  17.897  0.00  0.00    +0.000 A 
ATOM      4  N   UNL     1       7.852   6.175  18.895  0.00  0.00    +0.000 NA
ATOM      5  N   UNL     1       7.152   4.993  18.781  0.00  0.00    +0.000 NA
ATOM      6  C   UNL     1       6.382   5.115  17.718  0.00  0.00    +0.000 A 
ATOM      7  O   UNL     1       6.518   6.337  17.107  0.00  0.00    +0.000 OA
BRANCH   3   9
ATOM      8  C   UNL     1       8.662   8.966  18.654  0.00  0.00    +0.000 C 
ATOM      9  C   UNL     1       7.887   8.306  17.527  0.00  0.00    +0.000 C 
ENDBRANCH   3   9
ENDBRANCH   1   6
BRANCH   1  10
ATOM     10  N   UNL     1       4.092   4.358  17.747  0.00  0.00    +0.000 N 
ATOM     11  C   UNL     1       3.318   5.486  17.725  0.00  0.00    +0.000 A 
ATOM     12  C   UNL     1       2.144   5.160  18.358  0.00  0.00    +0.000 A 
ATOM     13  C   UNL     1       2.281   3.800  18.739  0.00  0.00    +0.000 A 
ATOM     14  N   UNL     1       3.481   3.316  18.354  0.00  0.00    +0.000 NA
BRANCH  13  15
ATOM     15  C   UNL     1       1.255   2.964  19.461  0.00  0.00    +0.000 C 
ATOM     16  F   UNL     1       0.547   3.701  20.363  0.00  0.00    +0.000 F 
ATOM     17  F   UNL     1       0.341   2.417  18.615  0.00  0.00    +0.000 F 
ATOM     18  F   UNL     1       1.813   1.939  20.158  0.00  0.00    +0.000 F 
ENDBRANCH  13  15
ENDBRANCH   1  10
TORSDOF 4
ENDMDL
MODEL 4
REMARK VINA RESULT:      -7.2      1.070      1.452
REMARK  Name = 
REMARK  6 active torsions:
REMARK  status: ('A' for Active; 'I' for Inactive)
REMARK    1  A    between atoms: C_1  and  C_2
REMARK    2  A    between atoms: C_2  and  C_3
REMARK    3  A    between atoms: C_6  and  C_7
REMARK    4  A    between atoms: C_7  and  C_8
REMARK    5  A    between atoms: C_7  and  N_9
REMARK    6  A    between atoms: C_12  and  C_13
REMARK                            x       y       z     vdW  Elec       q    Type
REMARK                         _______ _______ _______ _____ _____    ______ ____
ROOT
ATOM      1  C   UNL     1       4.761   5.914  16.616  0.00  0.00    +0.000 C 
ATOM      2  C   UNL     1       5.240   7.133  17.402  0.00  0.00    +0.000 C 
ENDROOT
BRANCH   1   6
ATOM      3  C   UNL     1       6.509   4.416  13.930  0.00  0.00    +0.000 A 
ATOM      4  N   UNL     1       7.547   5.014  14.476  0.00  0.00    +0.000 NA
ATOM      5  N   UNL     1       7.073   5.679  15.586  0.00  0.00    +0.000 NA
ATOM      6  C   UNL     1       5.779   5.438  15.644  0.00  0.00    +0.000 A 
ATOM      7  O   UNL     1       5.344   4.644  14.611  0.00  0.00    +0.000 OA
BRANCH   3   9
ATOM      8  C   UNL     1       5.023   3.498  12.175  0.00  0.00    +0.000 C 
ATOM      9  C   UNL     1       6.437   3.558  12.726  0.00  0.00    +0.000 C 
ENDBRANCH   3   9
ENDBRANCH   1   6
BRANCH   1  10
ATOM     10  N   UNL     1       4.379   4.820  17.509  0.00  0.00    +0.000 N 
ATOM     11  C   UNL     1       5.195   4.077  18.318  0.00  0.00    +0.000 A 
ATOM     12  C   UNL     1       4.373   3.236  19.027  0.00  0.00    +0.000 A 
ATOM     13  C   UNL     1       3.056   3.532  18.589  0.00  0.00    +0.000 A 
ATOM     14  N   UNL     1       3.072   4.511  17.659  0.00  0.00    +0.000 NA
BRANCH  13  15
ATOM     15  C   UNL     1       1.784   2.884  19.073  0.00  0.00    +0.000 C 
ATOM     16  F   UNL     1       0.758   3.067  18.195  0.00  0.00    +0.000 F 
ATOM     17  F   UNL     1       1.914   1.539  19.232  0.00  0.00    +0.000 F 
ATOM     18  F   UNL     1       1.361   3.386  20.263  0.00  0.00    +0.000 F 
ENDBRANCH  13  15
ENDBRANCH   1  10
TORSDOF 4
ENDMDL
MODEL 5
REMARK VINA RESULT:      -7.2      0.350      1.012
REMARK  Name = 
REMARK  6 active torsions:
REMARK  status: ('A' for Active; 'I' for Inactive)
REMARK    1  A    between atoms: C_1  and  C_2
REMARK    2  A    between atoms: C_2  and  C_3
REMARK    3  A    between atoms: C_6  and  C_7
REMARK    4  A    between atoms: C_7  and  C_8
REMARK    5  A    between atoms: C_7  and  N_9
REMARK    6  A    between atoms: C_12  and  C_13
REMARK                            x       y       z     vdW  Elec       q    Type
REMARK                         _______ _______ _______ _____ _____    ______ ____
ROOT
ATOM      1  C   UNL     1       6.090   6.008  17.572  0.00  0.00    +0.000 C 
ATOM      2  C   UNL     1       7.277   6.205  18.513  0.00  0.00    +0.000 C 
ENDROOT
BRANCH   1   6
ATOM      3  C   UNL     1       6.345   4.554  14.357  0.00  0.00    +0.000 A 
ATOM      4  N   UNL     1       7.490   5.203  14.325  0.00  0.00    +0.000 NA
ATOM      5  N   UNL     1       7.599   5.861  15.532  0.00  0.00    +0.000 NA
ATOM      6  C   UNL     1       6.514   5.565  16.219  0.00  0.00    +0.000 A 
ATOM      7  O   UNL     1       5.661   4.740  15.528  0.00  0.00    +0.000 OA
BRANCH   3   9
ATOM      8  C   UNL     1       6.624   3.523  12.124  0.00  0.00    +0.000 C 
ATOM      9  C   UNL     1       5.725   3.679  13.338  0.00  0.00    +0.000 C 
ENDBRANCH   3   9
ENDBRANCH   1   6
BRANCH   1  10
ATOM     10  N   UNL     1       5.123   5.059  18.124  0.00  0.00    +0.000 N 
ATOM     11  C   UNL     1       5.379   3.964  18.904  0.00  0.00    +0.000 A 
ATOM     12  C   UNL     1       4.156   3.440  19.247  0.00  0.00    +0.000 A 
ATOM     13  C   UNL     1       3.195   4.285  18.632  0.00  0.00    +0.000 A 
ATOM     14  N   UNL     1       3.801   5.279  17.948  0.00  0.00    +0.000 NA
BRANCH  13  15
ATOM     15  C   UNL     1       1.696   4.143  18.711  0.00  0.00    +0.000 C 
ATOM     16  F   UNL     1       1.162   4.956  19.666  0.00  0.00    +0.000 F 
ATOM     17  F   UNL     1       1.080   4.470  17.544  0.00  0.00    +0.000 F 
ATOM     18  F   UNL     1       1.307   2.879  19.025  0.00  0.00    +0.000 F 
ENDBRANCH  13  15
ENDBRANCH   1  10
TORSDOF 4
ENDMDL
MODEL 6
REMARK VINA RESULT:      -7.2      1.574      1.819
REMARK  Name = 
REMARK  6 active torsions:
REMARK  status: ('A' for Active; 'I' for Inactive)
REMARK    1  A    between atoms: C_1  and  C_2
REMARK    2  A    between atoms: C_2  and  C_3
REMARK    3  A    between atoms: C_6  and  C_7
REMARK    4  A    between atoms: C_7  and  C_8
REMARK    5  A    between atoms: C_7  and  N_9
REMARK    6  A    between atoms: C_12  and  C_13
REMARK                            x       y       z     vdW  Elec       q    Type
REMARK                         _______ _______ _______ _____ _____    ______ ____
ROOT
ATOM      1  C   UNL     1       5.100   5.815  16.311  0.00  0.00    +0.000 C 
ATOM      2  C   UNL     1       5.706   7.076  16.924  0.00  0.00    +0.000 C 
ENDROOT
BRANCH   1   6
ATOM      3  C   UNL     1       6.365   4.145  13.460  0.00  0.00    +0.000 A 
ATOM      4  N   UNL     1       7.491   4.730  13.811  0.00  0.00    +0.000 NA
ATOM      5  N   UNL     1       7.216   5.457  14.948  0.00  0.00    +0.000 NA
ATOM      6  C   UNL     1       5.940   5.264  15.217  0.00  0.00    +0.000 A 
ATOM      7  O   UNL     1       5.328   4.443  14.302  0.00  0.00    +0.000 OA
BRANCH   3   9
ATOM      8  C   UNL     1       4.653   3.398  11.835  0.00  0.00    +0.000 C 
ATOM      9  C   UNL     1       6.082   3.240  12.324  0.00  0.00    +0.000 C 
ENDBRANCH   3   9
ENDBRANCH   1   6
BRANCH   1  10
ATOM     10  N   UNL     1       4.870   4.786  17.325  0.00  0.00    +0.000 N 
ATOM     11  C   UNL     1       5.397   4.723  18.586  0.00  0.00    +0.000 A 
ATOM     12  C   UNL     1       4.823   3.631  19.190  0.00  0.00    +0.000 A 
ATOM     13  C   UNL     1       3.945   3.078  18.221  0.00  0.00    +0.000 A 
ATOM     14  N   UNL     1       3.980   3.799  17.080  0.00  0.00    +0.000 NA
BRANCH  13  15
ATOM     15  C   UNL     1       3.067   1.865  18.396  0.00  0.00    +0.000 C 
ATOM     16  F   UNL     1       3.800   0.719  18.479  0.00  0.00    +0.000 F 
ATOM     17  F   UNL     1       2.321   1.923  19.532  0.00  0.00    +0.000 F 
ATOM     18  F   UNL     1       2.204   1.691  17.361  0.00  0.00    +0.000 F 
ENDBRANCH  13  15
ENDBRANCH   1  10
TORSDOF 4
ENDMDL
MODEL 7
REMARK VINA RESULT:      -7.2      1.633      1.997
REMARK  Name = 
REMARK  6 active torsions:
REMARK  status: ('A' for Active; 'I' for Inactive)
REMARK    1  A    between atoms: C_1  and  C_2
REMARK    2  A    between atoms: C_2  and  C_3
REMARK    3  A    between atoms: C_6  and  C_7
REMARK    4  A    between atoms: C_7  and  C_8
REMARK    5  A    between atoms: C_7  and  N_9
REMARK    6  A    between atoms: C_12  and  C_13
REMARK                            x       y       z     vdW  Elec       q    Type
REMARK                         _______ _______ _______ _____ _____    ______ ____
ROOT
ATOM      1  C   UNL     1       5.433   5.635  18.874  0.00  0.00    +0.000 C 
ATOM      2  C   UNL     1       6.811   5.383  19.486  0.00  0.00    +0.000 C 
ENDROOT
BRANCH   1   6
ATOM      3  C   UNL     1       6.113   5.312  15.418  0.00  0.00    +0.000 A 
ATOM      4  N   UNL     1       5.250   6.301  15.315  0.00  0.00    +0.000 NA
ATOM      5  N   UNL     1       4.845   6.600  16.598  0.00  0.00    +0.000 NA
ATOM      6  C   UNL     1       5.492   5.776  17.397  0.00  0.00    +0.000 A 
ATOM      7  O   UNL     1       6.315   4.916  16.712  0.00  0.00    +0.000 OA
BRANCH   3   9
ATOM      8  C   UNL     1       5.940   3.835  13.439  0.00  0.00    +0.000 C 
ATOM      9  C   UNL     1       6.869   4.602  14.362  0.00  0.00    +0.000 C 
ENDBRANCH   3   9
ENDBRANCH   1   6
BRANCH   1  10
ATOM     10  N   UNL     1       4.489   4.577  19.234  0.00  0.00    +0.000 N 
ATOM     11  C   UNL     1       4.724   3.230  19.291  0.00  0.00    +0.000 A 
ATOM     12  C   UNL     1       3.567   2.656  19.760  0.00  0.00    +0.000 A 
ATOM     13  C   UNL     1       2.666   3.733  19.969  0.00  0.00    +0.000 A 
ATOM     14  N   UNL     1       3.245   4.909  19.646  0.00  0.00    +0.000 NA
BRANCH  13  15
ATOM     15  C   UNL     1       1.254   3.631  20.489  0.00  0.00    +0.000 C 
ATOM     16  F   UNL     1       1.203   2.982  21.687  0.00  0.00    +0.000 F 
ATOM     17  F   UNL     1       0.686   4.850  20.692  0.00  0.00    +0.000 F 
ATOM     18  F   UNL     1       0.436   2.946  19.648  0.00  0.00    +0.000 F 
ENDBRANCH  13  15
ENDBRANCH   1  10
TORSDOF 4
ENDMDL
MODEL 8
REMARK VINA RESULT:      -7.1      2.409      3.682
REMARK  Name = 
REMARK  6 active torsions:
REMARK  status: ('A' for Active; 'I' for Inactive)
REMARK    1  A    between atoms: C_1  and  C_2
REMARK    2  A    between atoms: C_2  and  C_3
REMARK    3  A    between atoms: C_6  and  C_7
REMARK    4  A    between atoms: C_7  and  C_8
REMARK    5  A    between atoms: C_7  and  N_9
REMARK    6  A    between atoms: C_12  and  C_13
REMARK                            x       y       z     vdW  Elec       q    Type
REMARK                         _______ _______ _______ _____ _____    ______ ____
ROOT
ATOM      1  C   UNL     1       5.464   4.285  17.703  0.00  0.00    +0.000 C 
ATOM      2  C   UNL     1       5.020   4.430  16.248  0.00  0.00    +0.000 C 
ENDROOT
BRANCH   1   6
ATOM      3  C   UNL     1       7.556   7.122  18.003  0.00  0.00    +0.000 A 
ATOM      4  N   UNL     1       8.152   6.391  18.922  0.00  0.00    +0.000 NA
ATOM      5  N   UNL     1       7.473   5.193  18.968  0.00  0.00    +0.000 NA
ATOM      6  C   UNL     1       6.511   5.272  18.071  0.00  0.00    +0.000 A 
ATOM      7  O   UNL     1       6.496   6.481  17.420  0.00  0.00    +0.000 OA
BRANCH   3   9
ATOM      8  C   UNL     1       8.663   9.263  18.568  0.00  0.00    +0.000 C 
ATOM      9  C   UNL     1       7.871   8.488  17.530  0.00  0.00    +0.000 C 
ENDBRANCH   3   9
ENDBRANCH   1   6
BRANCH   1  10
ATOM     10  N   UNL     1       4.329   4.401  18.620  0.00  0.00    +0.000 N 
ATOM     11  C   UNL     1       4.036   5.440  19.460  0.00  0.00    +0.000 A 
ATOM     12  C   UNL     1       2.835   5.132  20.050  0.00  0.00    +0.000 A 
ATOM     13  C   UNL     1       2.456   3.875  19.509  0.00  0.00    +0.000 A 
ATOM     14  N   UNL     1       3.381   3.438  18.628  0.00  0.00    +0.000 NA
BRANCH  13  15
ATOM     15  C   UNL     1       1.202   3.102  19.830  0.00  0.00    +0.000 C 
ATOM     16  F   UNL     1       0.681   2.502  18.722  0.00  0.00    +0.000 F 
ATOM     17  F   UNL     1       1.420   2.110  20.734  0.00  0.00    +0.000 F 
ATOM     18  F   UNL     1       0.217   3.891  20.335  0.00  0.00    +0.000 F 
ENDBRANCH  13  15
ENDBRANCH   1  10
TORSDOF 4
ENDMDL
MODEL 9
REMARK VINA RESULT:      -7.1      1.430      1.666
REMARK  Name = 
REMARK  6 active torsions:
REMARK  status: ('A' for Active; 'I' for Inactive)
REMARK    1  A    between atoms: C_1  and  C_2
REMARK    2  A    between atoms: C_2  and  C_3
REMARK    3  A    between atoms: C_6  and  C_7
REMARK    4  A    between atoms: C_7  and  C_8
REMARK    5  A    between atoms: C_7  and  N_9
REMARK    6  A    between atoms: C_12  and  C_13
REMARK                            x       y       z     vdW  Elec       q    Type
REMARK                         _______ _______ _______ _____ _____    ______ ____
ROOT
ATOM      1  C   UNL     1       5.867   5.488  18.533  0.00  0.00    +0.000 C 
ATOM      2  C   UNL     1       7.027   5.577  19.524  0.00  0.00    +0.000 C 
ENDROOT
BRANCH   1   6
ATOM      3  C   UNL     1       6.097   4.499  15.144  0.00  0.00    +0.000 A 
ATOM      4  N   UNL     1       7.386   4.460  15.406  0.00  0.00    +0.000 NA
ATOM      5  N   UNL     1       7.528   4.820  16.728  0.00  0.00    +0.000 NA
ATOM      6  C   UNL     1       6.313   5.051  17.185  0.00  0.00    +0.000 A 
ATOM      7  O   UNL     1       5.347   4.875  16.226  0.00  0.00    +0.000 OA
BRANCH   3   9
ATOM      8  C   UNL     1       6.321   3.674  12.821  0.00  0.00    +0.000 C 
ATOM      9  C   UNL     1       5.376   4.197  13.888  0.00  0.00    +0.000 C 
ENDBRANCH   3   9
ENDBRANCH   1   6
BRANCH   1  10
ATOM     10  N   UNL     1       4.816   4.596  19.021  0.00  0.00    +0.000 N 
ATOM     11  C   UNL     1       4.843   3.230  19.087  0.00  0.00    +0.000 A 
ATOM     12  C   UNL     1       3.671   2.849  19.694  0.00  0.00    +0.000 A 
ATOM     13  C   UNL     1       2.978   4.057  19.973  0.00  0.00    +0.000 A 
ATOM     14  N   UNL     1       3.693   5.123  19.559  0.00  0.00    +0.000 NA
BRANCH  13  15
ATOM     15  C   UNL     1       1.635   4.184  20.647  0.00  0.00    +0.000 C 
ATOM     16  F   UNL     1       0.647   3.590  19.920  0.00  0.00    +0.000 F 
ATOM     17  F   UNL     1       1.612   3.595  21.873  0.00  0.00    +0.000 F 
ATOM     18  F   UNL     1       1.258   5.478  20.820  0.00  0.00    +0.000 F 
ENDBRANCH  13  15
ENDBRANCH   1  10
TORSDOF 4
ENDMDL
