MODEL 1
REMARK VINA RESULT:      -7.5      0.000      0.000
REMARK  Name = 
REMARK  4 active torsions:
REMARK  status: ('A' for Active; 'I' for Inactive)
REMARK    1  A    between atoms: C_1  and  C_2
REMARK    2  A    between atoms: N_5  and  C_6
REMARK    3  A    between atoms: C_9  and  N_10
REMARK    4  A    between atoms: C_11  and  C_13
REMARK                            x       y       z     vdW  Elec       q    Type
REMARK                         _______ _______ _______ _____ _____    ______ ____
ROOT
ATOM      1  C   UNL     1       1.113   8.943  20.405  0.00  0.00    +0.000 A 
ATOM      2  C   UNL     1       1.372   9.514  19.159  0.00  0.00    +0.000 A 
ATOM      3  C   UNL     1       2.147   8.830  18.220  0.00  0.00    +0.000 A 
ATOM      4  C   UNL     1       2.687   7.572  18.498  0.00  0.00    +0.000 A 
ATOM      5  C   UNL     1       2.408   6.989  19.740  0.00  0.00    +0.000 A 
ATOM      6  C   UNL     1       1.638   7.675  20.695  0.00  0.00    +0.000 A 
ENDROOT
BRANCH   1  11
ATOM      7  C   UNL     1      -1.108  12.670  22.556  0.00  0.00    +0.000 C 
ATOM      8  C   UNL     1      -0.658  11.277  22.328  0.00  0.00    +0.000 A 
ATOM      9  C   UNL     1      -0.949  10.143  23.108  0.00  0.00    +0.000 A 
ATOM     10  C   UNL     1      -0.324   9.106  22.463  0.00  0.00    +0.000 A 
ATOM     11  N   UNL     1       0.317   9.634  21.363  0.00  0.00    +0.000 N 
ATOM     12  N   UNL     1       0.113  10.976  21.277  0.00  0.00    +0.000 NA
ENDBRANCH   1  11
BRANCH   4  13
ATOM     13  N   UNL     1       3.493   6.868  17.572  0.00  0.00    +0.000 N 
ATOM     14  C   UNL     1       4.568   6.058  17.917  0.00  0.00    +0.000 C 
ATOM     15  O   UNL     1       4.909   5.770  19.060  0.00  0.00    +0.000 OA
ATOM     16  H   UNL     1       3.171   6.853  16.612  0.00  0.00    +0.000 HD
BRANCH  14  17
ATOM     17  C   UNL     1       5.344   5.445  16.819  0.00  0.00    +0.000 A 
ATOM     18  C   UNL     1       4.855   4.452  15.968  0.00  0.00    +0.000 A 
ATOM     19  C   UNL     1       5.657   4.018  14.909  0.00  0.00    +0.000 A 
ATOM     20  C   UNL     1       6.912   4.586  14.741  0.00  0.00    +0.000 A 
ATOM     21  N   UNL     1       7.414   5.540  15.550  0.00  0.00    +0.000 NA
ATOM     22  C   UNL     1       6.615   5.956  16.563  0.00  0.00    +0.000 A 
ENDBRANCH  14  17
ENDBRANCH   4  13
TORSDOF 3
ENDMDL
MODEL 2
REMARK VINA RESULT:      -7.4      0.139      1.059
REMARK  Name = 
REMARK  4 active torsions:
REMARK  status: ('A' for Active; 'I' for Inactive)
REMARK    1  A    between atoms: C_1  and  C_2
REMARK    2  A    between atoms: N_5  and  C_6
REMARK    3  A    between atoms: C_9  and  N_10
REMARK    4  A    between atoms: C_11  and  C_13
REMARK                            x       y       z     vdW  Elec       q    Type
REMARK                         _______ _______ _______ _____ _____    ______ ____
ROOT
ATOM      1  C   UNL     1       1.085   8.939  20.361  0.00  0.00    +0.000 A 
ATOM      2  C   UNL     1       1.596   7.688  20.706  0.00  0.00    +0.000 A 
ATOM      3  C   UNL     1       2.388   6.978  19.801  0.00  0.00    +0.000 A 
ATOM      4  C   UNL     1       2.684   7.489  18.535  0.00  0.00    +0.000 A 
ATOM      5  C   UNL     1       2.191   8.754  18.197  0.00  0.00    +0.000 A 
ATOM      6  C   UNL     1       1.384   9.472  19.097  0.00  0.00    +0.000 A 
ENDROOT
BRANCH   1  11
ATOM      7  C   UNL     1      -1.250  12.725  22.274  0.00  0.00    +0.000 C 
ATOM      8  C   UNL     1      -0.742  11.339  22.144  0.00  0.00    +0.000 A 
ATOM      9  C   UNL     1      -0.959  10.260  23.020  0.00  0.00    +0.000 A 
ATOM     10  C   UNL     1      -0.303   9.204  22.441  0.00  0.00    +0.000 A 
ATOM     11  N   UNL     1       0.283   9.669  21.283  0.00  0.00    +0.000 N 
ATOM     12  N   UNL     1       0.015  10.989  21.098  0.00  0.00    +0.000 NA
ENDBRANCH   1  11
BRANCH   4  13
ATOM     13  N   UNL     1       3.466   6.780  17.592  0.00  0.00    +0.000 N 
ATOM     14  C   UNL     1       4.559   5.983  17.913  0.00  0.00    +0.000 C 
ATOM     15  O   UNL     1       4.939   5.713  19.048  0.00  0.00    +0.000 OA
ATOM     16  H   UNL     1       3.114   6.750  16.644  0.00  0.00    +0.000 HD
BRANCH  14  17
ATOM     17  C   UNL     1       5.305   5.362  16.799  0.00  0.00    +0.000 A 
ATOM     18  C   UNL     1       4.817   4.322  16.007  0.00  0.00    +0.000 A 
ATOM     19  C   UNL     1       5.582   3.882  14.924  0.00  0.00    +0.000 A 
ATOM     20  C   UNL     1       6.804   4.493  14.675  0.00  0.00    +0.000 A 
ATOM     21  N   UNL     1       7.305   5.493  15.426  0.00  0.00    +0.000 NA
ATOM     22  C   UNL     1       6.540   5.913  16.463  0.00  0.00    +0.000 A 
ENDBRANCH  14  17
ENDBRANCH   4  13
TORSDOF 3
ENDMDL
MODEL 3
REMARK VINA RESULT:      -7.2      5.806      8.118
REMARK  Name = 
REMARK  4 active torsions:
REMARK  status: ('A' for Active; 'I' for Inactive)
REMARK    1  A    between atoms: C_1  and  C_2
REMARK    2  A    between atoms: N_5  and  C_6
REMARK    3  A    between atoms: C_9  and  N_10
REMARK    4  A    between atoms: C_11  and  C_13
REMARK                            x       y       z     vdW  Elec       q    Type
REMARK                         _______ _______ _______ _____ _____    ______ ____
ROOT
ATOM      1  C   UNL     1       6.174   5.880  18.113  0.00  0.00    +0.000 A 
ATOM      2  C   UNL     1       7.403   5.990  18.765  0.00  0.00    +0.000 A 
ATOM      3  C   UNL     1       8.183   7.137  18.604  0.00  0.00    +0.000 A 
ATOM      4  C   UNL     1       7.766   8.195  17.792  0.00  0.00    +0.000 A 
ATOM      5  C   UNL     1       6.523   8.095  17.158  0.00  0.00    +0.000 A 
ATOM      6  C   UNL     1       5.735   6.939  17.304  0.00  0.00    +0.000 A 
ENDROOT
BRANCH   1  11
ATOM      7  C   UNL     1       4.376   1.928  20.257  0.00  0.00    +0.000 C 
ATOM      8  C   UNL     1       4.580   2.960  19.213  0.00  0.00    +0.000 A 
ATOM      9  C   UNL     1       3.943   3.053  17.962  0.00  0.00    +0.000 A 
ATOM     10  C   UNL     1       4.459   4.188  17.391  0.00  0.00    +0.000 A 
ATOM     11  N   UNL     1       5.372   4.715  18.280  0.00  0.00    +0.000 N 
ATOM     12  N   UNL     1       5.450   3.957  19.406  0.00  0.00    +0.000 NA
ENDBRANCH   1  11
BRANCH   4  13
ATOM     13  N   UNL     1       8.548   9.358  17.597  0.00  0.00    +0.000 N 
ATOM     14  C   UNL     1       9.070  10.139  18.622  0.00  0.00    +0.000 C 
ATOM     15  O   UNL     1       9.006   9.884  19.820  0.00  0.00    +0.000 OA
ATOM     16  H   UNL     1       8.853   9.544  16.650  0.00  0.00    +0.000 HD
BRANCH  14  17
ATOM     17  C   UNL     1       9.814  11.358  18.243  0.00  0.00    +0.000 A 
ATOM     18  C   UNL     1      11.191  11.405  18.022  0.00  0.00    +0.000 A 
ATOM     19  C   UNL     1      11.763  12.600  17.578  0.00  0.00    +0.000 A 
ATOM     20  C   UNL     1      10.942  13.701  17.374  0.00  0.00    +0.000 A 
ATOM     21  N   UNL     1       9.611  13.689  17.585  0.00  0.00    +0.000 NA
ATOM     22  C   UNL     1       9.075  12.516  18.003  0.00  0.00    +0.000 A 
ENDBRANCH  14  17
ENDBRANCH   4  13
TORSDOF 3
ENDMDL
MODEL 4
REMARK VINA RESULT:      -7.1      5.828      8.169
REMARK  Name = 
REMARK  4 active torsions:
REMARK  status: ('A' for Active; 'I' for Inactive)
REMARK    1  A    between atoms: C_1  and  C_2
REMARK    2  A    between atoms: N_5  and  C_6
REMARK    3  A    between atoms: C_9  and  N_10
REMARK    4  A    between atoms: C_11  and  C_13
REMARK                            x       y       z     vdW  Elec       q    Type
REMARK                         _______ _______ _______ _____ _____    ______ ____
ROOT
ATOM      1  C   UNL     1       6.247   5.904  18.089  0.00  0.00    +0.000 A 
ATOM      2  C   UNL     1       7.474   5.994  18.748  0.00  0.00    +0.000 A 
ATOM      3  C   UNL     1       8.261   7.139  18.613  0.00  0.00    +0.000 A 
ATOM      4  C   UNL     1       7.854   8.214  17.819  0.00  0.00    +0.000 A 
ATOM      5  C   UNL     1       6.613   8.134  17.177  0.00  0.00    +0.000 A 
ATOM      6  C   UNL     1       5.818   6.980  17.298  0.00  0.00    +0.000 A 
ENDROOT
BRANCH   1  11
ATOM      7  C   UNL     1       4.239   2.056  20.236  0.00  0.00    +0.000 C 
ATOM      8  C   UNL     1       4.554   3.031  19.165  0.00  0.00    +0.000 A 
ATOM      9  C   UNL     1       4.062   3.047  17.848  0.00  0.00    +0.000 A 
ATOM     10  C   UNL     1       4.632   4.155  17.275  0.00  0.00    +0.000 A 
ATOM     11  N   UNL     1       5.437   4.741  18.229  0.00  0.00    +0.000 N 
ATOM     12  N   UNL     1       5.392   4.047  19.398  0.00  0.00    +0.000 NA
ENDBRANCH   1  11
BRANCH   4  13
ATOM     13  N   UNL     1       8.644   9.376  17.649  0.00  0.00    +0.000 N 
ATOM     14  C   UNL     1       9.102  10.177  18.689  0.00  0.00    +0.000 C 
ATOM     15  O   UNL     1       8.967   9.944  19.886  0.00  0.00    +0.000 OA
ATOM     16  H   UNL     1       9.004   9.546  16.719  0.00  0.00    +0.000 HD
BRANCH  14  17
ATOM     17  C   UNL     1       9.864  11.392  18.332  0.00  0.00    +0.000 A 
ATOM     18  C   UNL     1       9.306  12.528  17.744  0.00  0.00    +0.000 A 
ATOM     19  C   UNL     1      10.116  13.649  17.539  0.00  0.00    +0.000 A 
ATOM     20  C   UNL     1      11.448  13.592  17.926  0.00  0.00    +0.000 A 
ATOM     21  N   UNL     1      12.017  12.509  18.489  0.00  0.00    +0.000 NA
ATOM     22  C   UNL     1      11.211  11.438  18.690  0.00  0.00    +0.000 A 
ENDBRANCH  14  17
ENDBRANCH   4  13
TORSDOF 3
ENDMDL
MODEL 5
REMARK VINA RESULT:      -7.1      2.018      8.721
REMARK  Name = 
REMARK  4 active torsions:
REMARK  status: ('A' for Active; 'I' for Inactive)
REMARK    1  A    between atoms: C_1  and  C_2
REMARK    2  A    between atoms: N_5  and  C_6
REMARK    3  A    between atoms: C_9  and  N_10
REMARK    4  A    between atoms: C_11  and  C_13
REMARK                            x       y       z     vdW  Elec       q    Type
REMARK                         _______ _______ _______ _____ _____    ______ ____
ROOT
ATOM      1  C   UNL     1       3.193   6.722  18.500  0.00  0.00    +0.000 A 
ATOM      2  C   UNL     1       2.917   7.887  17.783  0.00  0.00    +0.000 A 
ATOM      3  C   UNL     1       2.030   8.835  18.296  0.00  0.00    +0.000 A 
ATOM      4  C   UNL     1       1.393   8.646  19.526  0.00  0.00    +0.000 A 
ATOM      5  C   UNL     1       1.688   7.489  20.256  0.00  0.00    +0.000 A 
ATOM      6  C   UNL     1       2.571   6.524  19.742  0.00  0.00    +0.000 A 
ENDROOT
BRANCH   1  11
ATOM      7  C   UNL     1       7.449   4.656  17.466  0.00  0.00    +0.000 C 
ATOM      8  C   UNL     1       5.979   4.841  17.510  0.00  0.00    +0.000 A 
ATOM      9  C   UNL     1       4.991   3.992  16.980  0.00  0.00    +0.000 A 
ATOM     10  C   UNL     1       3.802   4.594  17.306  0.00  0.00    +0.000 A 
ATOM     11  N   UNL     1       4.103   5.757  17.983  0.00  0.00    +0.000 N 
ATOM     12  N   UNL     1       5.448   5.912  18.109  0.00  0.00    +0.000 NA
ENDBRANCH   1  11
BRANCH   4  13
ATOM     13  N   UNL     1       0.474   9.581  20.058  0.00  0.00    +0.000 N 
ATOM     14  C   UNL     1       0.556  10.132  21.331  0.00  0.00    +0.000 C 
ATOM     15  O   UNL     1       1.473   9.959  22.128  0.00  0.00    +0.000 OA
ATOM     16  H   UNL     1      -0.203   9.967  19.412  0.00  0.00    +0.000 HD
BRANCH  14  17
ATOM     17  C   UNL     1      -0.524  11.048  21.752  0.00  0.00    +0.000 A 
ATOM     18  C   UNL     1      -1.187  10.973  22.978  0.00  0.00    +0.000 A 
ATOM     19  C   UNL     1      -2.129  11.955  23.297  0.00  0.00    +0.000 A 
ATOM     20  C   UNL     1      -2.374  12.970  22.382  0.00  0.00    +0.000 A 
ATOM     21  N   UNL     1      -1.756  13.065  21.189  0.00  0.00    +0.000 NA
ATOM     22  C   UNL     1      -0.837  12.110  20.905  0.00  0.00    +0.000 A 
ENDBRANCH  14  17
ENDBRANCH   4  13
TORSDOF 3
ENDMDL
MODEL 6
REMARK VINA RESULT:      -7.0      1.770      8.737
REMARK  Name = 
REMARK  4 active torsions:
REMARK  status: ('A' for Active; 'I' for Inactive)
REMARK    1  A    between atoms: C_1  and  C_2
REMARK    2  A    between atoms: N_5  and  C_6
REMARK    3  A    between atoms: C_9  and  N_10
REMARK    4  A    between atoms: C_11  and  C_13
REMARK                            x       y       z     vdW  Elec       q    Type
REMARK                         _______ _______ _______ _____ _____    ______ ____
ROOT
ATOM      1  C   UNL     1       4.065   5.907  17.480  0.00  0.00    +0.000 A 
ATOM      2  C   UNL     1       3.475   5.244  18.557  0.00  0.00    +0.000 A 
ATOM      3  C   UNL     1       2.660   5.942  19.450  0.00  0.00    +0.000 A 
ATOM      4  C   UNL     1       2.415   7.309  19.298  0.00  0.00    +0.000 A 
ATOM      5  C   UNL     1       2.987   7.969  18.205  0.00  0.00    +0.000 A 
ATOM      6  C   UNL     1       3.819   7.277  17.307  0.00  0.00    +0.000 A 
ENDROOT
BRANCH   1  11
ATOM      7  C   UNL     1       7.267   5.227  13.911  0.00  0.00    +0.000 C 
ATOM      8  C   UNL     1       6.297   4.886  14.979  0.00  0.00    +0.000 A 
ATOM      9  C   UNL     1       5.906   3.604  15.405  0.00  0.00    +0.000 A 
ATOM     10  C   UNL     1       5.017   3.831  16.425  0.00  0.00    +0.000 A 
ATOM     11  N   UNL     1       4.892   5.198  16.563  0.00  0.00    +0.000 N 
ATOM     12  N   UNL     1       5.681   5.852  15.669  0.00  0.00    +0.000 NA
ENDBRANCH   1  11
BRANCH   4  13
ATOM     13  N   UNL     1       1.609   8.042  20.201  0.00  0.00    +0.000 N 
ATOM     14  C   UNL     1       0.840   9.147  19.855  0.00  0.00    +0.000 C 
ATOM     15  O   UNL     1       0.683   9.581  18.718  0.00  0.00    +0.000 OA
ATOM     16  H   UNL     1       1.487   7.644  21.124  0.00  0.00    +0.000 HD
BRANCH  14  17
ATOM     17  C   UNL     1       0.105   9.836  20.935  0.00  0.00    +0.000 A 
ATOM     18  C   UNL     1      -0.066   9.325  22.223  0.00  0.00    +0.000 A 
ATOM     19  C   UNL     1      -0.703  10.115  23.183  0.00  0.00    +0.000 A 
ATOM     20  C   UNL     1      -1.148  11.380  22.823  0.00  0.00    +0.000 A 
ATOM     21  N   UNL     1      -1.004  11.897  21.587  0.00  0.00    +0.000 NA
ATOM     22  C   UNL     1      -0.372  11.120  20.675  0.00  0.00    +0.000 A 
ENDBRANCH  14  17
ENDBRANCH   4  13
TORSDOF 3
ENDMDL
MODEL 7
REMARK VINA RESULT:      -7.0      2.363      9.008
REMARK  Name = 
REMARK  4 active torsions:
REMARK  status: ('A' for Active; 'I' for Inactive)
REMARK    1  A    between atoms: C_1  and  C_2
REMARK    2  A    between atoms: N_5  and  C_6
REMARK    3  A    between atoms: C_9  and  N_10
REMARK    4  A    between atoms: C_11  and  C_13
REMARK                            x       y       z     vdW  Elec       q    Type
REMARK                         _______ _______ _______ _____ _____    ______ ____
ROOT
ATOM      1  C   UNL     1       2.457   7.635  18.608  0.00  0.00    +0.000 A 
ATOM      2  C   UNL     1       1.950   8.755  17.947  0.00  0.00    +0.000 A 
ATOM      3  C   UNL     1       1.109   9.646  18.617  0.00  0.00    +0.000 A 
ATOM      4  C   UNL     1       0.749   9.444  19.952  0.00  0.00    +0.000 A 
ATOM      5  C   UNL     1       1.277   8.334  20.622  0.00  0.00    +0.000 A 
ATOM      6  C   UNL     1       2.114   7.425  19.952  0.00  0.00    +0.000 A 
ENDROOT
BRANCH   1  11
ATOM      7  C   UNL     1       4.242   3.386  17.123  0.00  0.00    +0.000 C 
ATOM      8  C   UNL     1       4.124   4.855  17.277  0.00  0.00    +0.000 A 
ATOM      9  C   UNL     1       4.948   5.846  16.713  0.00  0.00    +0.000 A 
ATOM     10  C   UNL     1       4.405   7.033  17.135  0.00  0.00    +0.000 A 
ATOM     11  N   UNL     1       3.320   6.728  17.929  0.00  0.00    +0.000 N 
ATOM     12  N   UNL     1       3.145   5.383  18.019  0.00  0.00    +0.000 NA
ENDBRANCH   1  11
BRANCH   4  13
ATOM     13  N   UNL     1      -0.118  10.320  20.647  0.00  0.00    +0.000 N 
ATOM     14  C   UNL     1       0.300  11.422  21.385  0.00  0.00    +0.000 C 
ATOM     15  O   UNL     1       1.452  11.837  21.462  0.00  0.00    +0.000 OA
ATOM     16  H   UNL     1      -1.108  10.207  20.476  0.00  0.00    +0.000 HD
BRANCH  14  17
ATOM     17  C   UNL     1      -0.733  12.197  22.102  0.00  0.00    +0.000 A 
ATOM     18  C   UNL     1      -1.844  11.635  22.734  0.00  0.00    +0.000 A 
ATOM     19  C   UNL     1      -2.701  12.468  23.458  0.00  0.00    +0.000 A 
ATOM     20  C   UNL     1      -2.421  13.826  23.522  0.00  0.00    +0.000 A 
ATOM     21  N   UNL     1      -1.362  14.399  22.917  0.00  0.00    +0.000 NA
ATOM     22  C   UNL     1      -0.536  13.571  22.231  0.00  0.00    +0.000 A 
ENDBRANCH  14  17
ENDBRANCH   4  13
TORSDOF 3
ENDMDL
MODEL 8
REMARK VINA RESULT:      -7.0      2.376      9.064
REMARK  Name = 
REMARK  4 active torsions:
REMARK  status: ('A' for Active; 'I' for Inactive)
REMARK    1  A    between atoms: C_1  and  C_2
REMARK    2  A    between atoms: N_5  and  C_6
REMARK    3  A    between atoms: C_9  and  N_10
REMARK    4  A    between atoms: C_11  and  C_13
REMARK                            x       y       z     vdW  Elec       q    Type
REMARK                         _______ _______ _______ _____ _____    ______ ____
ROOT
ATOM      1  C   UNL     1       2.433   7.608  18.683  0.00  0.00    +0.000 A 
ATOM      2  C   UNL     1       2.134   7.380  20.027  0.00  0.00    +0.000 A 
ATOM      3  C   UNL     1       1.294   8.254  20.718  0.00  0.00    +0.000 A 
ATOM      4  C   UNL     1       0.737   9.374  20.096  0.00  0.00    +0.000 A 
ATOM      5  C   UNL     1       1.017   9.590  18.742  0.00  0.00    +0.000 A 
ATOM      6  C   UNL     1       1.871   8.721  18.041  0.00  0.00    +0.000 A 
ENDROOT
BRANCH   1  11
ATOM      7  C   UNL     1       4.182   3.390  17.071  0.00  0.00    +0.000 C 
ATOM      8  C   UNL     1       4.073   4.855  17.264  0.00  0.00    +0.000 A 
ATOM      9  C   UNL     1       4.896   5.857  16.718  0.00  0.00    +0.000 A 
ATOM     10  C   UNL     1       4.364   7.035  17.176  0.00  0.00    +0.000 A 
ATOM     11  N   UNL     1       3.284   6.714  17.973  0.00  0.00    +0.000 N 
ATOM     12  N   UNL     1       3.103   5.368  18.030  0.00  0.00    +0.000 NA
ENDBRANCH   1  11
BRANCH   4  13
ATOM     13  N   UNL     1      -0.101  10.286  20.780  0.00  0.00    +0.000 N 
ATOM     14  C   UNL     1       0.331  11.474  21.360  0.00  0.00    +0.000 C 
ATOM     15  O   UNL     1       1.465  11.936  21.283  0.00  0.00    +0.000 OA
ATOM     16  H   UNL     1      -1.098  10.119  20.718  0.00  0.00    +0.000 HD
BRANCH  14  17
ATOM     17  C   UNL     1      -0.666  12.281  22.092  0.00  0.00    +0.000 A 
ATOM     18  C   UNL     1      -1.833  11.768  22.659  0.00  0.00    +0.000 A 
ATOM     19  C   UNL     1      -2.651  12.620  23.407  0.00  0.00    +0.000 A 
ATOM     20  C   UNL     1      -2.276  13.948  23.557  0.00  0.00    +0.000 A 
ATOM     21  N   UNL     1      -1.160  14.474  23.016  0.00  0.00    +0.000 NA
ATOM     22  C   UNL     1      -0.374  13.628  22.306  0.00  0.00    +0.000 A 
ENDBRANCH  14  17
ENDBRANCH   4  13
TORSDOF 3
ENDMDL
MODEL 9
REMARK VINA RESULT:      -7.0      3.260      3.704
REMARK  Name = 
REMARK  4 active torsions:
REMARK  status: ('A' for Active; 'I' for Inactive)
REMARK    1  A    between atoms: C_1  and  C_2
REMARK    2  A    between atoms: N_5  and  C_6
REMARK    3  A    between atoms: C_9  and  N_10
REMARK    4  A    between atoms: C_11  and  C_13
REMARK                            x       y       z     vdW  Elec       q    Type
REMARK                         _______ _______ _______ _____ _____    ______ ____
ROOT
ATOM      1  C   UNL     1       1.212  10.053  18.914  0.00  0.00    +0.000 A 
ATOM      2  C   UNL     1       1.875   9.502  17.816  0.00  0.00    +0.000 A 
ATOM      3  C   UNL     1       2.404   8.212  17.889  0.00  0.00    +0.000 A 
ATOM      4  C   UNL     1       2.294   7.444  19.051  0.00  0.00    +0.000 A 
ATOM      5  C   UNL     1       1.608   7.987  20.143  0.00  0.00    +0.000 A 
ATOM      6  C   UNL     1       1.082   9.289  20.083  0.00  0.00    +0.000 A 
ENDROOT
BRANCH   1  11
ATOM      7  C   UNL     1       1.137  14.894  18.819  0.00  0.00    +0.000 C 
ATOM      8  C   UNL     1       0.620  13.505  18.810  0.00  0.00    +0.000 A 
ATOM      9  C   UNL     1      -0.720  13.089  18.713  0.00  0.00    +0.000 A 
ATOM     10  C   UNL     1      -0.662  11.719  18.723  0.00  0.00    +0.000 A 
ATOM     11  N   UNL     1       0.665  11.366  18.841  0.00  0.00    +0.000 N 
ATOM     12  N   UNL     1       1.460  12.468  18.896  0.00  0.00    +0.000 NA
ENDBRANCH   1  11
BRANCH   4  13
ATOM     13  N   UNL     1       2.840   6.143  19.157  0.00  0.00    +0.000 N 
ATOM     14  C   UNL     1       2.367   5.030  18.470  0.00  0.00    +0.000 C 
ATOM     15  O   UNL     1       1.482   5.036  17.621  0.00  0.00    +0.000 OA
ATOM     16  H   UNL     1       3.713   6.058  19.661  0.00  0.00    +0.000 HD
BRANCH  14  17
ATOM     17  C   UNL     1       3.013   3.730  18.745  0.00  0.00    +0.000 A 
ATOM     18  C   UNL     1       2.725   2.547  18.063  0.00  0.00    +0.000 A 
ATOM     19  C   UNL     1       3.471   1.402  18.353  0.00  0.00    +0.000 A 
ATOM     20  C   UNL     1       4.472   1.480  19.312  0.00  0.00    +0.000 A 
ATOM     21  N   UNL     1       4.769   2.605  19.991  0.00  0.00    +0.000 NA
ATOM     22  C   UNL     1       4.042   3.706  19.685  0.00  0.00    +0.000 A 
ENDBRANCH  14  17
ENDBRANCH   4  13
TORSDOF 3
ENDMDL
