MODEL 1
REMARK VINA RESULT:      -8.7      0.000      0.000
REMARK  Name = 
REMARK  4 active torsions:
REMARK  status: ('A' for Active; 'I' for Inactive)
REMARK    1  A    between atoms: C_2  and  C_12
REMARK    2  A    between atoms: N_3  and  C_4
REMARK    3  A    between atoms: C_15  and  C_16
REMARK    4  A    between atoms: C_21  and  C_22
REMARK                            x       y       z     vdW  Elec       q    Type
REMARK                         _______ _______ _______ _____ _____    ______ ____
ROOT
ATOM      1  C   UNL     1       2.477   6.959  19.461  0.00  0.00    +0.000 A 
ATOM      2  C   UNL     1       2.488   5.582  19.561  0.00  0.00    +0.000 A 
ATOM      3  C   UNL     1       3.231   5.058  18.473  0.00  0.00    +0.000 A 
ATOM      4  C   UNL     1       3.395   3.754  17.959  0.00  0.00    +0.000 A 
ATOM      5  C   UNL     1       4.198   3.609  16.804  0.00  0.00    +0.000 A 
ATOM      6  C   UNL     1       4.821   4.703  16.182  0.00  0.00    +0.000 A 
ATOM      7  C   UNL     1       4.644   5.996  16.704  0.00  0.00    +0.000 A 
ATOM      8  C   UNL     1       3.824   6.144  17.830  0.00  0.00    +0.000 A 
ATOM      9  N   UNL     1       3.387   7.282  18.478  0.00  0.00    +0.000 N 
ATOM     10  H   UNL     1       3.599   8.232  18.200  0.00  0.00    +0.000 HD
ENDROOT
BRANCH   1  12
ATOM     11  O   UNL     1       1.180   7.739  21.255  0.00  0.00    +0.000 OA
ATOM     12  C   UNL     1       1.632   7.929  20.133  0.00  0.00    +0.000 C 
ATOM     13  N   UNL     1       1.447   9.087  19.419  0.00  0.00    +0.000 N 
ATOM     14  H   UNL     1       1.675   9.077  18.438  0.00  0.00    +0.000 HD
BRANCH  13  15
ATOM     15  C   UNL     1       0.784  10.291  19.944  0.00  0.00    +0.000 C 
ATOM     16  C   UNL     1       1.456  11.514  19.298  0.00  0.00    +0.000 C 
ATOM     17  C   UNL     1       0.915  12.892  19.680  0.00  0.00    +0.000 C 
ATOM     18  C   UNL     1      -0.480  13.296  19.192  0.00  0.00    +0.000 C 
ATOM     19  C   UNL     1      -0.884  12.793  17.806  0.00  0.00    +0.000 C 
ATOM     20  C   UNL     1      -1.802  11.568  17.826  0.00  0.00    +0.000 C 
ATOM     21  C   UNL     1      -1.185  10.247  18.287  0.00  0.00    +0.000 C 
ATOM     22  C   UNL     1      -0.732  10.203  19.751  0.00  0.00    +0.000 C 
ENDBRANCH  13  15
ENDBRANCH   1  12
BRANCH   4  23
ATOM     23  C   UNL     1       2.684   2.546  18.522  0.00  0.00    +0.000 C 
ATOM     24  F   UNL     1       2.880   2.344  19.854  0.00  0.00    +0.000 F 
ATOM     25  F   UNL     1       1.333   2.624  18.362  0.00  0.00    +0.000 F 
ATOM     26  F   UNL     1       3.066   1.387  17.916  0.00  0.00    +0.000 F 
ENDBRANCH   4  23
BRANCH   6  27
ATOM     27  C   UNL     1       5.647   4.506  14.927  0.00  0.00    +0.000 C 
ATOM     28  F   UNL     1       4.896   4.253  13.818  0.00  0.00    +0.000 F 
ATOM     29  F   UNL     1       6.397   5.602  14.622  0.00  0.00    +0.000 F 
ATOM     30  F   UNL     1       6.521   3.469  15.031  0.00  0.00    +0.000 F 
ENDBRANCH   6  27
TORSDOF 4
ENDMDL
MODEL 2
REMARK VINA RESULT:      -8.7      0.140      1.019
REMARK  Name = 
REMARK  4 active torsions:
REMARK  status: ('A' for Active; 'I' for Inactive)
REMARK    1  A    between atoms: C_2  and  C_12
REMARK    2  A    between atoms: N_3  and  C_4
REMARK    3  A    between atoms: C_15  and  C_16
REMARK    4  A    between atoms: C_21  and  C_22
REMARK                            x       y       z     vdW  Elec       q    Type
REMARK                         _______ _______ _______ _____ _____    ______ ____
ROOT
ATOM      1  C   UNL     1       2.445   6.973  19.567  0.00  0.00    +0.000 A 
ATOM      2  C   UNL     1       2.398   5.595  19.631  0.00  0.00    +0.000 A 
ATOM      3  C   UNL     1       3.149   5.068  18.550  0.00  0.00    +0.000 A 
ATOM      4  C   UNL     1       3.274   3.772  18.006  0.00  0.00    +0.000 A 
ATOM      5  C   UNL     1       4.103   3.623  16.869  0.00  0.00    +0.000 A 
ATOM      6  C   UNL     1       4.787   4.705  16.293  0.00  0.00    +0.000 A 
ATOM      7  C   UNL     1       4.648   5.991  16.844  0.00  0.00    +0.000 A 
ATOM      8  C   UNL     1       3.803   6.144  17.952  0.00  0.00    +0.000 A 
ATOM      9  N   UNL     1       3.395   7.282  18.617  0.00  0.00    +0.000 N 
ATOM     10  H   UNL     1       3.653   8.230  18.370  0.00  0.00    +0.000 HD
ENDROOT
BRANCH   1  12
ATOM     11  O   UNL     1       1.229   7.809  21.390  0.00  0.00    +0.000 OA
ATOM     12  C   UNL     1       1.623   7.959  20.242  0.00  0.00    +0.000 C 
ATOM     13  N   UNL     1       1.388   9.086  19.493  0.00  0.00    +0.000 N 
ATOM     14  H   UNL     1       1.567   9.040  18.502  0.00  0.00    +0.000 HD
BRANCH  13  15
ATOM     15  C   UNL     1       0.736  10.303  20.002  0.00  0.00    +0.000 C 
ATOM     16  C   UNL     1       1.424  11.512  19.345  0.00  0.00    +0.000 C 
ATOM     17  C   UNL     1       0.896  12.899  19.711  0.00  0.00    +0.000 C 
ATOM     18  C   UNL     1      -0.493  13.313  19.214  0.00  0.00    +0.000 C 
ATOM     19  C   UNL     1      -0.897  12.800  17.832  0.00  0.00    +0.000 C 
ATOM     20  C   UNL     1      -1.828  11.585  17.861  0.00  0.00    +0.000 C 
ATOM     21  C   UNL     1      -1.227  10.263  18.339  0.00  0.00    +0.000 C 
ATOM     22  C   UNL     1      -0.780  10.229  19.804  0.00  0.00    +0.000 C 
ENDBRANCH  13  15
ENDBRANCH   1  12
BRANCH   4  23
ATOM     23  C   UNL     1       2.499   2.581  18.518  0.00  0.00    +0.000 C 
ATOM     24  F   UNL     1       1.147   2.710  18.444  0.00  0.00    +0.000 F 
ATOM     25  F   UNL     1       2.794   1.441  17.831  0.00  0.00    +0.000 F 
ATOM     26  F   UNL     1       2.769   2.308  19.826  0.00  0.00    +0.000 F 
ENDBRANCH   4  23
BRANCH   6  27
ATOM     27  C   UNL     1       5.638   4.506  15.056  0.00  0.00    +0.000 C 
ATOM     28  F   UNL     1       6.525   5.518  14.839  0.00  0.00    +0.000 F 
ATOM     29  F   UNL     1       6.386   3.368  15.119  0.00  0.00    +0.000 F 
ATOM     30  F   UNL     1       4.898   4.407  13.919  0.00  0.00    +0.000 F 
ENDBRANCH   6  27
TORSDOF 4
ENDMDL
MODEL 3
REMARK VINA RESULT:      -8.6      0.215      1.011
REMARK  Name = 
REMARK  4 active torsions:
REMARK  status: ('A' for Active; 'I' for Inactive)
REMARK    1  A    between atoms: C_2  and  C_12
REMARK    2  A    between atoms: N_3  and  C_4
REMARK    3  A    between atoms: C_15  and  C_16
REMARK    4  A    between atoms: C_21  and  C_22
REMARK                            x       y       z     vdW  Elec       q    Type
REMARK                         _______ _______ _______ _____ _____    ______ ____
ROOT
ATOM      1  C   UNL     1       2.492   6.928  19.519  0.00  0.00    +0.000 A 
ATOM      2  C   UNL     1       2.600   5.562  19.685  0.00  0.00    +0.000 A 
ATOM      3  C   UNL     1       3.337   5.032  18.596  0.00  0.00    +0.000 A 
ATOM      4  C   UNL     1       3.571   3.717  18.140  0.00  0.00    +0.000 A 
ATOM      5  C   UNL     1       4.341   3.567  16.963  0.00  0.00    +0.000 A 
ATOM      6  C   UNL     1       4.867   4.666  16.265  0.00  0.00    +0.000 A 
ATOM      7  C   UNL     1       4.621   5.970  16.730  0.00  0.00    +0.000 A 
ATOM      8  C   UNL     1       3.832   6.120  17.878  0.00  0.00    +0.000 A 
ATOM      9  N   UNL     1       3.343   7.259  18.486  0.00  0.00    +0.000 N 
ATOM     10  H   UNL     1       3.480   8.206  18.154  0.00  0.00    +0.000 HD
ENDROOT
BRANCH   1  12
ATOM     11  O   UNL     1       1.104   7.649  21.267  0.00  0.00    +0.000 OA
ATOM     12  C   UNL     1       1.608   7.873  20.175  0.00  0.00    +0.000 C 
ATOM     13  N   UNL     1       1.448   9.049  19.484  0.00  0.00    +0.000 N 
ATOM     14  H   UNL     1       1.723   9.068  18.514  0.00  0.00    +0.000 HD
BRANCH  13  15
ATOM     15  C   UNL     1       0.751  10.233  20.008  0.00  0.00    +0.000 C 
ATOM     16  C   UNL     1       1.440  11.478  19.424  0.00  0.00    +0.000 C 
ATOM     17  C   UNL     1       0.869  12.841  19.816  0.00  0.00    +0.000 C 
ATOM     18  C   UNL     1      -0.506  13.247  19.275  0.00  0.00    +0.000 C 
ATOM     19  C   UNL     1      -0.841  12.776  17.860  0.00  0.00    +0.000 C 
ATOM     20  C   UNL     1      -1.747  11.544  17.806  0.00  0.00    +0.000 C 
ATOM     21  C   UNL     1      -1.140  10.217  18.262  0.00  0.00    +0.000 C 
ATOM     22  C   UNL     1      -0.754  10.138  19.743  0.00  0.00    +0.000 C 
ENDBRANCH  13  15
ENDBRANCH   1  12
BRANCH   4  23
ATOM     23  C   UNL     1       2.964   2.496  18.789  0.00  0.00    +0.000 C 
ATOM     24  F   UNL     1       3.273   1.319  18.180  0.00  0.00    +0.000 F 
ATOM     25  F   UNL     1       3.361   2.351  20.084  0.00  0.00    +0.000 F 
ATOM     26  F   UNL     1       1.602   2.545  18.819  0.00  0.00    +0.000 F 
ENDBRANCH   4  23
BRANCH   6  27
ATOM     27  C   UNL     1       5.658   4.459  14.990  0.00  0.00    +0.000 C 
ATOM     28  F   UNL     1       6.368   3.296  14.976  0.00  0.00    +0.000 F 
ATOM     29  F   UNL     1       4.861   4.419  13.885  0.00  0.00    +0.000 F 
ATOM     30  F   UNL     1       6.562   5.451  14.766  0.00  0.00    +0.000 F 
ENDBRANCH   6  27
TORSDOF 4
ENDMDL
MODEL 4
REMARK VINA RESULT:      -8.2      5.125      9.127
REMARK  Name = 
REMARK  4 active torsions:
REMARK  status: ('A' for Active; 'I' for Inactive)
REMARK    1  A    between atoms: C_2  and  C_12
REMARK    2  A    between atoms: N_3  and  C_4
REMARK    3  A    between atoms: C_15  and  C_16
REMARK    4  A    between atoms: C_21  and  C_22
REMARK                            x       y       z     vdW  Elec       q    Type
REMARK                         _______ _______ _______ _____ _____    ______ ____
ROOT
ATOM      1  C   UNL     1       1.609   8.816  18.681  0.00  0.00    +0.000 A 
ATOM      2  C   UNL     1       0.680   9.603  18.032  0.00  0.00    +0.000 A 
ATOM      3  C   UNL     1      -0.079  10.300  19.006  0.00  0.00    +0.000 A 
ATOM      4  C   UNL     1      -1.266  11.061  18.940  0.00  0.00    +0.000 A 
ATOM      5  C   UNL     1      -1.769  11.585  20.153  0.00  0.00    +0.000 A 
ATOM      6  C   UNL     1      -1.126  11.375  21.384  0.00  0.00    +0.000 A 
ATOM      7  C   UNL     1       0.053  10.611  21.434  0.00  0.00    +0.000 A 
ATOM      8  C   UNL     1       0.535  10.066  20.236  0.00  0.00    +0.000 A 
ATOM      9  N   UNL     1       1.583   9.200  20.005  0.00  0.00    +0.000 N 
ATOM     10  H   UNL     1       2.179   8.797  20.717  0.00  0.00    +0.000 HD
ENDROOT
BRANCH   1  12
ATOM     11  O   UNL     1       3.401   7.890  17.482  0.00  0.00    +0.000 OA
ATOM     12  C   UNL     1       2.406   7.715  18.172  0.00  0.00    +0.000 C 
ATOM     13  N   UNL     1       1.971   6.481  18.590  0.00  0.00    +0.000 N 
ATOM     14  H   UNL     1       1.042   6.414  18.974  0.00  0.00    +0.000 HD
BRANCH  13  15
ATOM     15  C   UNL     1       2.698   5.222  18.363  0.00  0.00    +0.000 C 
ATOM     16  C   UNL     1       3.806   5.125  19.425  0.00  0.00    +0.000 C 
ATOM     17  C   UNL     1       4.689   3.877  19.401  0.00  0.00    +0.000 C 
ATOM     18  C   UNL     1       4.074   2.532  19.800  0.00  0.00    +0.000 C 
ATOM     19  C   UNL     1       3.023   2.571  20.908  0.00  0.00    +0.000 C 
ATOM     20  C   UNL     1       1.578   2.507  20.407  0.00  0.00    +0.000 C 
ATOM     21  C   UNL     1       1.049   3.732  19.660  0.00  0.00    +0.000 C 
ATOM     22  C   UNL     1       1.731   4.037  18.322  0.00  0.00    +0.000 C 
ENDBRANCH  13  15
ENDBRANCH   1  12
BRANCH   4  23
ATOM     23  C   UNL     1      -2.056  11.251  17.666  0.00  0.00    +0.000 C 
ATOM     24  F   UNL     1      -2.120  10.150  16.870  0.00  0.00    +0.000 F 
ATOM     25  F   UNL     1      -3.351  11.598  17.912  0.00  0.00    +0.000 F 
ATOM     26  F   UNL     1      -1.547  12.242  16.881  0.00  0.00    +0.000 F 
ENDBRANCH   4  23
BRANCH   6  27
ATOM     27  C   UNL     1      -1.718  11.928  22.663  0.00  0.00    +0.000 C 
ATOM     28  F   UNL     1      -2.900  12.582  22.476  0.00  0.00    +0.000 F 
ATOM     29  F   UNL     1      -1.978  10.953  23.580  0.00  0.00    +0.000 F 
ATOM     30  F   UNL     1      -0.895  12.816  23.283  0.00  0.00    +0.000 F 
ENDBRANCH   6  27
TORSDOF 4
ENDMDL
MODEL 5
REMARK VINA RESULT:      -8.2      5.085      9.090
REMARK  Name = 
REMARK  4 active torsions:
REMARK  status: ('A' for Active; 'I' for Inactive)
REMARK    1  A    between atoms: C_2  and  C_12
REMARK    2  A    between atoms: N_3  and  C_4
REMARK    3  A    between atoms: C_15  and  C_16
REMARK    4  A    between atoms: C_21  and  C_22
REMARK                            x       y       z     vdW  Elec       q    Type
REMARK                         _______ _______ _______ _____ _____    ______ ____
ROOT
ATOM      1  C   UNL     1       1.549   8.969  18.421  0.00  0.00    +0.000 A 
ATOM      2  C   UNL     1       0.471   9.613  17.849  0.00  0.00    +0.000 A 
ATOM      3  C   UNL     1      -0.239  10.295  18.870  0.00  0.00    +0.000 A 
ATOM      4  C   UNL     1      -1.501  10.926  18.908  0.00  0.00    +0.000 A 
ATOM      5  C   UNL     1      -1.912  11.478  20.144  0.00  0.00    +0.000 A 
ATOM      6  C   UNL     1      -1.111  11.418  21.296  0.00  0.00    +0.000 A 
ATOM      7  C   UNL     1       0.142  10.782  21.242  0.00  0.00    +0.000 A 
ATOM      8  C   UNL     1       0.536  10.208  20.026  0.00  0.00    +0.000 A 
ATOM      9  N   UNL     1       1.638   9.437  19.715  0.00  0.00    +0.000 N 
ATOM     10  H   UNL     1       2.353   9.145  20.369  0.00  0.00    +0.000 HD
ENDROOT
BRANCH   1  12
ATOM     11  O   UNL     1       3.304   8.153  17.094  0.00  0.00    +0.000 OA
ATOM     12  C   UNL     1       2.395   7.921  17.880  0.00  0.00    +0.000 C 
ATOM     13  N   UNL     1       2.114   6.673  18.379  0.00  0.00    +0.000 N 
ATOM     14  H   UNL     1       1.233   6.541  18.849  0.00  0.00    +0.000 HD
BRANCH  13  15
ATOM     15  C   UNL     1       2.930   5.475  18.130  0.00  0.00    +0.000 C 
ATOM     16  C   UNL     1       3.951   5.358  19.275  0.00  0.00    +0.000 C 
ATOM     17  C   UNL     1       4.905   4.164  19.242  0.00  0.00    +0.000 C 
ATOM     18  C   UNL     1       4.339   2.762  19.492  0.00  0.00    +0.000 C 
ATOM     19  C   UNL     1       3.198   2.664  20.504  0.00  0.00    +0.000 C 
ATOM     20  C   UNL     1       1.807   2.560  19.876  0.00  0.00    +0.000 C 
ATOM     21  C   UNL     1       1.270   3.807  19.172  0.00  0.00    +0.000 C 
ATOM     22  C   UNL     1       2.041   4.246  17.922  0.00  0.00    +0.000 C 
ENDBRANCH  13  15
ENDBRANCH   1  12
BRANCH   4  23
ATOM     23  C   UNL     1      -2.450  10.949  17.734  0.00  0.00    +0.000 C 
ATOM     24  F   UNL     1      -1.957  11.553  16.619  0.00  0.00    +0.000 F 
ATOM     25  F   UNL     1      -2.812   9.696  17.340  0.00  0.00    +0.000 F 
ATOM     26  F   UNL     1      -3.613  11.601  18.018  0.00  0.00    +0.000 F 
ENDBRANCH   4  23
BRANCH   6  27
ATOM     27  C   UNL     1      -1.605  11.995  22.606  0.00  0.00    +0.000 C 
ATOM     28  F   UNL     1      -0.750  12.903  23.156  0.00  0.00    +0.000 F 
ATOM     29  F   UNL     1      -2.796  12.645  22.470  0.00  0.00    +0.000 F 
ATOM     30  F   UNL     1      -1.802  11.044  23.558  0.00  0.00    +0.000 F 
ENDBRANCH   6  27
TORSDOF 4
ENDMDL
MODEL 6
REMARK VINA RESULT:      -8.2      1.206      1.741
REMARK  Name = 
REMARK  4 active torsions:
REMARK  status: ('A' for Active; 'I' for Inactive)
REMARK    1  A    between atoms: C_2  and  C_12
REMARK    2  A    between atoms: N_3  and  C_4
REMARK    3  A    between atoms: C_15  and  C_16
REMARK    4  A    between atoms: C_21  and  C_22
REMARK                            x       y       z     vdW  Elec       q    Type
REMARK                         _______ _______ _______ _____ _____    ______ ____
ROOT
ATOM      1  C   UNL     1       1.738   7.123  20.484  0.00  0.00    +0.000 A 
ATOM      2  C   UNL     1       1.614   5.757  20.639  0.00  0.00    +0.000 A 
ATOM      3  C   UNL     1       2.460   5.118  19.697  0.00  0.00    +0.000 A 
ATOM      4  C   UNL     1       2.583   3.780  19.265  0.00  0.00    +0.000 A 
ATOM      5  C   UNL     1       3.532   3.511  18.251  0.00  0.00    +0.000 A 
ATOM      6  C   UNL     1       4.333   4.517  17.687  0.00  0.00    +0.000 A 
ATOM      7  C   UNL     1       4.194   5.846  18.125  0.00  0.00    +0.000 A 
ATOM      8  C   UNL     1       3.233   6.118  19.108  0.00  0.00    +0.000 A 
ATOM      9  N   UNL     1       2.808   7.320  19.636  0.00  0.00    +0.000 N 
ATOM     10  H   UNL     1       3.140   8.234  19.355  0.00  0.00    +0.000 HD
ENDROOT
BRANCH   1  12
ATOM     11  O   UNL     1       0.167   8.053  21.958  0.00  0.00    +0.000 OA
ATOM     12  C   UNL     1       0.892   8.191  20.982  0.00  0.00    +0.000 C 
ATOM     13  N   UNL     1       1.032   9.372  20.294  0.00  0.00    +0.000 N 
ATOM     14  H   UNL     1       1.482   9.342  19.393  0.00  0.00    +0.000 HD
BRANCH  13  15
ATOM     15  C   UNL     1       0.426  10.649  20.701  0.00  0.00    +0.000 C 
ATOM     16  C   UNL     1       1.384  11.776  20.279  0.00  0.00    +0.000 C 
ATOM     17  C   UNL     1       0.951  13.211  20.583  0.00  0.00    +0.000 C 
ATOM     18  C   UNL     1      -0.226  13.806  19.803  0.00  0.00    +0.000 C 
ATOM     19  C   UNL     1      -0.356  13.376  18.342  0.00  0.00    +0.000 C 
ATOM     20  C   UNL     1      -1.402  12.286  18.097  0.00  0.00    +0.000 C 
ATOM     21  C   UNL     1      -1.087  10.890  18.633  0.00  0.00    +0.000 C 
ATOM     22  C   UNL     1      -1.000  10.769  20.159  0.00  0.00    +0.000 C 
ENDBRANCH  13  15
ENDBRANCH   1  12
BRANCH   4  23
ATOM     23  C   UNL     1       1.695   2.665  19.763  0.00  0.00    +0.000 C 
ATOM     24  F   UNL     1       0.366   2.859  19.542  0.00  0.00    +0.000 F 
ATOM     25  F   UNL     1       1.991   1.471  19.176  0.00  0.00    +0.000 F 
ATOM     26  F   UNL     1       1.817   2.462  21.105  0.00  0.00    +0.000 F 
ENDBRANCH   4  23
BRANCH   6  27
ATOM     27  C   UNL     1       5.313   4.189  16.580  0.00  0.00    +0.000 C 
ATOM     28  F   UNL     1       6.612   4.423  16.919  0.00  0.00    +0.000 F 
ATOM     29  F   UNL     1       5.258   2.877  16.211  0.00  0.00    +0.000 F 
ATOM     30  F   UNL     1       5.087   4.907  15.448  0.00  0.00    +0.000 F 
ENDBRANCH   6  27
TORSDOF 4
ENDMDL
MODEL 7
REMARK VINA RESULT:      -8.2      1.223      1.627
REMARK  Name = 
REMARK  4 active torsions:
REMARK  status: ('A' for Active; 'I' for Inactive)
REMARK    1  A    between atoms: C_2  and  C_12
REMARK    2  A    between atoms: N_3  and  C_4
REMARK    3  A    between atoms: C_15  and  C_16
REMARK    4  A    between atoms: C_21  and  C_22
REMARK                            x       y       z     vdW  Elec       q    Type
REMARK                         _______ _______ _______ _____ _____    ______ ____
ROOT
ATOM      1  C   UNL     1       1.725   7.161  20.483  0.00  0.00    +0.000 A 
ATOM      2  C   UNL     1       1.599   5.797  20.652  0.00  0.00    +0.000 A 
ATOM      3  C   UNL     1       2.442   5.147  19.715  0.00  0.00    +0.000 A 
ATOM      4  C   UNL     1       2.562   3.805  19.297  0.00  0.00    +0.000 A 
ATOM      5  C   UNL     1       3.508   3.523  18.284  0.00  0.00    +0.000 A 
ATOM      6  C   UNL     1       4.310   4.522  17.709  0.00  0.00    +0.000 A 
ATOM      7  C   UNL     1       4.175   5.856  18.133  0.00  0.00    +0.000 A 
ATOM      8  C   UNL     1       3.217   6.139  19.115  0.00  0.00    +0.000 A 
ATOM      9  N   UNL     1       2.794   7.347  19.632  0.00  0.00    +0.000 N 
ATOM     10  H   UNL     1       3.128   8.258  19.342  0.00  0.00    +0.000 HD
ENDROOT
BRANCH   1  12
ATOM     11  O   UNL     1       0.140   8.101  21.934  0.00  0.00    +0.000 OA
ATOM     12  C   UNL     1       0.882   8.236  20.971  0.00  0.00    +0.000 C 
ATOM     13  N   UNL     1       1.047   9.418  20.291  0.00  0.00    +0.000 N 
ATOM     14  H   UNL     1       1.511   9.387  19.398  0.00  0.00    +0.000 HD
BRANCH  13  15
ATOM     15  C   UNL     1       0.447  10.700  20.694  0.00  0.00    +0.000 C 
ATOM     16  C   UNL     1       1.412  11.821  20.270  0.00  0.00    +0.000 C 
ATOM     17  C   UNL     1       0.987  13.258  20.569  0.00  0.00    +0.000 C 
ATOM     18  C   UNL     1      -0.186  13.858  19.786  0.00  0.00    +0.000 C 
ATOM     19  C   UNL     1      -0.316  13.425  18.326  0.00  0.00    +0.000 C 
ATOM     20  C   UNL     1      -1.368  12.340  18.083  0.00  0.00    +0.000 C 
ATOM     21  C   UNL     1      -1.061  10.944  18.623  0.00  0.00    +0.000 C 
ATOM     22  C   UNL     1      -0.978  10.827  20.149  0.00  0.00    +0.000 C 
ENDBRANCH  13  15
ENDBRANCH   1  12
BRANCH   4  23
ATOM     23  C   UNL     1       1.672   2.696  19.807  0.00  0.00    +0.000 C 
ATOM     24  F   UNL     1       1.905   1.479  19.245  0.00  0.00    +0.000 F 
ATOM     25  F   UNL     1       1.804   2.508  21.150  0.00  0.00    +0.000 F 
ATOM     26  F   UNL     1       0.350   2.951  19.594  0.00  0.00    +0.000 F 
ENDBRANCH   4  23
BRANCH   6  27
ATOM     27  C   UNL     1       5.288   4.181  16.604  0.00  0.00    +0.000 C 
ATOM     28  F   UNL     1       5.235   2.874  16.217  0.00  0.00    +0.000 F 
ATOM     29  F   UNL     1       5.068   4.910  15.473  0.00  0.00    +0.000 F 
ATOM     30  F   UNL     1       6.581   4.413  16.956  0.00  0.00    +0.000 F 
ENDBRANCH   6  27
TORSDOF 4
ENDMDL
MODEL 8
REMARK VINA RESULT:      -8.1      1.734      2.473
REMARK  Name = 
REMARK  4 active torsions:
REMARK  status: ('A' for Active; 'I' for Inactive)
REMARK    1  A    between atoms: C_2  and  C_12
REMARK    2  A    between atoms: N_3  and  C_4
REMARK    3  A    between atoms: C_15  and  C_16
REMARK    4  A    between atoms: C_21  and  C_22
REMARK                            x       y       z     vdW  Elec       q    Type
REMARK                         _______ _______ _______ _____ _____    ______ ____
ROOT
ATOM      1  C   UNL     1       1.109   7.931  20.703  0.00  0.00    +0.000 A 
ATOM      2  C   UNL     1       1.343   6.630  21.099  0.00  0.00    +0.000 A 
ATOM      3  C   UNL     1       2.177   6.008  20.135  0.00  0.00    +0.000 A 
ATOM      4  C   UNL     1       2.558   4.668  19.914  0.00  0.00    +0.000 A 
ATOM      5  C   UNL     1       3.390   4.406  18.800  0.00  0.00    +0.000 A 
ATOM      6  C   UNL     1       3.836   5.425  17.941  0.00  0.00    +0.000 A 
ATOM      7  C   UNL     1       3.443   6.754  18.173  0.00  0.00    +0.000 A 
ATOM      8  C   UNL     1       2.593   7.009  19.259  0.00  0.00    +0.000 A 
ATOM      9  N   UNL     1       1.968   8.175  19.652  0.00  0.00    +0.000 N 
ATOM     10  H   UNL     1       2.026   9.063  19.169  0.00  0.00    +0.000 HD
ENDROOT
BRANCH   1  12
ATOM     11  O   UNL     1      -0.540   8.693  22.188  0.00  0.00    +0.000 OA
ATOM     12  C   UNL     1       0.109   8.875  21.166  0.00  0.00    +0.000 C 
ATOM     13  N   UNL     1       0.010  10.001  20.387  0.00  0.00    +0.000 N 
ATOM     14  H   UNL     1       0.421   9.976  19.467  0.00  0.00    +0.000 HD
BRANCH  13  15
ATOM     15  C   UNL     1      -0.795  11.183  20.731  0.00  0.00    +0.000 C 
ATOM     16  C   UNL     1       0.078  12.108  21.597  0.00  0.00    +0.000 C 
ATOM     17  C   UNL     1      -0.546  13.423  22.062  0.00  0.00    +0.000 C 
ATOM     18  C   UNL     1      -0.821  14.516  21.024  0.00  0.00    +0.000 C 
ATOM     19  C   UNL     1       0.190  14.636  19.885  0.00  0.00    +0.000 C 
ATOM     20  C   UNL     1      -0.260  13.987  18.574  0.00  0.00    +0.000 C 
ATOM     21  C   UNL     1      -0.331  12.460  18.546  0.00  0.00    +0.000 C 
ATOM     22  C   UNL     1      -1.377  11.829  19.471  0.00  0.00    +0.000 C 
ENDBRANCH  13  15
ENDBRANCH   1  12
BRANCH   4  23
ATOM     23  C   UNL     1       2.046   3.514  20.742  0.00  0.00    +0.000 C 
ATOM     24  F   UNL     1       2.498   2.291  20.351  0.00  0.00    +0.000 F 
ATOM     25  F   UNL     1       2.395   3.628  22.054  0.00  0.00    +0.000 F 
ATOM     26  F   UNL     1       0.686   3.424  20.724  0.00  0.00    +0.000 F 
ENDBRANCH   4  23
BRANCH   6  27
ATOM     27  C   UNL     1       4.699   5.095  16.742  0.00  0.00    +0.000 C 
ATOM     28  F   UNL     1       4.773   6.107  15.832  0.00  0.00    +0.000 F 
ATOM     29  F   UNL     1       5.988   4.818  17.091  0.00  0.00    +0.000 F 
ATOM     30  F   UNL     1       4.254   4.007  16.057  0.00  0.00    +0.000 F 
ENDBRANCH   6  27
TORSDOF 4
ENDMDL
MODEL 9
REMARK VINA RESULT:      -8.1      5.461      9.501
REMARK  Name = 
REMARK  4 active torsions:
REMARK  status: ('A' for Active; 'I' for Inactive)
REMARK    1  A    between atoms: C_2  and  C_12
REMARK    2  A    between atoms: N_3  and  C_4
REMARK    3  A    between atoms: C_15  and  C_16
REMARK    4  A    between atoms: C_21  and  C_22
REMARK                            x       y       z     vdW  Elec       q    Type
REMARK                         _______ _______ _______ _____ _____    ______ ____
ROOT
ATOM      1  C   UNL     1       1.625   9.228  19.034  0.00  0.00    +0.000 A 
ATOM      2  C   UNL     1       1.423  10.543  18.666  0.00  0.00    +0.000 A 
ATOM      3  C   UNL     1       0.532  11.139  19.595  0.00  0.00    +0.000 A 
ATOM      4  C   UNL     1      -0.175  12.359  19.603  0.00  0.00    +0.000 A 
ATOM      5  C   UNL     1      -1.027  12.608  20.704  0.00  0.00    +0.000 A 
ATOM      6  C   UNL     1      -1.173  11.694  21.761  0.00  0.00    +0.000 A 
ATOM      7  C   UNL     1      -0.464  10.480  21.735  0.00  0.00    +0.000 A 
ATOM      8  C   UNL     1       0.356  10.220  20.629  0.00  0.00    +0.000 A 
ATOM      9  N   UNL     1       1.066   9.088  20.287  0.00  0.00    +0.000 N 
ATOM     10  H   UNL     1       1.080   8.223  20.813  0.00  0.00    +0.000 HD
ENDROOT
BRANCH   1  12
ATOM     11  O   UNL     1       2.660   8.283  17.153  0.00  0.00    +0.000 OA
ATOM     12  C   UNL     1       2.195   8.131  18.274  0.00  0.00    +0.000 C 
ATOM     13  N   UNL     1       2.215   6.939  18.956  0.00  0.00    +0.000 N 
ATOM     14  H   UNL     1       1.634   6.855  19.775  0.00  0.00    +0.000 HD
BRANCH  13  15
ATOM     15  C   UNL     1       2.893   5.722  18.485  0.00  0.00    +0.000 C 
ATOM     16  C   UNL     1       4.037   5.414  19.466  0.00  0.00    +0.000 C 
ATOM     17  C   UNL     1       4.878   4.168  19.189  0.00  0.00    +0.000 C 
ATOM     18  C   UNL     1       4.237   2.789  19.374  0.00  0.00    +0.000 C 
ATOM     19  C   UNL     1       3.229   2.661  20.517  0.00  0.00    +0.000 C 
ATOM     20  C   UNL     1       1.765   2.720  20.074  0.00  0.00    +0.000 C 
ATOM     21  C   UNL     1       1.248   4.069  19.573  0.00  0.00    +0.000 C 
ATOM     22  C   UNL     1       1.887   4.586  18.280  0.00  0.00    +0.000 C 
ENDBRANCH  13  15
ENDBRANCH   1  12
BRANCH   4  23
ATOM     23  C   UNL     1      -0.135  13.347  18.461  0.00  0.00    +0.000 C 
ATOM     24  F   UNL     1       1.109  13.593  17.968  0.00  0.00    +0.000 F 
ATOM     25  F   UNL     1      -0.873  12.929  17.394  0.00  0.00    +0.000 F 
ATOM     26  F   UNL     1      -0.638  14.565  18.808  0.00  0.00    +0.000 F 
ENDBRANCH   4  23
BRANCH   6  27
ATOM     27  C   UNL     1      -2.121  11.987  22.905  0.00  0.00    +0.000 C 
ATOM     28  F   UNL     1      -3.387  12.286  22.497  0.00  0.00    +0.000 F 
ATOM     29  F   UNL     1      -2.248  10.930  23.757  0.00  0.00    +0.000 F 
ATOM     30  F   UNL     1      -1.716  13.038  23.667  0.00  0.00    +0.000 F 
ENDBRANCH   6  27
TORSDOF 4
ENDMDL
