MODEL 1
REMARK VINA RESULT:      -7.4      0.000      0.000
REMARK  Name = 
REMARK  6 active torsions:
REMARK  status: ('A' for Active; 'I' for Inactive)
REMARK    1  A    between atoms: C_1  and  C_2
REMARK    2  A    between atoms: C_2  and  O_3
REMARK    3  A    between atoms: O_3  and  C_4
REMARK    4  A    between atoms: C_6  and  C_7
REMARK    5  A    between atoms: C_18  and  C_19
REMARK    6  A    between atoms: C_19  and  C_20
REMARK                            x       y       z     vdW  Elec       q    Type
REMARK                         _______ _______ _______ _____ _____    ______ ____
ROOT
ATOM      1  C   UNL     1       4.652   6.514  17.004  0.00  0.00    +0.000 A 
ATOM      2  C   UNL     1       3.847   7.577  17.432  0.00  0.00    +0.000 A 
ATOM      3  C   UNL     1       2.697   7.331  18.155  0.00  0.00    +0.000 A 
ATOM      4  N   UNL     1       2.295   6.071  18.399  0.00  0.00    +0.000 NA
ATOM      5  C   UNL     1       2.999   5.042  17.902  0.00  0.00    +0.000 A 
ATOM      6  C   UNL     1       2.476   3.795  18.184  0.00  0.00    +0.000 A 
ATOM      7  C   UNL     1       3.072   2.626  17.738  0.00  0.00    +0.000 A 
ATOM      8  C   UNL     1       4.225   2.699  16.975  0.00  0.00    +0.000 A 
ATOM      9  C   UNL     1       4.813   3.941  16.659  0.00  0.00    +0.000 A 
ATOM     10  C   UNL     1       4.202   5.162  17.155  0.00  0.00    +0.000 A 
ENDROOT
BRANCH   3  11
ATOM     11  C   UNL     1       1.929   8.418  18.798  0.00  0.00    +0.000 A 
ATOM     12  C   UNL     1       1.557   8.371  20.157  0.00  0.00    +0.000 A 
ATOM     13  C   UNL     1       0.742   9.354  20.724  0.00  0.00    +0.000 A 
ATOM     14  C   UNL     1       0.295  10.419  19.946  0.00  0.00    +0.000 A 
ATOM     15  C   UNL     1       0.664  10.503  18.610  0.00  0.00    +0.000 A 
ATOM     16  C   UNL     1       1.477   9.517  18.045  0.00  0.00    +0.000 A 
ENDBRANCH   3  11
BRANCH   9  17
ATOM     17  C   UNL     1       6.041   3.973  15.760  0.00  0.00    +0.000 C 
ATOM     18  C   UNL     1       5.806   4.094  14.250  0.00  0.00    +0.000 C 
ENDBRANCH   9  17
BRANCH   1  19
ATOM     19  O   UNL     1       5.913   6.762  16.485  0.00  0.00    +0.000 OA
BRANCH  19  21
ATOM     20  C   UNL     1       7.568   6.339  18.233  0.00  0.00    +0.000 C 
ATOM     21  C   UNL     1       6.832   7.376  17.409  0.00  0.00    +0.000 C 
ENDBRANCH  19  21
ENDBRANCH   1  19
TORSDOF 4
ENDMDL
MODEL 2
REMARK VINA RESULT:      -7.4      0.150      1.057
REMARK  Name = 
REMARK  6 active torsions:
REMARK  status: ('A' for Active; 'I' for Inactive)
REMARK    1  A    between atoms: C_1  and  C_2
REMARK    2  A    between atoms: C_2  and  O_3
REMARK    3  A    between atoms: O_3  and  C_4
REMARK    4  A    between atoms: C_6  and  C_7
REMARK    5  A    between atoms: C_18  and  C_19
REMARK    6  A    between atoms: C_19  and  C_20
REMARK                            x       y       z     vdW  Elec       q    Type
REMARK                         _______ _______ _______ _____ _____    ______ ____
ROOT
ATOM      1  C   UNL     1       4.660   6.548  16.996  0.00  0.00    +0.000 A 
ATOM      2  C   UNL     1       3.856   7.619  17.406  0.00  0.00    +0.000 A 
ATOM      3  C   UNL     1       2.697   7.385  18.119  0.00  0.00    +0.000 A 
ATOM      4  N   UNL     1       2.286   6.129  18.370  0.00  0.00    +0.000 NA
ATOM      5  C   UNL     1       2.991   5.093  17.890  0.00  0.00    +0.000 A 
ATOM      6  C   UNL     1       2.458   3.850  18.177  0.00  0.00    +0.000 A 
ATOM      7  C   UNL     1       3.053   2.674  17.747  0.00  0.00    +0.000 A 
ATOM      8  C   UNL     1       4.214   2.735  16.996  0.00  0.00    +0.000 A 
ATOM      9  C   UNL     1       4.811   3.972  16.675  0.00  0.00    +0.000 A 
ATOM     10  C   UNL     1       4.202   5.200  17.154  0.00  0.00    +0.000 A 
ENDROOT
BRANCH   3  11
ATOM     11  C   UNL     1       1.927   8.482  18.745  0.00  0.00    +0.000 A 
ATOM     12  C   UNL     1       1.644   9.682  18.065  0.00  0.00    +0.000 A 
ATOM     13  C   UNL     1       1.006  10.749  18.703  0.00  0.00    +0.000 A 
ATOM     14  C   UNL     1       0.622  10.630  20.036  0.00  0.00    +0.000 A 
ATOM     15  C   UNL     1       0.868   9.449  20.726  0.00  0.00    +0.000 A 
ATOM     16  C   UNL     1       1.508   8.386  20.085  0.00  0.00    +0.000 A 
ENDBRANCH   3  11
BRANCH   9  17
ATOM     17  C   UNL     1       6.049   3.990  15.789  0.00  0.00    +0.000 C 
ATOM     18  C   UNL     1       5.831   4.100  14.276  0.00  0.00    +0.000 C 
ENDBRANCH   9  17
BRANCH   1  19
ATOM     19  O   UNL     1       5.927   6.786  16.488  0.00  0.00    +0.000 OA
BRANCH  19  21
ATOM     20  C   UNL     1       7.584   6.370  18.236  0.00  0.00    +0.000 C 
ATOM     21  C   UNL     1       6.839   7.404  17.416  0.00  0.00    +0.000 C 
ENDBRANCH  19  21
ENDBRANCH   1  19
TORSDOF 4
ENDMDL
MODEL 3
REMARK VINA RESULT:      -7.3      2.290      6.623
REMARK  Name = 
REMARK  6 active torsions:
REMARK  status: ('A' for Active; 'I' for Inactive)
REMARK    1  A    between atoms: C_1  and  C_2
REMARK    2  A    between atoms: C_2  and  O_3
REMARK    3  A    between atoms: O_3  and  C_4
REMARK    4  A    between atoms: C_6  and  C_7
REMARK    5  A    between atoms: C_18  and  C_19
REMARK    6  A    between atoms: C_19  and  C_20
REMARK                            x       y       z     vdW  Elec       q    Type
REMARK                         _______ _______ _______ _____ _____    ______ ____
ROOT
ATOM      1  C   UNL     1       4.209   4.010  18.147  0.00  0.00    +0.000 A 
ATOM      2  C   UNL     1       4.827   3.741  16.919  0.00  0.00    +0.000 A 
ATOM      3  C   UNL     1       5.027   4.756  16.005  0.00  0.00    +0.000 A 
ATOM      4  N   UNL     1       4.570   5.998  16.247  0.00  0.00    +0.000 NA
ATOM      5  C   UNL     1       3.880   6.244  17.372  0.00  0.00    +0.000 A 
ATOM      6  C   UNL     1       3.429   7.544  17.499  0.00  0.00    +0.000 A 
ATOM      7  C   UNL     1       2.691   7.965  18.595  0.00  0.00    +0.000 A 
ATOM      8  C   UNL     1       2.382   7.060  19.595  0.00  0.00    +0.000 A 
ATOM      9  C   UNL     1       2.820   5.721  19.527  0.00  0.00    +0.000 A 
ATOM     10  C   UNL     1       3.619   5.292  18.393  0.00  0.00    +0.000 A 
ENDROOT
BRANCH   3  11
ATOM     11  C   UNL     1       5.850   4.568  14.792  0.00  0.00    +0.000 A 
ATOM     12  C   UNL     1       7.073   5.241  14.603  0.00  0.00    +0.000 A 
ATOM     13  C   UNL     1       7.788   5.134  13.407  0.00  0.00    +0.000 A 
ATOM     14  C   UNL     1       7.301   4.333  12.378  0.00  0.00    +0.000 A 
ATOM     15  C   UNL     1       6.109   3.639  12.544  0.00  0.00    +0.000 A 
ATOM     16  C   UNL     1       5.396   3.751  13.740  0.00  0.00    +0.000 A 
ENDBRANCH   3  11
BRANCH   9  17
ATOM     17  C   UNL     1       2.397   4.746  20.618  0.00  0.00    +0.000 C 
ATOM     18  C   UNL     1       0.988   4.149  20.522  0.00  0.00    +0.000 C 
ENDBRANCH   9  17
BRANCH   1  19
ATOM     19  O   UNL     1       4.215   3.054  19.151  0.00  0.00    +0.000 OA
BRANCH  19  21
ATOM     20  C   UNL     1       2.325   1.804  18.235  0.00  0.00    +0.000 C 
ATOM     21  C   UNL     1       3.752   1.753  18.744  0.00  0.00    +0.000 C 
ENDBRANCH  19  21
ENDBRANCH   1  19
TORSDOF 4
ENDMDL
MODEL 4
REMARK VINA RESULT:      -7.2      2.318      6.642
REMARK  Name = 
REMARK  6 active torsions:
REMARK  status: ('A' for Active; 'I' for Inactive)
REMARK    1  A    between atoms: C_1  and  C_2
REMARK    2  A    between atoms: C_2  and  O_3
REMARK    3  A    between atoms: O_3  and  C_4
REMARK    4  A    between atoms: C_6  and  C_7
REMARK    5  A    between atoms: C_18  and  C_19
REMARK    6  A    between atoms: C_19  and  C_20
REMARK                            x       y       z     vdW  Elec       q    Type
REMARK                         _______ _______ _______ _____ _____    ______ ____
ROOT
ATOM      1  C   UNL     1       4.176   3.950  18.042  0.00  0.00    +0.000 A 
ATOM      2  C   UNL     1       4.758   3.720  16.789  0.00  0.00    +0.000 A 
ATOM      3  C   UNL     1       4.941   4.765  15.906  0.00  0.00    +0.000 A 
ATOM      4  N   UNL     1       4.502   6.001  16.204  0.00  0.00    +0.000 NA
ATOM      5  C   UNL     1       3.846   6.213  17.355  0.00  0.00    +0.000 A 
ATOM      6  C   UNL     1       3.410   7.511  17.541  0.00  0.00    +0.000 A 
ATOM      7  C   UNL     1       2.707   7.900  18.671  0.00  0.00    +0.000 A 
ATOM      8  C   UNL     1       2.418   6.962  19.647  0.00  0.00    +0.000 A 
ATOM      9  C   UNL     1       2.842   5.623  19.520  0.00  0.00    +0.000 A 
ATOM     10  C   UNL     1       3.605   5.227  18.350  0.00  0.00    +0.000 A 
ENDROOT
BRANCH   3  11
ATOM     11  C   UNL     1       5.729   4.613  14.664  0.00  0.00    +0.000 A 
ATOM     12  C   UNL     1       5.310   3.778  13.608  0.00  0.00    +0.000 A 
ATOM     13  C   UNL     1       6.115   3.563  12.486  0.00  0.00    +0.000 A 
ATOM     14  C   UNL     1       7.351   4.195  12.388  0.00  0.00    +0.000 A 
ATOM     15  C   UNL     1       7.780   5.041  13.403  0.00  0.00    +0.000 A 
ATOM     16  C   UNL     1       6.975   5.251  14.525  0.00  0.00    +0.000 A 
ENDBRANCH   3  11
BRANCH   9  17
ATOM     17  C   UNL     1       2.440   4.614  20.587  0.00  0.00    +0.000 C 
ATOM     18  C   UNL     1       1.002   4.082  20.549  0.00  0.00    +0.000 C 
ENDBRANCH   9  17
BRANCH   1  19
ATOM     19  O   UNL     1       4.201   2.959  19.012  0.00  0.00    +0.000 OA
BRANCH  19  21
ATOM     20  C   UNL     1       2.206   1.826  18.170  0.00  0.00    +0.000 C 
ATOM     21  C   UNL     1       3.656   1.694  18.591  0.00  0.00    +0.000 C 
ENDBRANCH  19  21
ENDBRANCH   1  19
TORSDOF 4
ENDMDL
MODEL 5
REMARK VINA RESULT:      -7.1      2.125      3.770
REMARK  Name = 
REMARK  6 active torsions:
REMARK  status: ('A' for Active; 'I' for Inactive)
REMARK    1  A    between atoms: C_1  and  C_2
REMARK    2  A    between atoms: C_2  and  O_3
REMARK    3  A    between atoms: O_3  and  C_4
REMARK    4  A    between atoms: C_6  and  C_7
REMARK    5  A    between atoms: C_18  and  C_19
REMARK    6  A    between atoms: C_19  and  C_20
REMARK                            x       y       z     vdW  Elec       q    Type
REMARK                         _______ _______ _______ _____ _____    ______ ____
ROOT
ATOM      1  C   UNL     1       2.557   4.996  20.146  0.00  0.00    +0.000 A 
ATOM      2  C   UNL     1       1.950   6.136  20.688  0.00  0.00    +0.000 A 
ATOM      3  C   UNL     1       2.000   7.338  20.012  0.00  0.00    +0.000 A 
ATOM      4  N   UNL     1       2.690   7.452  18.863  0.00  0.00    +0.000 NA
ATOM      5  C   UNL     1       3.367   6.394  18.388  0.00  0.00    +0.000 A 
ATOM      6  C   UNL     1       4.068   6.634  17.222  0.00  0.00    +0.000 A 
ATOM      7  C   UNL     1       4.828   5.655  16.602  0.00  0.00    +0.000 A 
ATOM      8  C   UNL     1       4.903   4.393  17.168  0.00  0.00    +0.000 A 
ATOM      9  C   UNL     1       4.205   4.083  18.354  0.00  0.00    +0.000 A 
ATOM     10  C   UNL     1       3.384   5.104  18.982  0.00  0.00    +0.000 A 
ENDROOT
BRANCH   3  11
ATOM     11  C   UNL     1       1.209   8.512  20.439  0.00  0.00    +0.000 A 
ATOM     12  C   UNL     1       0.673   8.623  21.738  0.00  0.00    +0.000 A 
ATOM     13  C   UNL     1      -0.160   9.687  22.094  0.00  0.00    +0.000 A 
ATOM     14  C   UNL     1      -0.461  10.675  21.161  0.00  0.00    +0.000 A 
ATOM     15  C   UNL     1       0.071  10.603  19.879  0.00  0.00    +0.000 A 
ATOM     16  C   UNL     1       0.901   9.537  19.526  0.00  0.00    +0.000 A 
ENDBRANCH   3  11
BRANCH   9  17
ATOM     17  C   UNL     1       4.374   2.703  18.974  0.00  0.00    +0.000 C 
ATOM     18  C   UNL     1       3.656   1.532  18.294  0.00  0.00    +0.000 C 
ENDBRANCH   9  17
BRANCH   1  19
ATOM     19  O   UNL     1       2.313   3.749  20.701  0.00  0.00    +0.000 OA
BRANCH  19  21
ATOM     20  C   UNL     1       0.567   2.881  19.228  0.00  0.00    +0.000 C 
ATOM     21  C   UNL     1       0.941   3.319  20.629  0.00  0.00    +0.000 C 
ENDBRANCH  19  21
ENDBRANCH   1  19
TORSDOF 4
ENDMDL
MODEL 6
REMARK VINA RESULT:      -7.0      2.039      6.248
REMARK  Name = 
REMARK  6 active torsions:
REMARK  status: ('A' for Active; 'I' for Inactive)
REMARK    1  A    between atoms: C_1  and  C_2
REMARK    2  A    between atoms: C_2  and  O_3
REMARK    3  A    between atoms: O_3  and  C_4
REMARK    4  A    between atoms: C_6  and  C_7
REMARK    5  A    between atoms: C_18  and  C_19
REMARK    6  A    between atoms: C_19  and  C_20
REMARK                            x       y       z     vdW  Elec       q    Type
REMARK                         _______ _______ _______ _____ _____    ______ ____
ROOT
ATOM      1  C   UNL     1       4.177   5.579  17.768  0.00  0.00    +0.000 A 
ATOM      2  C   UNL     1       4.979   5.569  16.620  0.00  0.00    +0.000 A 
ATOM      3  C   UNL     1       5.141   4.405  15.895  0.00  0.00    +0.000 A 
ATOM      4  N   UNL     1       4.593   3.251  16.317  0.00  0.00    +0.000 NA
ATOM      5  C   UNL     1       3.912   3.224  17.473  0.00  0.00    +0.000 A 
ATOM      6  C   UNL     1       3.423   1.980  17.825  0.00  0.00    +0.000 A 
ATOM      7  C   UNL     1       2.707   1.772  18.994  0.00  0.00    +0.000 A 
ATOM      8  C   UNL     1       2.476   2.837  19.848  0.00  0.00    +0.000 A 
ATOM      9  C   UNL     1       2.942   4.132  19.541  0.00  0.00    +0.000 A 
ATOM     10  C   UNL     1       3.665   4.352  18.301  0.00  0.00    +0.000 A 
ENDROOT
BRANCH   3  11
ATOM     11  C   UNL     1       5.806   4.390  14.575  0.00  0.00    +0.000 A 
ATOM     12  C   UNL     1       5.315   3.627  13.496  0.00  0.00    +0.000 A 
ATOM     13  C   UNL     1       6.010   3.541  12.288  0.00  0.00    +0.000 A 
ATOM     14  C   UNL     1       7.208   4.232  12.126  0.00  0.00    +0.000 A 
ATOM     15  C   UNL     1       7.706   5.009  13.164  0.00  0.00    +0.000 A 
ATOM     16  C   UNL     1       7.009   5.092  14.372  0.00  0.00    +0.000 A 
ENDBRANCH   3  11
BRANCH   9  17
ATOM     17  C   UNL     1       2.723   5.256  20.545  0.00  0.00    +0.000 C 
ATOM     18  C   UNL     1       1.308   5.835  20.657  0.00  0.00    +0.000 C 
ENDBRANCH   9  17
BRANCH   1  19
ATOM     19  O   UNL     1       3.828   6.782  18.360  0.00  0.00    +0.000 OA
BRANCH  19  21
ATOM     20  C   UNL     1       2.032   8.390  17.956  0.00  0.00    +0.000 C 
ATOM     21  C   UNL     1       3.321   7.775  17.449  0.00  0.00    +0.000 C 
ENDBRANCH  19  21
ENDBRANCH   1  19
TORSDOF 4
ENDMDL
MODEL 7
REMARK VINA RESULT:      -7.0      2.137      3.715
REMARK  Name = 
REMARK  6 active torsions:
REMARK  status: ('A' for Active; 'I' for Inactive)
REMARK    1  A    between atoms: C_1  and  C_2
REMARK    2  A    between atoms: C_2  and  O_3
REMARK    3  A    between atoms: O_3  and  C_4
REMARK    4  A    between atoms: C_6  and  C_7
REMARK    5  A    between atoms: C_18  and  C_19
REMARK    6  A    between atoms: C_19  and  C_20
REMARK                            x       y       z     vdW  Elec       q    Type
REMARK                         _______ _______ _______ _____ _____    ______ ____
ROOT
ATOM      1  C   UNL     1       1.853   4.631  19.384  0.00  0.00    +0.000 A 
ATOM      2  C   UNL     1       1.496   5.771  20.115  0.00  0.00    +0.000 A 
ATOM      3  C   UNL     1       2.012   7.005  19.773  0.00  0.00    +0.000 A 
ATOM      4  N   UNL     1       2.916   7.122  18.784  0.00  0.00    +0.000 NA
ATOM      5  C   UNL     1       3.348   6.022  18.147  0.00  0.00    +0.000 A 
ATOM      6  C   UNL     1       4.301   6.256  17.174  0.00  0.00    +0.000 A 
ATOM      7  C   UNL     1       4.862   5.231  16.428  0.00  0.00    +0.000 A 
ATOM      8  C   UNL     1       4.468   3.924  16.664  0.00  0.00    +0.000 A 
ATOM      9  C   UNL     1       3.494   3.621  17.638  0.00  0.00    +0.000 A 
ATOM     10  C   UNL     1       2.887   4.701  18.396  0.00  0.00    +0.000 A 
ENDROOT
BRANCH   3  11
ATOM     11  C   UNL     1       1.514   8.258  20.379  0.00  0.00    +0.000 A 
ATOM     12  C   UNL     1       1.297   8.387  21.765  0.00  0.00    +0.000 A 
ATOM     13  C   UNL     1       0.728   9.541  22.311  0.00  0.00    +0.000 A 
ATOM     14  C   UNL     1       0.380  10.601  21.479  0.00  0.00    +0.000 A 
ATOM     15  C   UNL     1       0.602  10.512  20.111  0.00  0.00    +0.000 A 
ATOM     16  C   UNL     1       1.169   9.356  19.569  0.00  0.00    +0.000 A 
ENDBRANCH   3  11
BRANCH   9  17
ATOM     17  C   UNL     1       3.145   2.164  17.909  0.00  0.00    +0.000 C 
ATOM     18  C   UNL     1       4.129   1.350  18.758  0.00  0.00    +0.000 C 
ENDBRANCH   9  17
BRANCH   1  19
ATOM     19  O   UNL     1       1.166   3.442  19.574  0.00  0.00    +0.000 OA
BRANCH  19  21
ATOM     20  C   UNL     1       2.396   2.736  21.564  0.00  0.00    +0.000 C 
ATOM     21  C   UNL     1       1.043   3.033  20.949  0.00  0.00    +0.000 C 
ENDBRANCH  19  21
ENDBRANCH   1  19
TORSDOF 4
ENDMDL
MODEL 8
REMARK VINA RESULT:      -7.0      2.102      3.947
REMARK  Name = 
REMARK  6 active torsions:
REMARK  status: ('A' for Active; 'I' for Inactive)
REMARK    1  A    between atoms: C_1  and  C_2
REMARK    2  A    between atoms: C_2  and  O_3
REMARK    3  A    between atoms: O_3  and  C_4
REMARK    4  A    between atoms: C_6  and  C_7
REMARK    5  A    between atoms: C_18  and  C_19
REMARK    6  A    between atoms: C_19  and  C_20
REMARK                            x       y       z     vdW  Elec       q    Type
REMARK                         _______ _______ _______ _____ _____    ______ ____
ROOT
ATOM      1  C   UNL     1       2.488   5.153  20.108  0.00  0.00    +0.000 A 
ATOM      2  C   UNL     1       1.862   6.249  20.714  0.00  0.00    +0.000 A 
ATOM      3  C   UNL     1       1.891   7.489  20.107  0.00  0.00    +0.000 A 
ATOM      4  N   UNL     1       2.578   7.680  18.966  0.00  0.00    +0.000 NA
ATOM      5  C   UNL     1       3.272   6.663  18.432  0.00  0.00    +0.000 A 
ATOM      6  C   UNL     1       3.967   6.981  17.281  0.00  0.00    +0.000 A 
ATOM      7  C   UNL     1       4.744   6.051  16.606  0.00  0.00    +0.000 A 
ATOM      8  C   UNL     1       4.841   4.761  17.100  0.00  0.00    +0.000 A 
ATOM      9  C   UNL     1       4.150   4.372  18.266  0.00  0.00    +0.000 A 
ATOM     10  C   UNL     1       3.312   5.341  18.951  0.00  0.00    +0.000 A 
ENDROOT
BRANCH   3  11
ATOM     11  C   UNL     1       1.080   8.622  20.600  0.00  0.00    +0.000 A 
ATOM     12  C   UNL     1       0.648   9.661  19.752  0.00  0.00    +0.000 A 
ATOM     13  C   UNL     1      -0.028  10.777  20.251  0.00  0.00    +0.000 A 
ATOM     14  C   UNL     1      -0.303  10.869  21.612  0.00  0.00    +0.000 A 
ATOM     15  C   UNL     1       0.091   9.850  22.470  0.00  0.00    +0.000 A 
ATOM     16  C   UNL     1       0.769   8.737  21.968  0.00  0.00    +0.000 A 
ENDBRANCH   3  11
BRANCH   9  17
ATOM     17  C   UNL     1       4.343   2.962  18.807  0.00  0.00    +0.000 C 
ATOM     18  C   UNL     1       3.694   1.813  18.026  0.00  0.00    +0.000 C 
ENDBRANCH   9  17
BRANCH   1  19
ATOM     19  O   UNL     1       2.267   3.873  20.590  0.00  0.00    +0.000 OA
BRANCH  19  21
ATOM     20  C   UNL     1       0.573   2.827  19.172  0.00  0.00    +0.000 C 
ATOM     21  C   UNL     1       0.896   3.435  20.522  0.00  0.00    +0.000 C 
ENDBRANCH  19  21
ENDBRANCH   1  19
TORSDOF 4
ENDMDL
MODEL 9
REMARK VINA RESULT:      -7.0      2.522      6.508
REMARK  Name = 
REMARK  6 active torsions:
REMARK  status: ('A' for Active; 'I' for Inactive)
REMARK    1  A    between atoms: C_1  and  C_2
REMARK    2  A    between atoms: C_2  and  O_3
REMARK    3  A    between atoms: O_3  and  C_4
REMARK    4  A    between atoms: C_6  and  C_7
REMARK    5  A    between atoms: C_18  and  C_19
REMARK    6  A    between atoms: C_19  and  C_20
REMARK                            x       y       z     vdW  Elec       q    Type
REMARK                         _______ _______ _______ _____ _____    ______ ____
ROOT
ATOM      1  C   UNL     1       3.127   3.186  17.881  0.00  0.00    +0.000 A 
ATOM      2  C   UNL     1       3.899   3.192  16.712  0.00  0.00    +0.000 A 
ATOM      3  C   UNL     1       4.489   4.361  16.274  0.00  0.00    +0.000 A 
ATOM      4  N   UNL     1       4.274   5.522  16.919  0.00  0.00    +0.000 NA
ATOM      5  C   UNL     1       3.450   5.551  17.977  0.00  0.00    +0.000 A 
ATOM      6  C   UNL     1       3.276   6.801  18.540  0.00  0.00    +0.000 A 
ATOM      7  C   UNL     1       2.449   7.010  19.632  0.00  0.00    +0.000 A 
ATOM      8  C   UNL     1       1.762   5.940  20.180  0.00  0.00    +0.000 A 
ATOM      9  C   UNL     1       1.903   4.638  19.657  0.00  0.00    +0.000 A 
ATOM     10  C   UNL     1       2.795   4.418  18.532  0.00  0.00    +0.000 A 
ENDROOT
BRANCH   3  11
ATOM     11  C   UNL     1       5.471   4.378  15.169  0.00  0.00    +0.000 A 
ATOM     12  C   UNL     1       6.638   5.165  15.216  0.00  0.00    +0.000 A 
ATOM     13  C   UNL     1       7.504   5.251  14.122  0.00  0.00    +0.000 A 
ATOM     14  C   UNL     1       7.228   4.535  12.961  0.00  0.00    +0.000 A 
ATOM     15  C   UNL     1       6.095   3.733  12.894  0.00  0.00    +0.000 A 
ATOM     16  C   UNL     1       5.231   3.651  13.988  0.00  0.00    +0.000 A 
ENDBRANCH   3  11
BRANCH   9  17
ATOM     17  C   UNL     1       1.074   3.507  20.250  0.00  0.00    +0.000 C 
ATOM     18  C   UNL     1       1.536   2.923  21.590  0.00  0.00    +0.000 C 
ENDBRANCH   9  17
BRANCH   1  19
ATOM     19  O   UNL     1       2.731   1.984  18.445  0.00  0.00    +0.000 OA
BRANCH  19  21
ATOM     20  C   UNL     1       4.620   1.821  19.986  0.00  0.00    +0.000 C 
ATOM     21  C   UNL     1       3.813   1.147  18.896  0.00  0.00    +0.000 C 
ENDBRANCH  19  21
ENDBRANCH   1  19
TORSDOF 4
ENDMDL
