MODEL 1
REMARK VINA RESULT:      -6.3      0.000      0.000
REMARK  Name = 
REMARK  7 active torsions:
REMARK  status: ('A' for Active; 'I' for Inactive)
REMARK    1  A    between atoms: C_1  and  O_2
REMARK    2  A    between atoms: O_2  and  C_3
REMARK    3  A    between atoms: C_6  and  C_7
REMARK    4  A    between atoms: C_10  and  S_11
REMARK    5  A    between atoms: S_11  and  C_12
REMARK    6  A    between atoms: C_17  and  O_18
REMARK    7  A    between atoms: O_18  and  C_19
REMARK                            x       y       z     vdW  Elec       q    Type
REMARK                         _______ _______ _______ _____ _____    ______ ____
ROOT
ATOM      1  C   UNL     1       4.984   4.124  17.231  0.00  0.00    +0.000 A 
ATOM      2  C   UNL     1       3.587   4.051  17.094  0.00  0.00    +0.000 A 
ATOM      3  C   UNL     1       2.740   4.638  18.035  0.00  0.00    +0.000 A 
ATOM      4  C   UNL     1       3.280   5.270  19.151  0.00  0.00    +0.000 A 
ATOM      5  C   UNL     1       4.665   5.251  19.343  0.00  0.00    +0.000 A 
ATOM      6  C   UNL     1       5.530   4.676  18.399  0.00  0.00    +0.000 A 
ENDROOT
BRANCH   4   7
ATOM      7  C   UNL     1       2.432   5.936  20.133  0.00  0.00    +0.000 C 
ATOM      8  C   UNL     1       1.936   7.177  20.029  0.00  0.00    +0.000 C 
ATOM      9  N   UNL     1       1.211   7.783  21.038  0.00  0.00    +0.000 NA
ATOM     10  C   UNL     1       0.997   8.978  20.586  0.00  0.00    +0.000 C 
ATOM     11  N   UNL     1       1.479   9.255  19.364  0.00  0.00    +0.000 N 
ATOM     12  C   UNL     1       2.096   8.143  18.893  0.00  0.00    +0.000 C 
ATOM     13  O   UNL     1       2.612   7.988  17.806  0.00  0.00    +0.000 OA
ATOM     14  H   UNL     1       1.386  10.120  18.862  0.00  0.00    +0.000 HD
BRANCH  10  15
ATOM     15  S   UNL     1       0.165  10.249  21.391  0.00  0.00    +0.000 S 
ATOM     16  C   UNL     1      -0.032   9.511  23.029  0.00  0.00    +0.000 C 
ENDBRANCH  10  15
ENDBRANCH   4   7
BRANCH   1  18
ATOM     17  C   UNL     1       5.694   4.328  14.993  0.00  0.00    +0.000 C 
ATOM     18  O   UNL     1       5.805   3.646  16.245  0.00  0.00    +0.000 OA
ENDBRANCH   1  18
BRANCH   6  19
ATOM     19  O   UNL     1       6.840   4.773  18.785  0.00  0.00    +0.000 OA
ATOM     20  C   UNL     1       7.573   5.943  18.464  0.00  0.00    +0.000 C 
ENDBRANCH   6  19
TORSDOF 4
ENDMDL
MODEL 2
REMARK VINA RESULT:      -6.3      1.590      1.885
REMARK  Name = 
REMARK  7 active torsions:
REMARK  status: ('A' for Active; 'I' for Inactive)
REMARK    1  A    between atoms: C_1  and  O_2
REMARK    2  A    between atoms: O_2  and  C_3
REMARK    3  A    between atoms: C_6  and  C_7
REMARK    4  A    between atoms: C_10  and  S_11
REMARK    5  A    between atoms: S_11  and  C_12
REMARK    6  A    between atoms: C_17  and  O_18
REMARK    7  A    between atoms: O_18  and  C_19
REMARK                            x       y       z     vdW  Elec       q    Type
REMARK                         _______ _______ _______ _____ _____    ______ ____
ROOT
ATOM      1  C   UNL     1       6.134   5.207  15.637  0.00  0.00    +0.000 A 
ATOM      2  C   UNL     1       4.987   4.421  15.839  0.00  0.00    +0.000 A 
ATOM      3  C   UNL     1       4.162   4.622  16.947  0.00  0.00    +0.000 A 
ATOM      4  C   UNL     1       4.499   5.586  17.893  0.00  0.00    +0.000 A 
ATOM      5  C   UNL     1       5.696   6.295  17.748  0.00  0.00    +0.000 A 
ATOM      6  C   UNL     1       6.528   6.112  16.633  0.00  0.00    +0.000 A 
ENDROOT
BRANCH   4   7
ATOM      7  C   UNL     1       3.641   5.859  19.039  0.00  0.00    +0.000 C 
ATOM      8  C   UNL     1       2.806   6.900  19.164  0.00  0.00    +0.000 C 
ATOM      9  N   UNL     1       2.084   7.151  20.316  0.00  0.00    +0.000 NA
ATOM     10  C   UNL     1       1.482   8.269  20.063  0.00  0.00    +0.000 C 
ATOM     11  N   UNL     1       1.693   8.807  18.852  0.00  0.00    +0.000 N 
ATOM     12  C   UNL     1       2.528   7.986  18.167  0.00  0.00    +0.000 C 
ATOM     13  O   UNL     1       2.914   8.110  17.024  0.00  0.00    +0.000 OA
ATOM     14  H   UNL     1       1.292   9.653  18.490  0.00  0.00    +0.000 HD
BRANCH  10  15
ATOM     15  S   UNL     1       0.443   9.140  21.121  0.00  0.00    +0.000 S 
ATOM     16  C   UNL     1       0.815  10.833  20.608  0.00  0.00    +0.000 C 
ENDBRANCH  10  15
ENDBRANCH   4   7
BRANCH   1  18
ATOM     17  C   UNL     1       6.398   4.078  13.585  0.00  0.00    +0.000 C 
ATOM     18  O   UNL     1       6.871   5.079  14.490  0.00  0.00    +0.000 OA
ENDBRANCH   1  18
BRANCH   6  19
ATOM     19  O   UNL     1       7.640   6.909  16.693  0.00  0.00    +0.000 OA
ATOM     20  C   UNL     1       7.717   7.919  17.683  0.00  0.00    +0.000 C 
ENDBRANCH   6  19
TORSDOF 4
ENDMDL
MODEL 3
REMARK VINA RESULT:      -6.1      2.095      2.567
REMARK  Name = 
REMARK  7 active torsions:
REMARK  status: ('A' for Active; 'I' for Inactive)
REMARK    1  A    between atoms: C_1  and  O_2
REMARK    2  A    between atoms: O_2  and  C_3
REMARK    3  A    between atoms: C_6  and  C_7
REMARK    4  A    between atoms: C_10  and  S_11
REMARK    5  A    between atoms: S_11  and  C_12
REMARK    6  A    between atoms: C_17  and  O_18
REMARK    7  A    between atoms: O_18  and  C_19
REMARK                            x       y       z     vdW  Elec       q    Type
REMARK                         _______ _______ _______ _____ _____    ______ ____
ROOT
ATOM      1  C   UNL     1       3.850   3.782  18.668  0.00  0.00    +0.000 A 
ATOM      2  C   UNL     1       2.547   4.111  18.258  0.00  0.00    +0.000 A 
ATOM      3  C   UNL     1       2.201   5.427  17.947  0.00  0.00    +0.000 A 
ATOM      4  C   UNL     1       3.145   6.440  18.084  0.00  0.00    +0.000 A 
ATOM      5  C   UNL     1       4.410   6.130  18.594  0.00  0.00    +0.000 A 
ATOM      6  C   UNL     1       4.776   4.809  18.898  0.00  0.00    +0.000 A 
ENDROOT
BRANCH   4   7
ATOM      7  C   UNL     1       2.838   7.819  17.725  0.00  0.00    +0.000 C 
ATOM      8  C   UNL     1       2.146   8.690  18.473  0.00  0.00    +0.000 C 
ATOM      9  N   UNL     1       1.812   9.958  18.035  0.00  0.00    +0.000 NA
ATOM     10  C   UNL     1       1.088  10.434  18.997  0.00  0.00    +0.000 C 
ATOM     11  N   UNL     1       0.902   9.639  20.062  0.00  0.00    +0.000 N 
ATOM     12  C   UNL     1       1.567   8.477  19.840  0.00  0.00    +0.000 C 
ATOM     13  O   UNL     1       1.673   7.531  20.592  0.00  0.00    +0.000 OA
ATOM     14  H   UNL     1       0.387   9.858  20.895  0.00  0.00    +0.000 HD
BRANCH  10  15
ATOM     15  S   UNL     1       0.333  11.978  19.050  0.00  0.00    +0.000 S 
ATOM     16  C   UNL     1      -1.404  11.483  19.017  0.00  0.00    +0.000 C 
ENDBRANCH  10  15
ENDBRANCH   4   7
BRANCH   1  18
ATOM     17  C   UNL     1       3.191   1.522  18.536  0.00  0.00    +0.000 C 
ATOM     18  O   UNL     1       4.209   2.473  18.859  0.00  0.00    +0.000 OA
ENDBRANCH   1  18
BRANCH   6  19
ATOM     19  O   UNL     1       6.057   4.734  19.376  0.00  0.00    +0.000 OA
ATOM     20  C   UNL     1       7.000   5.719  18.990  0.00  0.00    +0.000 C 
ENDBRANCH   6  19
TORSDOF 4
ENDMDL
MODEL 4
REMARK VINA RESULT:      -6.1      2.299      3.570
REMARK  Name = 
REMARK  7 active torsions:
REMARK  status: ('A' for Active; 'I' for Inactive)
REMARK    1  A    between atoms: C_1  and  O_2
REMARK    2  A    between atoms: O_2  and  C_3
REMARK    3  A    between atoms: C_6  and  C_7
REMARK    4  A    between atoms: C_10  and  S_11
REMARK    5  A    between atoms: S_11  and  C_12
REMARK    6  A    between atoms: C_17  and  O_18
REMARK    7  A    between atoms: O_18  and  C_19
REMARK                            x       y       z     vdW  Elec       q    Type
REMARK                         _______ _______ _______ _____ _____    ______ ____
ROOT
ATOM      1  C   UNL     1       3.766   3.565  18.646  0.00  0.00    +0.000 A 
ATOM      2  C   UNL     1       4.710   4.595  18.792  0.00  0.00    +0.000 A 
ATOM      3  C   UNL     1       4.367   5.925  18.544  0.00  0.00    +0.000 A 
ATOM      4  C   UNL     1       3.084   6.238  18.104  0.00  0.00    +0.000 A 
ATOM      5  C   UNL     1       2.177   5.203  17.857  0.00  0.00    +0.000 A 
ATOM      6  C   UNL     1       2.504   3.862  18.114  0.00  0.00    +0.000 A 
ENDROOT
BRANCH   4   7
ATOM      7  C   UNL     1       2.672   7.618  17.879  0.00  0.00    +0.000 C 
ATOM      8  C   UNL     1       2.004   8.390  18.748  0.00  0.00    +0.000 C 
ATOM      9  N   UNL     1       1.564   9.663  18.438  0.00  0.00    +0.000 NA
ATOM     10  C   UNL     1       0.905  10.025  19.493  0.00  0.00    +0.000 C 
ATOM     11  N   UNL     1       0.860   9.146  20.506  0.00  0.00    +0.000 N 
ATOM     12  C   UNL     1       1.564   8.045  20.140  0.00  0.00    +0.000 C 
ATOM     13  O   UNL     1       1.789   7.056  20.805  0.00  0.00    +0.000 OA
ATOM     14  H   UNL     1       0.412   9.273  21.396  0.00  0.00    +0.000 HD
BRANCH  10  15
ATOM     15  S   UNL     1       0.076  11.512  19.729  0.00  0.00    +0.000 S 
ATOM     16  C   UNL     1      -1.146  11.408  18.401  0.00  0.00    +0.000 C 
ENDBRANCH  10  15
ENDBRANCH   4   7
BRANCH   1  18
ATOM     17  C   UNL     1       4.420   2.109  20.381  0.00  0.00    +0.000 C 
ATOM     18  O   UNL     1       4.080   2.280  19.002  0.00  0.00    +0.000 OA
ENDBRANCH   1  18
BRANCH   6  19
ATOM     19  O   UNL     1       1.469   3.019  17.806  0.00  0.00    +0.000 OA
ATOM     20  C   UNL     1       0.695   2.460  18.852  0.00  0.00    +0.000 C 
ENDBRANCH   6  19
TORSDOF 4
ENDMDL
MODEL 5
REMARK VINA RESULT:      -6.1      4.416      6.958
REMARK  Name = 
REMARK  7 active torsions:
REMARK  status: ('A' for Active; 'I' for Inactive)
REMARK    1  A    between atoms: C_1  and  O_2
REMARK    2  A    between atoms: O_2  and  C_3
REMARK    3  A    between atoms: C_6  and  C_7
REMARK    4  A    between atoms: C_10  and  S_11
REMARK    5  A    between atoms: S_11  and  C_12
REMARK    6  A    between atoms: C_17  and  O_18
REMARK    7  A    between atoms: O_18  and  C_19
REMARK                            x       y       z     vdW  Elec       q    Type
REMARK                         _______ _______ _______ _____ _____    ______ ____
ROOT
ATOM      1  C   UNL     1       2.716   3.820  20.195  0.00  0.00    +0.000 A 
ATOM      2  C   UNL     1       3.048   2.636  19.515  0.00  0.00    +0.000 A 
ATOM      3  C   UNL     1       3.481   2.665  18.188  0.00  0.00    +0.000 A 
ATOM      4  C   UNL     1       3.545   3.878  17.509  0.00  0.00    +0.000 A 
ATOM      5  C   UNL     1       3.113   5.043  18.151  0.00  0.00    +0.000 A 
ATOM      6  C   UNL     1       2.688   5.031  19.489  0.00  0.00    +0.000 A 
ENDROOT
BRANCH   4   7
ATOM      7  C   UNL     1       4.036   3.958  16.138  0.00  0.00    +0.000 C 
ATOM      8  C   UNL     1       5.289   4.260  15.769  0.00  0.00    +0.000 C 
ATOM      9  N   UNL     1       5.668   4.407  14.448  0.00  0.00    +0.000 NA
ATOM     10  C   UNL     1       6.908   4.774  14.524  0.00  0.00    +0.000 C 
ATOM     11  N   UNL     1       7.431   4.877  15.756  0.00  0.00    +0.000 N 
ATOM     12  C   UNL     1       6.468   4.544  16.651  0.00  0.00    +0.000 C 
ATOM     13  O   UNL     1       6.573   4.472  17.858  0.00  0.00    +0.000 OA
ATOM     14  H   UNL     1       8.374   5.129  15.990  0.00  0.00    +0.000 HD
BRANCH  10  15
ATOM     15  S   UNL     1       7.952   5.150  13.211  0.00  0.00    +0.000 S 
ATOM     16  C   UNL     1       7.189   4.160  11.905  0.00  0.00    +0.000 C 
ENDBRANCH  10  15
ENDBRANCH   4   7
BRANCH   1  18
ATOM     17  C   UNL     1       1.601   2.678  21.929  0.00  0.00    +0.000 C 
ATOM     18  O   UNL     1       2.404   3.791  21.528  0.00  0.00    +0.000 OA
ENDBRANCH   1  18
BRANCH   6  19
ATOM     19  O   UNL     1       2.316   6.278  19.915  0.00  0.00    +0.000 OA
ATOM     20  C   UNL     1       2.413   7.374  19.022  0.00  0.00    +0.000 C 
ENDBRANCH   6  19
TORSDOF 4
ENDMDL
MODEL 6
REMARK VINA RESULT:      -6.0      1.077      1.231
REMARK  Name = 
REMARK  7 active torsions:
REMARK  status: ('A' for Active; 'I' for Inactive)
REMARK    1  A    between atoms: C_1  and  O_2
REMARK    2  A    between atoms: O_2  and  C_3
REMARK    3  A    between atoms: C_6  and  C_7
REMARK    4  A    between atoms: C_10  and  S_11
REMARK    5  A    between atoms: S_11  and  C_12
REMARK    6  A    between atoms: C_17  and  O_18
REMARK    7  A    between atoms: O_18  and  C_19
REMARK                            x       y       z     vdW  Elec       q    Type
REMARK                         _______ _______ _______ _____ _____    ______ ____
ROOT
ATOM      1  C   UNL     1       5.196   4.244  16.695  0.00  0.00    +0.000 A 
ATOM      2  C   UNL     1       3.852   3.873  16.864  0.00  0.00    +0.000 A 
ATOM      3  C   UNL     1       3.045   4.504  17.812  0.00  0.00    +0.000 A 
ATOM      4  C   UNL     1       3.586   5.487  18.636  0.00  0.00    +0.000 A 
ATOM      5  C   UNL     1       4.950   5.782  18.541  0.00  0.00    +0.000 A 
ATOM      6  C   UNL     1       5.770   5.165  17.583  0.00  0.00    +0.000 A 
ENDROOT
BRANCH   4   7
ATOM      7  C   UNL     1       2.767   6.203  19.607  0.00  0.00    +0.000 C 
ATOM      8  C   UNL     1       2.208   7.407  19.426  0.00  0.00    +0.000 C 
ATOM      9  N   UNL     1       1.515   8.071  20.421  0.00  0.00    +0.000 NA
ATOM     10  C   UNL     1       1.218   9.210  19.880  0.00  0.00    +0.000 C 
ATOM     11  N   UNL     1       1.614   9.395  18.611  0.00  0.00    +0.000 N 
ATOM     12  C   UNL     1       2.254   8.272  18.201  0.00  0.00    +0.000 C 
ATOM     13  O   UNL     1       2.713   8.042  17.102  0.00  0.00    +0.000 OA
ATOM     14  H   UNL     1       1.450  10.206  18.042  0.00  0.00    +0.000 HD
BRANCH  10  15
ATOM     15  S   UNL     1       0.376  10.512  20.621  0.00  0.00    +0.000 S 
ATOM     16  C   UNL     1       0.979  11.891  19.621  0.00  0.00    +0.000 C 
ENDBRANCH  10  15
ENDBRANCH   4   7
BRANCH   1  18
ATOM     17  C   UNL     1       5.954   4.460  14.473  0.00  0.00    +0.000 C 
ATOM     18  O   UNL     1       5.945   3.700  15.685  0.00  0.00    +0.000 OA
ENDBRANCH   1  18
BRANCH   6  19
ATOM     19  O   UNL     1       7.064   5.604  17.663  0.00  0.00    +0.000 OA
ATOM     20  C   UNL     1       7.696   5.675  18.930  0.00  0.00    +0.000 C 
ENDBRANCH   6  19
TORSDOF 4
ENDMDL
MODEL 7
REMARK VINA RESULT:      -6.0      1.781      2.360
REMARK  Name = 
REMARK  7 active torsions:
REMARK  status: ('A' for Active; 'I' for Inactive)
REMARK    1  A    between atoms: C_1  and  O_2
REMARK    2  A    between atoms: O_2  and  C_3
REMARK    3  A    between atoms: C_6  and  C_7
REMARK    4  A    between atoms: C_10  and  S_11
REMARK    5  A    between atoms: S_11  and  C_12
REMARK    6  A    between atoms: C_17  and  O_18
REMARK    7  A    between atoms: O_18  and  C_19
REMARK                            x       y       z     vdW  Elec       q    Type
REMARK                         _______ _______ _______ _____ _____    ______ ____
ROOT
ATOM      1  C   UNL     1       3.592   3.503  17.928  0.00  0.00    +0.000 A 
ATOM      2  C   UNL     1       2.275   3.896  17.635  0.00  0.00    +0.000 A 
ATOM      3  C   UNL     1       1.884   5.232  17.728  0.00  0.00    +0.000 A 
ATOM      4  C   UNL     1       2.797   6.190  18.159  0.00  0.00    +0.000 A 
ATOM      5  C   UNL     1       4.076   5.785  18.553  0.00  0.00    +0.000 A 
ATOM      6  C   UNL     1       4.487   4.447  18.452  0.00  0.00    +0.000 A 
ENDROOT
BRANCH   4   7
ATOM      7  C   UNL     1       2.443   7.603  18.225  0.00  0.00    +0.000 C 
ATOM      8  C   UNL     1       1.840   8.214  19.254  0.00  0.00    +0.000 C 
ATOM      9  N   UNL     1       1.451   9.540  19.218  0.00  0.00    +0.000 NA
ATOM     10  C   UNL     1       0.844   9.713  20.349  0.00  0.00    +0.000 C 
ATOM     11  N   UNL     1       0.790   8.653  21.171  0.00  0.00    +0.000 N 
ATOM     12  C   UNL     1       1.428   7.620  20.569  0.00  0.00    +0.000 C 
ATOM     13  O   UNL     1       1.628   6.511  21.018  0.00  0.00    +0.000 OA
ATOM     14  H   UNL     1       0.376   8.621  22.086  0.00  0.00    +0.000 HD
BRANCH  10  15
ATOM     15  S   UNL     1       0.093  11.156  20.904  0.00  0.00    +0.000 S 
ATOM     16  C   UNL     1      -0.214  11.981  19.325  0.00  0.00    +0.000 C 
ENDBRANCH  10  15
ENDBRANCH   4   7
BRANCH   1  18
ATOM     17  C   UNL     1       3.597   1.292  18.745  0.00  0.00    +0.000 C 
ATOM     18  O   UNL     1       3.994   2.210  17.723  0.00  0.00    +0.000 OA
ENDBRANCH   1  18
BRANCH   6  19
ATOM     19  O   UNL     1       5.775   4.276  18.886  0.00  0.00    +0.000 OA
ATOM     20  C   UNL     1       6.620   5.407  19.010  0.00  0.00    +0.000 C 
ENDBRANCH   6  19
TORSDOF 4
ENDMDL
MODEL 8
REMARK VINA RESULT:      -5.8      1.310      1.311
REMARK  Name = 
REMARK  7 active torsions:
REMARK  status: ('A' for Active; 'I' for Inactive)
REMARK    1  A    between atoms: C_1  and  O_2
REMARK    2  A    between atoms: O_2  and  C_3
REMARK    3  A    between atoms: C_6  and  C_7
REMARK    4  A    between atoms: C_10  and  S_11
REMARK    5  A    between atoms: S_11  and  C_12
REMARK    6  A    between atoms: C_17  and  O_18
REMARK    7  A    between atoms: O_18  and  C_19
REMARK                            x       y       z     vdW  Elec       q    Type
REMARK                         _______ _______ _______ _____ _____    ______ ____
ROOT
ATOM      1  C   UNL     1       4.856   5.148  16.221  0.00  0.00    +0.000 A 
ATOM      2  C   UNL     1       3.803   4.386  16.754  0.00  0.00    +0.000 A 
ATOM      3  C   UNL     1       3.086   4.829  17.866  0.00  0.00    +0.000 A 
ATOM      4  C   UNL     1       3.442   6.022  18.488  0.00  0.00    +0.000 A 
ATOM      5  C   UNL     1       4.556   6.727  18.023  0.00  0.00    +0.000 A 
ATOM      6  C   UNL     1       5.279   6.301  16.898  0.00  0.00    +0.000 A 
ENDROOT
BRANCH   4   7
ATOM      7  C   UNL     1       2.689   6.542  19.623  0.00  0.00    +0.000 C 
ATOM      8  C   UNL     1       2.009   7.697  19.651  0.00  0.00    +0.000 C 
ATOM      9  N   UNL     1       1.389   8.177  20.790  0.00  0.00    +0.000 NA
ATOM     10  C   UNL     1       0.929   9.331  20.425  0.00  0.00    +0.000 C 
ATOM     11  N   UNL     1       1.147   9.691  19.151  0.00  0.00    +0.000 N 
ATOM     12  C   UNL     1       1.828   8.689  18.541  0.00  0.00    +0.000 C 
ATOM     13  O   UNL     1       2.165   8.626  17.377  0.00  0.00    +0.000 OA
ATOM     14  H   UNL     1       0.844  10.538  18.704  0.00  0.00    +0.000 HD
BRANCH  10  15
ATOM     15  S   UNL     1       0.074  10.455  21.406  0.00  0.00    +0.000 S 
ATOM     16  C   UNL     1      -0.086   9.491  22.927  0.00  0.00    +0.000 C 
ENDBRANCH  10  15
ENDBRANCH   4   7
BRANCH   1  18
ATOM     17  C   UNL     1       6.688   4.026  15.251  0.00  0.00    +0.000 C 
ATOM     18  O   UNL     1       5.477   4.762  15.062  0.00  0.00    +0.000 OA
ENDBRANCH   1  18
BRANCH   6  19
ATOM     19  O   UNL     1       6.323   7.141  16.617  0.00  0.00    +0.000 OA
ATOM     20  C   UNL     1       7.435   7.182  17.495  0.00  0.00    +0.000 C 
ENDBRANCH   6  19
TORSDOF 4
ENDMDL
MODEL 9
REMARK VINA RESULT:      -5.8      1.439      1.585
REMARK  Name = 
REMARK  7 active torsions:
REMARK  status: ('A' for Active; 'I' for Inactive)
REMARK    1  A    between atoms: C_1  and  O_2
REMARK    2  A    between atoms: O_2  and  C_3
REMARK    3  A    between atoms: C_6  and  C_7
REMARK    4  A    between atoms: C_10  and  S_11
REMARK    5  A    between atoms: S_11  and  C_12
REMARK    6  A    between atoms: C_17  and  O_18
REMARK    7  A    between atoms: O_18  and  C_19
REMARK                            x       y       z     vdW  Elec       q    Type
REMARK                         _______ _______ _______ _____ _____    ______ ____
ROOT
ATOM      1  C   UNL     1       4.370   4.178  17.754  0.00  0.00    +0.000 A 
ATOM      2  C   UNL     1       3.006   4.330  17.452  0.00  0.00    +0.000 A 
ATOM      3  C   UNL     1       2.232   5.303  18.086  0.00  0.00    +0.000 A 
ATOM      4  C   UNL     1       2.804   6.110  19.065  0.00  0.00    +0.000 A 
ATOM      5  C   UNL     1       4.132   5.889  19.442  0.00  0.00    +0.000 A 
ATOM      6  C   UNL     1       4.926   4.922  18.803  0.00  0.00    +0.000 A 
ENDROOT
BRANCH   4   7
ATOM      7  C   UNL     1       2.043   7.169  19.718  0.00  0.00    +0.000 C 
ATOM      8  C   UNL     1       1.767   8.373  19.198  0.00  0.00    +0.000 C 
ATOM      9  N   UNL     1       1.117   9.367  19.905  0.00  0.00    +0.000 NA
ATOM     10  C   UNL     1       1.123  10.375  19.093  0.00  0.00    +0.000 C 
ATOM     11  N   UNL     1       1.690  10.179  17.893  0.00  0.00    +0.000 N 
ATOM     12  C   UNL     1       2.129   8.896  17.839  0.00  0.00    +0.000 C 
ATOM     13  O   UNL     1       2.653   8.332  16.902  0.00  0.00    +0.000 OA
ATOM     14  H   UNL     1       1.762  10.844  17.144  0.00  0.00    +0.000 HD
BRANCH  10  15
ATOM     15  S   UNL     1       0.486  11.943  19.395  0.00  0.00    +0.000 S 
ATOM     16  C   UNL     1       1.485  12.421  20.824  0.00  0.00    +0.000 C 
ENDBRANCH  10  15
ENDBRANCH   4   7
BRANCH   1  18
ATOM     17  C   UNL     1       5.796   3.865  15.904  0.00  0.00    +0.000 C 
ATOM     18  O   UNL     1       5.145   3.299  17.044  0.00  0.00    +0.000 OA
ENDBRANCH   1  18
BRANCH   6  19
ATOM     19  O   UNL     1       6.191   4.879  19.326  0.00  0.00    +0.000 OA
ATOM     20  C   UNL     1       7.159   5.811  18.877  0.00  0.00    +0.000 C 
ENDBRANCH   6  19
TORSDOF 4
ENDMDL
