MODEL 1
REMARK VINA RESULT:      -8.9      0.000      0.000
REMARK  Name = 
REMARK  5 active torsions:
REMARK  status: ('A' for Active; 'I' for Inactive)
REMARK    1  A    between atoms: C_2  and  C_22
REMARK    2  A    between atoms: N_3  and  C_4
REMARK    3  A    between atoms: C_7  and  N_8
REMARK    4  A    between atoms: C_15  and  N_16
REMARK    5  A    between atoms: N_25  and  C_26
REMARK                            x       y       z     vdW  Elec       q    Type
REMARK                         _______ _______ _______ _____ _____    ______ ____
ROOT
ATOM      1  C   UNL     1       3.825   6.051  17.738  0.00  0.00    +0.000 A 
ATOM      2  C   UNL     1       4.615   6.895  16.947  0.00  0.00    +0.000 A 
ATOM      3  C   UNL     1       5.380   6.387  15.898  0.00  0.00    +0.000 A 
ATOM      4  C   UNL     1       5.404   5.023  15.611  0.00  0.00    +0.000 A 
ATOM      5  C   UNL     1       4.621   4.194  16.440  0.00  0.00    +0.000 A 
ATOM      6  C   UNL     1       3.803   4.660  17.506  0.00  0.00    +0.000 A 
ENDROOT
BRANCH   4   7
ATOM      7  N   UNL     1       6.192   4.525  14.593  0.00  0.00    +0.000 N 
ATOM      8  C   UNL     1       7.519   5.062  14.255  0.00  0.00    +0.000 C 
ATOM      9  C   UNL     1       7.600   5.304  12.734  0.00  0.00    +0.000 C 
ATOM     10  O   UNL     1       7.262   4.131  11.975  0.00  0.00    +0.000 OA
ATOM     11  C   UNL     1       5.928   3.698  12.298  0.00  0.00    +0.000 C 
ATOM     12  C   UNL     1       5.808   3.354  13.790  0.00  0.00    +0.000 C 
ENDBRANCH   4   7
BRANCH   6  13
ATOM     13  N   UNL     1       3.151   3.733  18.313  0.00  0.00    +0.000 N 
ATOM     14  C   UNL     1       1.884   3.080  17.942  0.00  0.00    +0.000 C 
ATOM     15  C   UNL     1       0.972   2.922  19.172  0.00  0.00    +0.000 C 
ATOM     16  O   UNL     1       1.643   2.289  20.272  0.00  0.00    +0.000 OA
ATOM     17  C   UNL     1       2.791   3.063  20.653  0.00  0.00    +0.000 C 
ATOM     18  C   UNL     1       3.801   3.151  19.500  0.00  0.00    +0.000 C 
ENDBRANCH   6  13
BRANCH   1  21
ATOM     19  O   UNL     1       2.376   8.447  17.368  0.00  0.00    +0.000 OA
ATOM     20  C   UNL     1       2.343   7.853  18.442  0.00  0.00    +0.000 C 
ATOM     21  N   UNL     1       3.002   6.665  18.710  0.00  0.00    +0.000 N 
ATOM     22  H   UNL     1       3.154   6.439  19.684  0.00  0.00    +0.000 HD
BRANCH  20  23
ATOM     23  C   UNL     1       1.612   8.424  19.570  0.00  0.00    +0.000 A 
ATOM     24  C   UNL     1       1.659   7.934  20.888  0.00  0.00    +0.000 A 
ATOM     25  N   UNL     1       0.923   8.697  21.693  0.00  0.00    +0.000 NA
ATOM     26  N   UNL     1       0.409   9.617  20.838  0.00  0.00    +0.000 N 
ATOM     27  N   UNL     1       0.783   9.490  19.522  0.00  0.00    +0.000 NA
BRANCH  26  28
ATOM     28  C   UNL     1      -0.503  10.610  21.305  0.00  0.00    +0.000 A 
ATOM     29  C   UNL     1      -0.804  10.668  22.675  0.00  0.00    +0.000 A 
ATOM     30  C   UNL     1      -1.708  11.624  23.145  0.00  0.00    +0.000 A 
ATOM     31  C   UNL     1      -2.314  12.500  22.260  0.00  0.00    +0.000 A 
ATOM     32  C   UNL     1      -2.008  12.459  20.901  0.00  0.00    +0.000 A 
ATOM     33  C   UNL     1      -1.095  11.520  20.417  0.00  0.00    +0.000 A 
ENDBRANCH  26  28
ENDBRANCH  20  23
ENDBRANCH   1  21
TORSDOF 5
ENDMDL
MODEL 2
REMARK VINA RESULT:      -8.6      2.064      9.334
REMARK  Name = 
REMARK  5 active torsions:
REMARK  status: ('A' for Active; 'I' for Inactive)
REMARK    1  A    between atoms: C_2  and  C_22
REMARK    2  A    between atoms: N_3  and  C_4
REMARK    3  A    between atoms: C_7  and  N_8
REMARK    4  A    between atoms: C_15  and  N_16
REMARK    5  A    between atoms: N_25  and  C_26
REMARK                            x       y       z     vdW  Elec       q    Type
REMARK                         _______ _______ _______ _____ _____    ______ ____
ROOT
ATOM      1  C   UNL     1       2.532   7.089  18.583  0.00  0.00    +0.000 A 
ATOM      2  C   UNL     1       2.313   8.459  18.384  0.00  0.00    +0.000 A 
ATOM      3  C   UNL     1       1.503   9.188  19.252  0.00  0.00    +0.000 A 
ATOM      4  C   UNL     1       0.866   8.582  20.335  0.00  0.00    +0.000 A 
ATOM      5  C   UNL     1       1.083   7.198  20.494  0.00  0.00    +0.000 A 
ATOM      6  C   UNL     1       1.919   6.409  19.655  0.00  0.00    +0.000 A 
ENDROOT
BRANCH   4   7
ATOM      7  N   UNL     1       0.038   9.305  21.168  0.00  0.00    +0.000 N 
ATOM      8  C   UNL     1      -0.469  10.648  20.846  0.00  0.00    +0.000 C 
ATOM      9  C   UNL     1      -0.240  11.583  22.052  0.00  0.00    +0.000 C 
ATOM     10  O   UNL     1      -0.794  11.053  23.267  0.00  0.00    +0.000 OA
ATOM     11  C   UNL     1      -0.208   9.773  23.564  0.00  0.00    +0.000 C 
ATOM     12  C   UNL     1      -0.481   8.768  22.436  0.00  0.00    +0.000 C 
ENDBRANCH   4   7
BRANCH   6  13
ATOM     13  N   UNL     1       1.977   5.035  19.858  0.00  0.00    +0.000 N 
ATOM     14  C   UNL     1       1.613   4.043  18.831  0.00  0.00    +0.000 C 
ATOM     15  C   UNL     1       0.882   2.846  19.463  0.00  0.00    +0.000 C 
ATOM     16  O   UNL     1       1.605   2.286  20.569  0.00  0.00    +0.000 OA
ATOM     17  C   UNL     1       1.800   3.287  21.581  0.00  0.00    +0.000 C 
ATOM     18  C   UNL     1       2.635   4.456  21.043  0.00  0.00    +0.000 C 
ENDBRANCH   6  13
BRANCH   1  21
ATOM     19  O   UNL     1       5.096   6.164  19.321  0.00  0.00    +0.000 OA
ATOM     20  C   UNL     1       4.697   6.049  18.165  0.00  0.00    +0.000 C 
ATOM     21  N   UNL     1       3.451   6.453  17.716  0.00  0.00    +0.000 N 
ATOM     22  H   UNL     1       3.351   6.592  16.719  0.00  0.00    +0.000 HD
BRANCH  20  23
ATOM     23  C   UNL     1       5.578   5.500  17.139  0.00  0.00    +0.000 A 
ATOM     24  C   UNL     1       6.897   5.062  17.364  0.00  0.00    +0.000 A 
ATOM     25  N   UNL     1       7.419   4.572  16.242  0.00  0.00    +0.000 NA
ATOM     26  N   UNL     1       6.418   4.757  15.345  0.00  0.00    +0.000 N 
ATOM     27  N   UNL     1       5.273   5.336  15.834  0.00  0.00    +0.000 NA
BRANCH  26  28
ATOM     28  C   UNL     1       6.600   4.407  13.974  0.00  0.00    +0.000 A 
ATOM     29  C   UNL     1       5.771   3.426  13.405  0.00  0.00    +0.000 A 
ATOM     30  C   UNL     1       5.949   3.061  12.068  0.00  0.00    +0.000 A 
ATOM     31  C   UNL     1       6.947   3.654  11.313  0.00  0.00    +0.000 A 
ATOM     32  C   UNL     1       7.762   4.639  11.866  0.00  0.00    +0.000 A 
ATOM     33  C   UNL     1       7.588   5.028  13.195  0.00  0.00    +0.000 A 
ENDBRANCH  26  28
ENDBRANCH  20  23
ENDBRANCH   1  21
TORSDOF 5
ENDMDL
MODEL 3
REMARK VINA RESULT:      -8.5      2.061      9.370
REMARK  Name = 
REMARK  5 active torsions:
REMARK  status: ('A' for Active; 'I' for Inactive)
REMARK    1  A    between atoms: C_2  and  C_22
REMARK    2  A    between atoms: N_3  and  C_4
REMARK    3  A    between atoms: C_7  and  N_8
REMARK    4  A    between atoms: C_15  and  N_16
REMARK    5  A    between atoms: N_25  and  C_26
REMARK                            x       y       z     vdW  Elec       q    Type
REMARK                         _______ _______ _______ _____ _____    ______ ____
ROOT
ATOM      1  C   UNL     1       2.547   7.058  18.635  0.00  0.00    +0.000 A 
ATOM      2  C   UNL     1       2.359   8.435  18.457  0.00  0.00    +0.000 A 
ATOM      3  C   UNL     1       1.542   9.164  19.319  0.00  0.00    +0.000 A 
ATOM      4  C   UNL     1       0.868   8.551  20.374  0.00  0.00    +0.000 A 
ATOM      5  C   UNL     1       1.054   7.161  20.513  0.00  0.00    +0.000 A 
ATOM      6  C   UNL     1       1.895   6.371  19.679  0.00  0.00    +0.000 A 
ENDROOT
BRANCH   4   7
ATOM      7  N   UNL     1       0.034   9.275  21.201  0.00  0.00    +0.000 N 
ATOM      8  C   UNL     1      -0.491  10.608  20.863  0.00  0.00    +0.000 C 
ATOM      9  C   UNL     1      -0.268  11.561  22.055  0.00  0.00    +0.000 C 
ATOM     10  O   UNL     1      -0.812  11.041  23.280  0.00  0.00    +0.000 OA
ATOM     11  C   UNL     1      -0.209   9.772  23.592  0.00  0.00    +0.000 C 
ATOM     12  C   UNL     1      -0.474   8.749  22.478  0.00  0.00    +0.000 C 
ENDBRANCH   4   7
BRANCH   6  13
ATOM     13  N   UNL     1       1.921   4.992  19.858  0.00  0.00    +0.000 N 
ATOM     14  C   UNL     1       2.249   4.343  21.139  0.00  0.00    +0.000 C 
ATOM     15  C   UNL     1       3.087   3.073  20.908  0.00  0.00    +0.000 C 
ATOM     16  O   UNL     1       2.482   2.186  19.955  0.00  0.00    +0.000 OA
ATOM     17  C   UNL     1       2.320   2.860  18.697  0.00  0.00    +0.000 C 
ATOM     18  C   UNL     1       1.388   4.071  18.839  0.00  0.00    +0.000 C 
ENDBRANCH   6  13
BRANCH   1  21
ATOM     19  O   UNL     1       5.024   5.966  19.439  0.00  0.00    +0.000 OA
ATOM     20  C   UNL     1       4.676   5.930  18.263  0.00  0.00    +0.000 C 
ATOM     21  N   UNL     1       3.474   6.420  17.779  0.00  0.00    +0.000 N 
ATOM     22  H   UNL     1       3.429   6.614  16.787  0.00  0.00    +0.000 HD
BRANCH  20  23
ATOM     23  C   UNL     1       5.577   5.389  17.250  0.00  0.00    +0.000 A 
ATOM     24  C   UNL     1       6.833   4.811  17.519  0.00  0.00    +0.000 A 
ATOM     25  N   UNL     1       7.390   4.370  16.394  0.00  0.00    +0.000 NA
ATOM     26  N   UNL     1       6.477   4.723  15.454  0.00  0.00    +0.000 N 
ATOM     27  N   UNL     1       5.354   5.364  15.918  0.00  0.00    +0.000 NA
BRANCH  26  28
ATOM     28  C   UNL     1       6.726   4.474  14.072  0.00  0.00    +0.000 A 
ATOM     29  C   UNL     1       7.657   5.276  13.391  0.00  0.00    +0.000 A 
ATOM     30  C   UNL     1       7.899   5.055  12.034  0.00  0.00    +0.000 A 
ATOM     31  C   UNL     1       7.214   4.058  11.360  0.00  0.00    +0.000 A 
ATOM     32  C   UNL     1       6.301   3.247  12.031  0.00  0.00    +0.000 A 
ATOM     33  C   UNL     1       6.058   3.444  13.392  0.00  0.00    +0.000 A 
ENDBRANCH  26  28
ENDBRANCH  20  23
ENDBRANCH   1  21
TORSDOF 5
ENDMDL
MODEL 4
REMARK VINA RESULT:      -8.4      2.018      9.408
REMARK  Name = 
REMARK  5 active torsions:
REMARK  status: ('A' for Active; 'I' for Inactive)
REMARK    1  A    between atoms: C_2  and  C_22
REMARK    2  A    between atoms: N_3  and  C_4
REMARK    3  A    between atoms: C_7  and  N_8
REMARK    4  A    between atoms: C_15  and  N_16
REMARK    5  A    between atoms: N_25  and  C_26
REMARK                            x       y       z     vdW  Elec       q    Type
REMARK                         _______ _______ _______ _____ _____    ______ ____
ROOT
ATOM      1  C   UNL     1       2.759   7.033  18.229  0.00  0.00    +0.000 A 
ATOM      2  C   UNL     1       2.317   8.296  17.813  0.00  0.00    +0.000 A 
ATOM      3  C   UNL     1       1.552   9.100  18.654  0.00  0.00    +0.000 A 
ATOM      4  C   UNL     1       1.180   8.674  19.929  0.00  0.00    +0.000 A 
ATOM      5  C   UNL     1       1.616   7.388  20.310  0.00  0.00    +0.000 A 
ATOM      6  C   UNL     1       2.419   6.535  19.503  0.00  0.00    +0.000 A 
ENDROOT
BRANCH   4   7
ATOM      7  N   UNL     1       0.392   9.463  20.741  0.00  0.00    +0.000 N 
ATOM      8  C   UNL     1       0.115  10.883  20.475  0.00  0.00    +0.000 C 
ATOM      9  C   UNL     1       0.366  11.701  21.758  0.00  0.00    +0.000 C 
ATOM     10  O   UNL     1      -0.367  11.190  22.884  0.00  0.00    +0.000 OA
ATOM     11  C   UNL     1      -0.000   9.822  23.136  0.00  0.00    +0.000 C 
ATOM     12  C   UNL     1      -0.311   8.936  21.922  0.00  0.00    +0.000 C 
ENDBRANCH   4   7
BRANCH   6  13
ATOM     13  N   UNL     1       2.705   5.250  19.954  0.00  0.00    +0.000 N 
ATOM     14  C   UNL     1       4.060   4.672  19.962  0.00  0.00    +0.000 C 
ATOM     15  C   UNL     1       4.019   3.181  19.582  0.00  0.00    +0.000 C 
ATOM     16  O   UNL     1       3.076   2.442  20.373  0.00  0.00    +0.000 OA
ATOM     17  C   UNL     1       1.760   2.992  20.202  0.00  0.00    +0.000 C 
ATOM     18  C   UNL     1       1.707   4.448  20.683  0.00  0.00    +0.000 C 
ENDBRANCH   6  13
BRANCH   1  21
ATOM     19  O   UNL     1       5.457   7.691  17.716  0.00  0.00    +0.000 OA
ATOM     20  C   UNL     1       4.925   6.741  17.149  0.00  0.00    +0.000 C 
ATOM     21  N   UNL     1       3.618   6.331  17.351  0.00  0.00    +0.000 N 
ATOM     22  H   UNL     1       3.205   5.756  16.629  0.00  0.00    +0.000 HD
BRANCH  20  23
ATOM     23  C   UNL     1       5.663   5.985  16.142  0.00  0.00    +0.000 A 
ATOM     24  C   UNL     1       7.064   5.850  16.105  0.00  0.00    +0.000 A 
ATOM     25  N   UNL     1       7.427   5.062  15.096  0.00  0.00    +0.000 NA
ATOM     26  N   UNL     1       6.238   4.764  14.512  0.00  0.00    +0.000 N 
ATOM     27  N   UNL     1       5.126   5.314  15.100  0.00  0.00    +0.000 NA
BRANCH  26  28
ATOM     28  C   UNL     1       6.192   3.966  13.331  0.00  0.00    +0.000 A 
ATOM     29  C   UNL     1       4.944   3.552  12.835  0.00  0.00    +0.000 A 
ATOM     30  C   UNL     1       4.884   2.757  11.689  0.00  0.00    +0.000 A 
ATOM     31  C   UNL     1       6.051   2.367  11.052  0.00  0.00    +0.000 A 
ATOM     32  C   UNL     1       7.291   2.787  11.527  0.00  0.00    +0.000 A 
ATOM     33  C   UNL     1       7.369   3.596  12.663  0.00  0.00    +0.000 A 
ENDBRANCH  26  28
ENDBRANCH  20  23
ENDBRANCH   1  21
TORSDOF 5
ENDMDL
MODEL 5
REMARK VINA RESULT:      -8.4      0.561      1.018
REMARK  Name = 
REMARK  5 active torsions:
REMARK  status: ('A' for Active; 'I' for Inactive)
REMARK    1  A    between atoms: C_2  and  C_22
REMARK    2  A    between atoms: N_3  and  C_4
REMARK    3  A    between atoms: C_7  and  N_8
REMARK    4  A    between atoms: C_15  and  N_16
REMARK    5  A    between atoms: N_25  and  C_26
REMARK                            x       y       z     vdW  Elec       q    Type
REMARK                         _______ _______ _______ _____ _____    ______ ____
ROOT
ATOM      1  C   UNL     1       3.691   6.345  17.880  0.00  0.00    +0.000 A 
ATOM      2  C   UNL     1       4.527   7.121  17.067  0.00  0.00    +0.000 A 
ATOM      3  C   UNL     1       5.281   6.537  16.051  0.00  0.00    +0.000 A 
ATOM      4  C   UNL     1       5.248   5.163  15.818  0.00  0.00    +0.000 A 
ATOM      5  C   UNL     1       4.419   4.404  16.669  0.00  0.00    +0.000 A 
ATOM      6  C   UNL     1       3.610   4.948  17.705  0.00  0.00    +0.000 A 
ENDROOT
BRANCH   4   7
ATOM      7  N   UNL     1       6.025   4.590  14.832  0.00  0.00    +0.000 N 
ATOM      8  C   UNL     1       7.387   5.039  14.506  0.00  0.00    +0.000 C 
ATOM      9  C   UNL     1       7.510   5.230  12.980  0.00  0.00    +0.000 C 
ATOM     10  O   UNL     1       7.119   4.056  12.249  0.00  0.00    +0.000 OA
ATOM     11  C   UNL     1       5.757   3.711  12.557  0.00  0.00    +0.000 C 
ATOM     12  C   UNL     1       5.588   3.419  14.055  0.00  0.00    +0.000 C 
ENDBRANCH   4   7
BRANCH   6  13
ATOM     13  N   UNL     1       2.908   4.084  18.539  0.00  0.00    +0.000 N 
ATOM     14  C   UNL     1       3.434   3.583  19.820  0.00  0.00    +0.000 C 
ATOM     15  C   UNL     1       3.032   2.113  20.037  0.00  0.00    +0.000 C 
ATOM     16  O   UNL     1       1.622   1.903  19.875  0.00  0.00    +0.000 OA
ATOM     17  C   UNL     1       1.219   2.295  18.553  0.00  0.00    +0.000 C 
ATOM     18  C   UNL     1       1.481   3.788  18.320  0.00  0.00    +0.000 C 
ENDBRANCH   6  13
BRANCH   1  21
ATOM     19  O   UNL     1       2.156   8.649  17.325  0.00  0.00    +0.000 OA
ATOM     20  C   UNL     1       2.180   8.169  18.454  0.00  0.00    +0.000 C 
ATOM     21  N   UNL     1       2.885   7.033  18.816  0.00  0.00    +0.000 N 
ATOM     22  H   UNL     1       3.078   6.913  19.802  0.00  0.00    +0.000 HD
BRANCH  20  23
ATOM     23  C   UNL     1       1.472   8.833  19.545  0.00  0.00    +0.000 A 
ATOM     24  C   UNL     1       1.462   8.391  20.882  0.00  0.00    +0.000 A 
ATOM     25  N   UNL     1       0.768   9.235  21.643  0.00  0.00    +0.000 NA
ATOM     26  N   UNL     1       0.337  10.156  20.744  0.00  0.00    +0.000 N 
ATOM     27  N   UNL     1       0.724   9.953  19.442  0.00  0.00    +0.000 NA
BRANCH  26  28
ATOM     28  C   UNL     1      -0.509  11.228  21.156  0.00  0.00    +0.000 A 
ATOM     29  C   UNL     1      -0.826  11.363  22.518  0.00  0.00    +0.000 A 
ATOM     30  C   UNL     1      -1.666  12.398  22.934  0.00  0.00    +0.000 A 
ATOM     31  C   UNL     1      -2.195  13.279  22.005  0.00  0.00    +0.000 A 
ATOM     32  C   UNL     1      -1.873  13.162  20.655  0.00  0.00    +0.000 A 
ATOM     33  C   UNL     1      -1.021  12.143  20.223  0.00  0.00    +0.000 A 
ENDBRANCH  26  28
ENDBRANCH  20  23
ENDBRANCH   1  21
TORSDOF 5
ENDMDL
MODEL 6
REMARK VINA RESULT:      -8.2      1.939      9.419
REMARK  Name = 
REMARK  5 active torsions:
REMARK  status: ('A' for Active; 'I' for Inactive)
REMARK    1  A    between atoms: C_2  and  C_22
REMARK    2  A    between atoms: N_3  and  C_4
REMARK    3  A    between atoms: C_7  and  N_8
REMARK    4  A    between atoms: C_15  and  N_16
REMARK    5  A    between atoms: N_25  and  C_26
REMARK                            x       y       z     vdW  Elec       q    Type
REMARK                         _______ _______ _______ _____ _____    ______ ____
ROOT
ATOM      1  C   UNL     1       2.972   7.105  18.130  0.00  0.00    +0.000 A 
ATOM      2  C   UNL     1       2.615   8.395  17.715  0.00  0.00    +0.000 A 
ATOM      3  C   UNL     1       1.961   9.271  18.579  0.00  0.00    +0.000 A 
ATOM      4  C   UNL     1       1.620   8.893  19.877  0.00  0.00    +0.000 A 
ATOM      5  C   UNL     1       1.967   7.581  20.258  0.00  0.00    +0.000 A 
ATOM      6  C   UNL     1       2.657   6.653  19.428  0.00  0.00    +0.000 A 
ENDROOT
BRANCH   4   7
ATOM      7  N   UNL     1       0.941   9.755  20.713  0.00  0.00    +0.000 N 
ATOM      8  C   UNL     1       0.830   9.559  22.167  0.00  0.00    +0.000 C 
ATOM      9  C   UNL     1      -0.644   9.714  22.592  0.00  0.00    +0.000 C 
ATOM     10  O   UNL     1      -1.213  10.959  22.151  0.00  0.00    +0.000 OA
ATOM     11  C   UNL     1      -1.138  11.058  20.718  0.00  0.00    +0.000 C 
ATOM     12  C   UNL     1       0.319  11.001  20.237  0.00  0.00    +0.000 C 
ENDBRANCH   4   7
BRANCH   6  13
ATOM     13  N   UNL     1       2.858   5.356  19.886  0.00  0.00    +0.000 N 
ATOM     14  C   UNL     1       4.148   4.651  19.794  0.00  0.00    +0.000 C 
ATOM     15  C   UNL     1       3.935   3.164  19.458  0.00  0.00    +0.000 C 
ATOM     16  O   UNL     1       2.999   2.533  20.345  0.00  0.00    +0.000 OA
ATOM     17  C   UNL     1       1.730   3.203  20.272  0.00  0.00    +0.000 C 
ATOM     18  C   UNL     1       1.856   4.666  20.718  0.00  0.00    +0.000 C 
ENDBRANCH   6  13
BRANCH   1  21
ATOM     19  O   UNL     1       5.743   7.374  17.658  0.00  0.00    +0.000 OA
ATOM     20  C   UNL     1       5.081   6.542  17.046  0.00  0.00    +0.000 C 
ATOM     21  N   UNL     1       3.725   6.323  17.224  0.00  0.00    +0.000 N 
ATOM     22  H   UNL     1       3.239   5.850  16.474  0.00  0.00    +0.000 HD
BRANCH  20  23
ATOM     23  C   UNL     1       5.708   5.730  16.007  0.00  0.00    +0.000 A 
ATOM     24  C   UNL     1       7.084   5.442  15.934  0.00  0.00    +0.000 A 
ATOM     25  N   UNL     1       7.335   4.641  14.901  0.00  0.00    +0.000 NA
ATOM     26  N   UNL     1       6.109   4.488  14.341  0.00  0.00    +0.000 N 
ATOM     27  N   UNL     1       5.077   5.145  14.966  0.00  0.00    +0.000 NA
BRANCH  26  28
ATOM     28  C   UNL     1       5.948   3.726  13.146  0.00  0.00    +0.000 A 
ATOM     29  C   UNL     1       4.665   3.590  12.591  0.00  0.00    +0.000 A 
ATOM     30  C   UNL     1       4.490   2.833  11.430  0.00  0.00    +0.000 A 
ATOM     31  C   UNL     1       5.575   2.208  10.839  0.00  0.00    +0.000 A 
ATOM     32  C   UNL     1       6.853   2.351  11.374  0.00  0.00    +0.000 A 
ATOM     33  C   UNL     1       7.049   3.118  12.525  0.00  0.00    +0.000 A 
ENDBRANCH  26  28
ENDBRANCH  20  23
ENDBRANCH   1  21
TORSDOF 5
ENDMDL
MODEL 7
REMARK VINA RESULT:      -8.0      3.896      9.854
REMARK  Name = 
REMARK  5 active torsions:
REMARK  status: ('A' for Active; 'I' for Inactive)
REMARK    1  A    between atoms: C_2  and  C_22
REMARK    2  A    between atoms: N_3  and  C_4
REMARK    3  A    between atoms: C_7  and  N_8
REMARK    4  A    between atoms: C_15  and  N_16
REMARK    5  A    between atoms: N_25  and  C_26
REMARK                            x       y       z     vdW  Elec       q    Type
REMARK                         _______ _______ _______ _____ _____    ______ ____
ROOT
ATOM      1  C   UNL     1       1.084  11.877  19.238  0.00  0.00    +0.000 A 
ATOM      2  C   UNL     1       2.175  12.745  19.378  0.00  0.00    +0.000 A 
ATOM      3  C   UNL     1       2.019  14.122  19.228  0.00  0.00    +0.000 A 
ATOM      4  C   UNL     1       0.782  14.685  18.916  0.00  0.00    +0.000 A 
ATOM      5  C   UNL     1      -0.291  13.785  18.755  0.00  0.00    +0.000 A 
ATOM      6  C   UNL     1      -0.196  12.375  18.920  0.00  0.00    +0.000 A 
ENDROOT
BRANCH   4   7
ATOM      7  N   UNL     1       0.645  16.046  18.735  0.00  0.00    +0.000 N 
ATOM      8  C   UNL     1      -0.651  16.740  18.737  0.00  0.00    +0.000 C 
ATOM      9  C   UNL     1      -0.739  17.663  17.505  0.00  0.00    +0.000 C 
ATOM     10  O   UNL     1       0.378  18.564  17.416  0.00  0.00    +0.000 OA
ATOM     11  C   UNL     1       1.609  17.823  17.345  0.00  0.00    +0.000 C 
ATOM     12  C   UNL     1       1.798  16.949  18.593  0.00  0.00    +0.000 C 
ENDBRANCH   4   7
BRANCH   6  13
ATOM     13  N   UNL     1      -1.306  11.585  18.640  0.00  0.00    +0.000 N 
ATOM     14  C   UNL     1      -1.250  10.363  17.819  0.00  0.00    +0.000 C 
ATOM     15  C   UNL     1      -2.502  10.243  16.932  0.00  0.00    +0.000 C 
ATOM     16  O   UNL     1      -3.718  10.374  17.684  0.00  0.00    +0.000 OA
ATOM     17  C   UNL     1      -3.748  11.649  18.345  0.00  0.00    +0.000 C 
ATOM     18  C   UNL     1      -2.588  11.778  19.341  0.00  0.00    +0.000 C 
ENDBRANCH   6  13
BRANCH   1  21
ATOM     19  O   UNL     1       2.309  10.046  17.471  0.00  0.00    +0.000 OA
ATOM     20  C   UNL     1       1.905   9.681  18.571  0.00  0.00    +0.000 C 
ATOM     21  N   UNL     1       1.313  10.509  19.510  0.00  0.00    +0.000 N 
ATOM     22  H   UNL     1       0.756  10.059  20.226  0.00  0.00    +0.000 HD
BRANCH  20  23
ATOM     23  C   UNL     1       1.985   8.273  18.948  0.00  0.00    +0.000 A 
ATOM     24  C   UNL     1       1.815   7.781  20.256  0.00  0.00    +0.000 A 
ATOM     25  N   UNL     1       1.899   6.453  20.266  0.00  0.00    +0.000 NA
ATOM     26  N   UNL     1       2.157   6.164  18.965  0.00  0.00    +0.000 N 
ATOM     27  N   UNL     1       2.237   7.240  18.116  0.00  0.00    +0.000 NA
BRANCH  26  28
ATOM     28  C   UNL     1       2.378   4.817  18.553  0.00  0.00    +0.000 A 
ATOM     29  C   UNL     1       1.378   3.859  18.788  0.00  0.00    +0.000 A 
ATOM     30  C   UNL     1       1.587   2.532  18.405  0.00  0.00    +0.000 A 
ATOM     31  C   UNL     1       2.781   2.161  17.808  0.00  0.00    +0.000 A 
ATOM     32  C   UNL     1       3.771   3.108  17.558  0.00  0.00    +0.000 A 
ATOM     33  C   UNL     1       3.573   4.442  17.919  0.00  0.00    +0.000 A 
ENDBRANCH  26  28
ENDBRANCH  20  23
ENDBRANCH   1  21
TORSDOF 5
ENDMDL
MODEL 8
REMARK VINA RESULT:      -7.9      3.940     11.226
REMARK  Name = 
REMARK  5 active torsions:
REMARK  status: ('A' for Active; 'I' for Inactive)
REMARK    1  A    between atoms: C_2  and  C_22
REMARK    2  A    between atoms: N_3  and  C_4
REMARK    3  A    between atoms: C_7  and  N_8
REMARK    4  A    between atoms: C_15  and  N_16
REMARK    5  A    between atoms: N_25  and  C_26
REMARK                            x       y       z     vdW  Elec       q    Type
REMARK                         _______ _______ _______ _____ _____    ______ ____
ROOT
ATOM      1  C   UNL     1       0.177  11.298  21.582  0.00  0.00    +0.000 A 
ATOM      2  C   UNL     1      -0.698  10.713  22.506  0.00  0.00    +0.000 A 
ATOM      3  C   UNL     1      -1.607  11.489  23.223  0.00  0.00    +0.000 A 
ATOM      4  C   UNL     1      -1.665  12.873  23.065  0.00  0.00    +0.000 A 
ATOM      5  C   UNL     1      -0.754  13.437  22.149  0.00  0.00    +0.000 A 
ATOM      6  C   UNL     1       0.177  12.692  21.372  0.00  0.00    +0.000 A 
ENDROOT
BRANCH   4   7
ATOM      7  N   UNL     1      -2.544  13.637  23.806  0.00  0.00    +0.000 N 
ATOM      8  C   UNL     1      -3.941  13.253  24.060  0.00  0.00    +0.000 C 
ATOM      9  C   UNL     1      -4.864  14.447  23.745  0.00  0.00    +0.000 C 
ATOM     10  O   UNL     1      -4.476  15.639  24.449  0.00  0.00    +0.000 OA
ATOM     11  C   UNL     1      -3.127  16.002  24.103  0.00  0.00    +0.000 C 
ATOM     12  C   UNL     1      -2.143  14.884  24.477  0.00  0.00    +0.000 C 
ENDBRANCH   4   7
BRANCH   6  13
ATOM     13  N   UNL     1       1.089  13.374  20.573  0.00  0.00    +0.000 N 
ATOM     14  C   UNL     1       0.971  13.476  19.108  0.00  0.00    +0.000 C 
ATOM     15  C   UNL     1       2.356  13.384  18.443  0.00  0.00    +0.000 C 
ATOM     16  O   UNL     1       3.295  14.311  19.008  0.00  0.00    +0.000 OA
ATOM     17  C   UNL     1       3.448  14.055  20.413  0.00  0.00    +0.000 C 
ATOM     18  C   UNL     1       2.119  14.253  21.154  0.00  0.00    +0.000 C 
ENDBRANCH   6  13
BRANCH   1  21
ATOM     19  O   UNL     1      -0.544  10.133  19.113  0.00  0.00    +0.000 OA
ATOM     20  C   UNL     1       0.542   9.885  19.630  0.00  0.00    +0.000 C 
ATOM     21  N   UNL     1       0.990  10.424  20.824  0.00  0.00    +0.000 N 
ATOM     22  H   UNL     1       1.737   9.929  21.295  0.00  0.00    +0.000 HD
BRANCH  20  23
ATOM     23  C   UNL     1       1.445   8.921  19.007  0.00  0.00    +0.000 A 
ATOM     24  C   UNL     1       2.242   9.182  17.876  0.00  0.00    +0.000 A 
ATOM     25  N   UNL     1       2.988   8.120  17.582  0.00  0.00    +0.000 NA
ATOM     26  N   UNL     1       2.601   7.218  18.519  0.00  0.00    +0.000 N 
ATOM     27  N   UNL     1       1.647   7.648  19.409  0.00  0.00    +0.000 NA
BRANCH  26  28
ATOM     28  C   UNL     1       3.137   5.896  18.517  0.00  0.00    +0.000 A 
ATOM     29  C   UNL     1       4.349   5.650  19.184  0.00  0.00    +0.000 A 
ATOM     30  C   UNL     1       4.895   4.365  19.176  0.00  0.00    +0.000 A 
ATOM     31  C   UNL     1       4.250   3.341  18.502  0.00  0.00    +0.000 A 
ATOM     32  C   UNL     1       3.040   3.573  17.852  0.00  0.00    +0.000 A 
ATOM     33  C   UNL     1       2.471   4.848  17.863  0.00  0.00    +0.000 A 
ENDBRANCH  26  28
ENDBRANCH  20  23
ENDBRANCH   1  21
TORSDOF 5
ENDMDL
MODEL 9
REMARK VINA RESULT:      -7.9      4.344     11.256
REMARK  Name = 
REMARK  5 active torsions:
REMARK  status: ('A' for Active; 'I' for Inactive)
REMARK    1  A    between atoms: C_2  and  C_22
REMARK    2  A    between atoms: N_3  and  C_4
REMARK    3  A    between atoms: C_7  and  N_8
REMARK    4  A    between atoms: C_15  and  N_16
REMARK    5  A    between atoms: N_25  and  C_26
REMARK                            x       y       z     vdW  Elec       q    Type
REMARK                         _______ _______ _______ _____ _____    ______ ____
ROOT
ATOM      1  C   UNL     1      -0.238  11.344  21.652  0.00  0.00    +0.000 A 
ATOM      2  C   UNL     1      -1.232  11.249  22.634  0.00  0.00    +0.000 A 
ATOM      3  C   UNL     1      -1.738  12.389  23.255  0.00  0.00    +0.000 A 
ATOM      4  C   UNL     1      -1.263  13.661  22.939  0.00  0.00    +0.000 A 
ATOM      5  C   UNL     1      -0.244  13.725  21.967  0.00  0.00    +0.000 A 
ATOM      6  C   UNL     1       0.293  12.598  21.283  0.00  0.00    +0.000 A 
ENDROOT
BRANCH   4   7
ATOM      7  N   UNL     1      -1.745  14.782  23.584  0.00  0.00    +0.000 N 
ATOM      8  C   UNL     1      -1.061  15.427  24.715  0.00  0.00    +0.000 C 
ATOM      9  C   UNL     1      -2.071  15.665  25.855  0.00  0.00    +0.000 C 
ATOM     10  O   UNL     1      -3.231  16.392  25.415  0.00  0.00    +0.000 OA
ATOM     11  C   UNL     1      -3.895  15.676  24.359  0.00  0.00    +0.000 C 
ATOM     12  C   UNL     1      -2.964  15.485  23.153  0.00  0.00    +0.000 C 
ENDBRANCH   4   7
BRANCH   6  13
ATOM     13  N   UNL     1       1.363  12.781  20.414  0.00  0.00    +0.000 N 
ATOM     14  C   UNL     1       2.667  13.324  20.831  0.00  0.00    +0.000 C 
ATOM     15  C   UNL     1       3.246  14.248  19.745  0.00  0.00    +0.000 C 
ATOM     16  O   UNL     1       3.272  13.623  18.454  0.00  0.00    +0.000 OA
ATOM     17  C   UNL     1       1.941  13.244  18.068  0.00  0.00    +0.000 C 
ATOM     18  C   UNL     1       1.355  12.222  19.051  0.00  0.00    +0.000 C 
ENDBRANCH   6  13
BRANCH   1  21
ATOM     19  O   UNL     1       1.679   9.505  22.610  0.00  0.00    +0.000 OA
ATOM     20  C   UNL     1       1.107   9.314  21.540  0.00  0.00    +0.000 C 
ATOM     21  N   UNL     1       0.141  10.147  21.001  0.00  0.00    +0.000 N 
ATOM     22  H   UNL     1      -0.029  10.063  20.008  0.00  0.00    +0.000 HD
BRANCH  20  23
ATOM     23  C   UNL     1       1.470   8.168  20.712  0.00  0.00    +0.000 A 
ATOM     24  C   UNL     1       2.094   8.253  19.453  0.00  0.00    +0.000 A 
ATOM     25  N   UNL     1       2.336   7.036  18.973  0.00  0.00    +0.000 NA
ATOM     26  N   UNL     1       1.818   6.231  19.935  0.00  0.00    +0.000 N 
ATOM     27  N   UNL     1       1.260   6.869  21.016  0.00  0.00    +0.000 NA
BRANCH  26  28
ATOM     28  C   UNL     1       1.824   4.814  19.775  0.00  0.00    +0.000 A 
ATOM     29  C   UNL     1       1.855   4.274  18.478  0.00  0.00    +0.000 A 
ATOM     30  C   UNL     1       1.844   2.888  18.305  0.00  0.00    +0.000 A 
ATOM     31  C   UNL     1       1.790   2.051  19.407  0.00  0.00    +0.000 A 
ATOM     32  C   UNL     1       1.776   2.578  20.697  0.00  0.00    +0.000 A 
ATOM     33  C   UNL     1       1.802   3.961  20.889  0.00  0.00    +0.000 A 
ENDBRANCH  26  28
ENDBRANCH  20  23
ENDBRANCH   1  21
TORSDOF 5
ENDMDL
