MODEL 1
REMARK VINA RESULT:      -8.4      0.000      0.000
REMARK  Name = 
REMARK  6 active torsions:
REMARK  status: ('A' for Active; 'I' for Inactive)
REMARK    1  A    between atoms: C_1  and  S_2
REMARK    2  A    between atoms: S_2  and  C_3
REMARK    3  A    between atoms: C_6  and  C_7
REMARK    4  A    between atoms: C_14  and  C_15
REMARK    5  A    between atoms: C_17  and  C_18
REMARK    6  A    between atoms: C_20  and  C_21
REMARK                            x       y       z     vdW  Elec       q    Type
REMARK                         _______ _______ _______ _____ _____    ______ ____
ROOT
ATOM      1  C   UNL     1       1.610   7.596  20.204  0.00  0.00    +0.000 A 
ATOM      2  C   UNL     1       1.127   6.480  20.944  0.00  0.00    +0.000 A 
ATOM      3  C   UNL     1       1.544   5.177  20.678  0.00  0.00    +0.000 A 
ATOM      4  C   UNL     1       2.445   5.005  19.653  0.00  0.00    +0.000 A 
ATOM      5  C   UNL     1       2.942   6.063  18.886  0.00  0.00    +0.000 A 
ATOM      6  C   UNL     1       2.524   7.358  19.147  0.00  0.00    +0.000 A 
ATOM      7  C   UNL     1       3.868   5.450  17.918  0.00  0.00    +0.000 C 
ATOM      8  C   UNL     1       4.627   6.088  17.010  0.00  0.00    +0.000 C 
ATOM      9  C   UNL     1       3.828   3.954  18.161  0.00  0.00    +0.000 C 
ATOM     10  O   UNL     1       4.382   3.050  17.568  0.00  0.00    +0.000 OA
ATOM     11  N   UNL     1       2.967   3.793  19.232  0.00  0.00    +0.000 N 
ATOM     12  H   UNL     1       2.753   2.885  19.611  0.00  0.00    +0.000 HD
ENDROOT
BRANCH   8  13
ATOM     13  C   UNL     1       5.517   5.384  16.161  0.00  0.00    +0.000 A 
ATOM     14  N   UNL     1       5.094   5.078  14.890  0.00  0.00    +0.000 N 
ATOM     15  C   UNL     1       6.020   4.276  14.268  0.00  0.00    +0.000 A 
ATOM     16  C   UNL     1       5.778   3.679  12.932  0.00  0.00    +0.000 C 
ATOM     17  C   UNL     1       7.086   4.140  15.130  0.00  0.00    +0.000 A 
ATOM     18  C   UNL     1       6.778   4.839  16.332  0.00  0.00    +0.000 A 
ATOM     19  C   UNL     1       7.625   4.891  17.552  0.00  0.00    +0.000 C 
ATOM     20  H   UNL     1       4.194   5.328  14.504  0.00  0.00    +0.000 HD
ENDBRANCH   8  13
BRANCH   1  24
ATOM     21  C   UNL     1       0.418  11.496  21.212  0.00  0.00    +0.000 A 
ATOM     22  C   UNL     1       0.636  11.105  19.894  0.00  0.00    +0.000 A 
ATOM     23  N   UNL     1       1.023   9.847  19.537  0.00  0.00    +0.000 NA
ATOM     24  C   UNL     1       1.182   8.964  20.554  0.00  0.00    +0.000 A 
ATOM     25  C   UNL     1       0.956   9.369  21.871  0.00  0.00    +0.000 A 
ATOM     26  N   UNL     1       0.574  10.620  22.224  0.00  0.00    +0.000 NA
BRANCH  21  28
ATOM     27  C   UNL     1      -1.235  12.847  22.949  0.00  0.00    +0.000 C 
ATOM     28  S   UNL     1      -0.054  13.165  21.607  0.00  0.00    +0.000 S 
ENDBRANCH  21  28
ENDBRANCH   1  24
TORSDOF 3
ENDMDL
MODEL 2
REMARK VINA RESULT:      -8.1      3.567      8.789
REMARK  Name = 
REMARK  6 active torsions:
REMARK  status: ('A' for Active; 'I' for Inactive)
REMARK    1  A    between atoms: C_1  and  S_2
REMARK    2  A    between atoms: S_2  and  C_3
REMARK    3  A    between atoms: C_6  and  C_7
REMARK    4  A    between atoms: C_14  and  C_15
REMARK    5  A    between atoms: C_17  and  C_18
REMARK    6  A    between atoms: C_20  and  C_21
REMARK                            x       y       z     vdW  Elec       q    Type
REMARK                         _______ _______ _______ _____ _____    ______ ____
ROOT
ATOM      1  C   UNL     1       3.866   5.855  17.916  0.00  0.00    +0.000 A 
ATOM      2  C   UNL     1       3.733   4.989  19.037  0.00  0.00    +0.000 A 
ATOM      3  C   UNL     1       2.951   5.320  20.142  0.00  0.00    +0.000 A 
ATOM      4  C   UNL     1       2.312   6.537  20.114  0.00  0.00    +0.000 A 
ATOM      5  C   UNL     1       2.418   7.432  19.045  0.00  0.00    +0.000 A 
ATOM      6  C   UNL     1       3.199   7.105  17.948  0.00  0.00    +0.000 A 
ATOM      7  C   UNL     1       1.585   8.591  19.414  0.00  0.00    +0.000 C 
ATOM      8  C   UNL     1       1.336   9.679  18.665  0.00  0.00    +0.000 C 
ATOM      9  C   UNL     1       1.030   8.308  20.796  0.00  0.00    +0.000 C 
ATOM     10  O   UNL     1       0.343   9.001  21.521  0.00  0.00    +0.000 OA
ATOM     11  N   UNL     1       1.504   7.048  21.116  0.00  0.00    +0.000 N 
ATOM     12  H   UNL     1       1.285   6.604  21.994  0.00  0.00    +0.000 HD
ENDROOT
BRANCH   8  13
ATOM     13  C   UNL     1       0.477  10.711  19.117  0.00  0.00    +0.000 A 
ATOM     14  N   UNL     1       0.975  11.623  20.015  0.00  0.00    +0.000 N 
ATOM     15  C   UNL     1      -0.030  12.452  20.449  0.00  0.00    +0.000 A 
ATOM     16  C   UNL     1       0.179  13.457  21.519  0.00  0.00    +0.000 C 
ATOM     17  C   UNL     1      -1.169  12.112  19.751  0.00  0.00    +0.000 A 
ATOM     18  C   UNL     1      -0.859  11.010  18.904  0.00  0.00    +0.000 A 
ATOM     19  C   UNL     1      -1.817  10.285  18.030  0.00  0.00    +0.000 C 
ATOM     20  H   UNL     1       1.920  11.625  20.373  0.00  0.00    +0.000 HD
ENDBRANCH   8  13
BRANCH   1  24
ATOM     21  C   UNL     1       6.156   4.687  14.593  0.00  0.00    +0.000 A 
ATOM     22  C   UNL     1       5.625   3.763  15.488  0.00  0.00    +0.000 A 
ATOM     23  N   UNL     1       4.879   4.113  16.575  0.00  0.00    +0.000 NA
ATOM     24  C   UNL     1       4.662   5.441  16.744  0.00  0.00    +0.000 A 
ATOM     25  C   UNL     1       5.198   6.356  15.836  0.00  0.00    +0.000 A 
ATOM     26  N   UNL     1       5.941   6.008  14.759  0.00  0.00    +0.000 NA
BRANCH  21  28
ATOM     27  C   UNL     1       5.900   3.261  12.254  0.00  0.00    +0.000 C 
ATOM     28  S   UNL     1       7.150   4.162  13.214  0.00  0.00    +0.000 S 
ENDBRANCH  21  28
ENDBRANCH   1  24
TORSDOF 3
ENDMDL
MODEL 3
REMARK VINA RESULT:      -8.1      1.352      1.680
REMARK  Name = 
REMARK  6 active torsions:
REMARK  status: ('A' for Active; 'I' for Inactive)
REMARK    1  A    between atoms: C_1  and  S_2
REMARK    2  A    between atoms: S_2  and  C_3
REMARK    3  A    between atoms: C_6  and  C_7
REMARK    4  A    between atoms: C_14  and  C_15
REMARK    5  A    between atoms: C_17  and  C_18
REMARK    6  A    between atoms: C_20  and  C_21
REMARK                            x       y       z     vdW  Elec       q    Type
REMARK                         _______ _______ _______ _____ _____    ______ ____
ROOT
ATOM      1  C   UNL     1       1.307   8.520  19.869  0.00  0.00    +0.000 A 
ATOM      2  C   UNL     1       0.958   7.518  20.818  0.00  0.00    +0.000 A 
ATOM      3  C   UNL     1       1.540   6.252  20.809  0.00  0.00    +0.000 A 
ATOM      4  C   UNL     1       2.470   5.998  19.828  0.00  0.00    +0.000 A 
ATOM      5  C   UNL     1       2.840   6.940  18.863  0.00  0.00    +0.000 A 
ATOM      6  C   UNL     1       2.258   8.198  18.869  0.00  0.00    +0.000 A 
ATOM      7  C   UNL     1       3.850   6.272  18.023  0.00  0.00    +0.000 C 
ATOM      8  C   UNL     1       4.536   6.810  17.000  0.00  0.00    +0.000 C 
ATOM      9  C   UNL     1       3.996   4.859  18.555  0.00  0.00    +0.000 C 
ATOM     10  O   UNL     1       4.668   3.934  18.145  0.00  0.00    +0.000 OA
ATOM     11  N   UNL     1       3.147   4.804  19.647  0.00  0.00    +0.000 N 
ATOM     12  H   UNL     1       3.043   3.967  20.199  0.00  0.00    +0.000 HD
ENDROOT
BRANCH   8  13
ATOM     13  C   UNL     1       5.519   6.072  16.295  0.00  0.00    +0.000 A 
ATOM     14  N   UNL     1       5.148   5.443  15.132  0.00  0.00    +0.000 N 
ATOM     15  C   UNL     1       6.180   4.664  14.669  0.00  0.00    +0.000 A 
ATOM     16  C   UNL     1       6.030   3.766  13.499  0.00  0.00    +0.000 C 
ATOM     17  C   UNL     1       7.253   4.868  15.510  0.00  0.00    +0.000 A 
ATOM     18  C   UNL     1       6.845   5.758  16.544  0.00  0.00    +0.000 A 
ATOM     19  C   UNL     1       7.673   6.190  17.700  0.00  0.00    +0.000 C 
ATOM     20  H   UNL     1       4.223   5.476  14.726  0.00  0.00    +0.000 HD
ENDBRANCH   8  13
BRANCH   1  24
ATOM     21  C   UNL     1      -0.424  12.342  20.070  0.00  0.00    +0.000 A 
ATOM     22  C   UNL     1      -0.773  11.324  20.953  0.00  0.00    +0.000 A 
ATOM     23  N   UNL     1      -0.229  10.075  20.911  0.00  0.00    +0.000 NA
ATOM     24  C   UNL     1       0.704   9.865  19.948  0.00  0.00    +0.000 A 
ATOM     25  C   UNL     1       1.047  10.896  19.073  0.00  0.00    +0.000 A 
ATOM     26  N   UNL     1       0.503  12.137  19.114  0.00  0.00    +0.000 NA
BRANCH  21  28
ATOM     27  C   UNL     1      -0.191  14.848  18.955  0.00  0.00    +0.000 C 
ATOM     28  S   UNL     1      -1.200  13.941  20.161  0.00  0.00    +0.000 S 
ENDBRANCH  21  28
ENDBRANCH   1  24
TORSDOF 3
ENDMDL
MODEL 4
REMARK VINA RESULT:      -7.9      3.681      8.700
REMARK  Name = 
REMARK  6 active torsions:
REMARK  status: ('A' for Active; 'I' for Inactive)
REMARK    1  A    between atoms: C_1  and  S_2
REMARK    2  A    between atoms: S_2  and  C_3
REMARK    3  A    between atoms: C_6  and  C_7
REMARK    4  A    between atoms: C_14  and  C_15
REMARK    5  A    between atoms: C_17  and  C_18
REMARK    6  A    between atoms: C_20  and  C_21
REMARK                            x       y       z     vdW  Elec       q    Type
REMARK                         _______ _______ _______ _____ _____    ______ ____
ROOT
ATOM      1  C   UNL     1       3.817   6.006  17.895  0.00  0.00    +0.000 A 
ATOM      2  C   UNL     1       3.710   5.210  19.070  0.00  0.00    +0.000 A 
ATOM      3  C   UNL     1       2.940   5.601  20.164  0.00  0.00    +0.000 A 
ATOM      4  C   UNL     1       2.287   6.807  20.070  0.00  0.00    +0.000 A 
ATOM      5  C   UNL     1       2.367   7.635  18.946  0.00  0.00    +0.000 A 
ATOM      6  C   UNL     1       3.136   7.248  17.860  0.00  0.00    +0.000 A 
ATOM      7  C   UNL     1       1.526   8.805  19.254  0.00  0.00    +0.000 C 
ATOM      8  C   UNL     1       1.254   9.842  18.442  0.00  0.00    +0.000 C 
ATOM      9  C   UNL     1       0.994   8.604  20.660  0.00  0.00    +0.000 C 
ATOM     10  O   UNL     1       0.310   9.333  21.350  0.00  0.00    +0.000 OA
ATOM     11  N   UNL     1       1.487   7.371  21.051  0.00  0.00    +0.000 N 
ATOM     12  H   UNL     1       1.286   6.981  21.957  0.00  0.00    +0.000 HD
ENDROOT
BRANCH   8  13
ATOM     13  C   UNL     1       0.389  10.890  18.842  0.00  0.00    +0.000 A 
ATOM     14  N   UNL     1      -0.966  10.677  18.770  0.00  0.00    +0.000 N 
ATOM     15  C   UNL     1      -1.641  11.838  19.055  0.00  0.00    +0.000 A 
ATOM     16  C   UNL     1      -3.115  11.948  18.930  0.00  0.00    +0.000 C 
ATOM     17  C   UNL     1      -0.698  12.784  19.395  0.00  0.00    +0.000 A 
ATOM     18  C   UNL     1       0.591  12.194  19.264  0.00  0.00    +0.000 A 
ATOM     19  C   UNL     1       1.891  12.885  19.467  0.00  0.00    +0.000 C 
ATOM     20  H   UNL     1      -1.401   9.817  18.462  0.00  0.00    +0.000 HD
ENDBRANCH   8  13
BRANCH   1  24
ATOM     21  C   UNL     1       6.072   4.655  14.619  0.00  0.00    +0.000 A 
ATOM     22  C   UNL     1       5.486   3.778  15.527  0.00  0.00    +0.000 A 
ATOM     23  N   UNL     1       4.750   4.187  16.599  0.00  0.00    +0.000 NA
ATOM     24  C   UNL     1       4.600   5.528  16.740  0.00  0.00    +0.000 A 
ATOM     25  C   UNL     1       5.189   6.396  15.819  0.00  0.00    +0.000 A 
ATOM     26  N   UNL     1       5.923   5.988  14.755  0.00  0.00    +0.000 NA
BRANCH  21  28
ATOM     27  C   UNL     1       5.748   3.276  12.259  0.00  0.00    +0.000 C 
ATOM     28  S   UNL     1       7.049   4.051  13.260  0.00  0.00    +0.000 S 
ENDBRANCH  21  28
ENDBRANCH   1  24
TORSDOF 3
ENDMDL
MODEL 5
REMARK VINA RESULT:      -7.6      5.504     10.278
REMARK  Name = 
REMARK  6 active torsions:
REMARK  status: ('A' for Active; 'I' for Inactive)
REMARK    1  A    between atoms: C_1  and  S_2
REMARK    2  A    between atoms: S_2  and  C_3
REMARK    3  A    between atoms: C_6  and  C_7
REMARK    4  A    between atoms: C_14  and  C_15
REMARK    5  A    between atoms: C_17  and  C_18
REMARK    6  A    between atoms: C_20  and  C_21
REMARK                            x       y       z     vdW  Elec       q    Type
REMARK                         _______ _______ _______ _____ _____    ______ ____
ROOT
ATOM      1  C   UNL     1       0.430  10.061  19.537  0.00  0.00    +0.000 A 
ATOM      2  C   UNL     1       0.733  10.826  20.699  0.00  0.00    +0.000 A 
ATOM      3  C   UNL     1      -0.158  11.757  21.227  0.00  0.00    +0.000 A 
ATOM      4  C   UNL     1      -1.355  11.922  20.570  0.00  0.00    +0.000 A 
ATOM      5  C   UNL     1      -1.699  11.207  19.418  0.00  0.00    +0.000 A 
ATOM      6  C   UNL     1      -0.811  10.284  18.889  0.00  0.00    +0.000 A 
ATOM      7  C   UNL     1      -3.046  11.677  19.048  0.00  0.00    +0.000 C 
ATOM      8  C   UNL     1      -3.809  11.228  18.035  0.00  0.00    +0.000 C 
ATOM      9  C   UNL     1      -3.427  12.747  20.052  0.00  0.00    +0.000 C 
ATOM     10  O   UNL     1      -4.417  13.450  20.109  0.00  0.00    +0.000 OA
ATOM     11  N   UNL     1      -2.360  12.802  20.932  0.00  0.00    +0.000 N 
ATOM     12  H   UNL     1      -2.347  13.439  21.712  0.00  0.00    +0.000 HD
ENDROOT
BRANCH   8  13
ATOM     13  C   UNL     1      -5.113  11.733  17.810  0.00  0.00    +0.000 A 
ATOM     14  N   UNL     1      -5.244  12.888  17.079  0.00  0.00    +0.000 N 
ATOM     15  C   UNL     1      -6.554  13.304  17.086  0.00  0.00    +0.000 A 
ATOM     16  C   UNL     1      -6.979  14.592  16.487  0.00  0.00    +0.000 C 
ATOM     17  C   UNL     1      -7.280  12.349  17.765  0.00  0.00    +0.000 A 
ATOM     18  C   UNL     1      -6.377  11.349  18.227  0.00  0.00    +0.000 A 
ATOM     19  C   UNL     1      -6.732  10.173  19.064  0.00  0.00    +0.000 C 
ATOM     20  H   UNL     1      -4.477  13.407  16.673  0.00  0.00    +0.000 HD
ENDBRANCH   8  13
BRANCH   1  24
ATOM     21  C   UNL     1       3.161   7.195  18.132  0.00  0.00    +0.000 A 
ATOM     22  C   UNL     1       2.585   7.112  19.396  0.00  0.00    +0.000 A 
ATOM     23  N   UNL     1       1.697   8.027  19.879  0.00  0.00    +0.000 NA
ATOM     24  C   UNL     1       1.381   9.047  19.042  0.00  0.00    +0.000 A 
ATOM     25  C   UNL     1       1.963   9.115  17.775  0.00  0.00    +0.000 A 
ATOM     26  N   UNL     1       2.848   8.207  17.298  0.00  0.00    +0.000 NA
BRANCH  21  28
ATOM     27  C   UNL     1       4.802   5.246  19.173  0.00  0.00    +0.000 C 
ATOM     28  S   UNL     1       4.339   5.982  17.579  0.00  0.00    +0.000 S 
ENDBRANCH  21  28
ENDBRANCH   1  24
TORSDOF 3
ENDMDL
MODEL 6
REMARK VINA RESULT:      -7.4      5.453     10.209
REMARK  Name = 
REMARK  6 active torsions:
REMARK  status: ('A' for Active; 'I' for Inactive)
REMARK    1  A    between atoms: C_1  and  S_2
REMARK    2  A    between atoms: S_2  and  C_3
REMARK    3  A    between atoms: C_6  and  C_7
REMARK    4  A    between atoms: C_14  and  C_15
REMARK    5  A    between atoms: C_17  and  C_18
REMARK    6  A    between atoms: C_20  and  C_21
REMARK                            x       y       z     vdW  Elec       q    Type
REMARK                         _______ _______ _______ _____ _____    ______ ____
ROOT
ATOM      1  C   UNL     1       0.472   9.977  19.622  0.00  0.00    +0.000 A 
ATOM      2  C   UNL     1       0.798  10.798  20.737  0.00  0.00    +0.000 A 
ATOM      3  C   UNL     1      -0.075  11.770  21.223  0.00  0.00    +0.000 A 
ATOM      4  C   UNL     1      -1.276  11.916  20.568  0.00  0.00    +0.000 A 
ATOM      5  C   UNL     1      -1.641  11.146  19.460  0.00  0.00    +0.000 A 
ATOM      6  C   UNL     1      -0.772  10.182  18.974  0.00  0.00    +0.000 A 
ATOM      7  C   UNL     1      -2.985  11.614  19.077  0.00  0.00    +0.000 C 
ATOM      8  C   UNL     1      -3.764  11.123  18.097  0.00  0.00    +0.000 C 
ATOM      9  C   UNL     1      -3.341  12.742  20.025  0.00  0.00    +0.000 C 
ATOM     10  O   UNL     1      -4.320  13.462  20.053  0.00  0.00    +0.000 OA
ATOM     11  N   UNL     1      -2.265  12.829  20.891  0.00  0.00    +0.000 N 
ATOM     12  H   UNL     1      -2.235  13.507  21.636  0.00  0.00    +0.000 HD
ENDROOT
BRANCH   8  13
ATOM     13  C   UNL     1      -5.064  11.633  17.856  0.00  0.00    +0.000 A 
ATOM     14  N   UNL     1      -5.180  12.794  17.131  0.00  0.00    +0.000 N 
ATOM     15  C   UNL     1      -6.488  13.214  17.122  0.00  0.00    +0.000 A 
ATOM     16  C   UNL     1      -6.900  14.507  16.525  0.00  0.00    +0.000 C 
ATOM     17  C   UNL     1      -7.227  12.257  17.785  0.00  0.00    +0.000 A 
ATOM     18  C   UNL     1      -6.334  11.252  18.254  0.00  0.00    +0.000 A 
ATOM     19  C   UNL     1      -6.705  10.071  19.077  0.00  0.00    +0.000 C 
ATOM     20  H   UNL     1      -4.405  13.312  16.740  0.00  0.00    +0.000 HD
ENDBRANCH   8  13
BRANCH   1  24
ATOM     21  C   UNL     1       3.102   6.959  18.346  0.00  0.00    +0.000 A 
ATOM     22  C   UNL     1       2.732   8.017  17.520  0.00  0.00    +0.000 A 
ATOM     23  N   UNL     1       1.881   9.009  17.907  0.00  0.00    +0.000 NA
ATOM     24  C   UNL     1       1.404   8.924  19.174  0.00  0.00    +0.000 A 
ATOM     25  C   UNL     1       1.788   7.860  19.992  0.00  0.00    +0.000 A 
ATOM     26  N   UNL     1       2.631   6.872  19.606  0.00  0.00    +0.000 NA
BRANCH  21  28
ATOM     27  C   UNL     1       5.072   6.587  16.460  0.00  0.00    +0.000 C 
ATOM     28  S   UNL     1       4.193   5.679  17.764  0.00  0.00    +0.000 S 
ENDBRANCH  21  28
ENDBRANCH   1  24
TORSDOF 3
ENDMDL
MODEL 7
REMARK VINA RESULT:      -7.4      3.655      8.851
REMARK  Name = 
REMARK  6 active torsions:
REMARK  status: ('A' for Active; 'I' for Inactive)
REMARK    1  A    between atoms: C_1  and  S_2
REMARK    2  A    between atoms: S_2  and  C_3
REMARK    3  A    between atoms: C_6  and  C_7
REMARK    4  A    between atoms: C_14  and  C_15
REMARK    5  A    between atoms: C_17  and  C_18
REMARK    6  A    between atoms: C_20  and  C_21
REMARK                            x       y       z     vdW  Elec       q    Type
REMARK                         _______ _______ _______ _____ _____    ______ ____
ROOT
ATOM      1  C   UNL     1       3.163   6.479  18.430  0.00  0.00    +0.000 A 
ATOM      2  C   UNL     1       2.801   5.710  19.572  0.00  0.00    +0.000 A 
ATOM      3  C   UNL     1       1.972   6.214  20.572  0.00  0.00    +0.000 A 
ATOM      4  C   UNL     1       1.518   7.503  20.419  0.00  0.00    +0.000 A 
ATOM      5  C   UNL     1       1.853   8.307  19.325  0.00  0.00    +0.000 A 
ATOM      6  C   UNL     1       2.681   7.808  18.332  0.00  0.00    +0.000 A 
ATOM      7  C   UNL     1       1.162   9.589  19.549  0.00  0.00    +0.000 C 
ATOM      8  C   UNL     1       1.144  10.652  18.727  0.00  0.00    +0.000 C 
ATOM      9  C   UNL     1       0.442   9.472  20.879  0.00  0.00    +0.000 C 
ATOM     10  O   UNL     1      -0.206  10.295  21.493  0.00  0.00    +0.000 OA
ATOM     11  N   UNL     1       0.699   8.180  21.306  0.00  0.00    +0.000 N 
ATOM     12  H   UNL     1       0.336   7.827  22.177  0.00  0.00    +0.000 HD
ENDROOT
BRANCH   8  13
ATOM     13  C   UNL     1       0.400  11.818  19.037  0.00  0.00    +0.000 A 
ATOM     14  N   UNL     1       0.944  12.718  19.920  0.00  0.00    +0.000 N 
ATOM     15  C   UNL     1       0.031  13.702  20.211  0.00  0.00    +0.000 A 
ATOM     16  C   UNL     1       0.289  14.744  21.234  0.00  0.00    +0.000 C 
ATOM     17  C   UNL     1      -1.083  13.466  19.434  0.00  0.00    +0.000 A 
ATOM     18  C   UNL     1      -0.860  12.275  18.687  0.00  0.00    +0.000 A 
ATOM     19  C   UNL     1      -1.834  11.622  17.774  0.00  0.00    +0.000 C 
ATOM     20  H   UNL     1       1.849  12.621  20.361  0.00  0.00    +0.000 HD
ENDBRANCH   8  13
BRANCH   1  24
ATOM     21  C   UNL     1       5.522   4.790  15.391  0.00  0.00    +0.000 A 
ATOM     22  C   UNL     1       5.476   6.163  15.617  0.00  0.00    +0.000 A 
ATOM     23  N   UNL     1       4.720   6.739  16.594  0.00  0.00    +0.000 NA
ATOM     24  C   UNL     1       4.001   5.888  17.368  0.00  0.00    +0.000 A 
ATOM     25  C   UNL     1       4.060   4.513  17.133  0.00  0.00    +0.000 A 
ATOM     26  N   UNL     1       4.809   3.942  16.160  0.00  0.00    +0.000 NA
BRANCH  21  28
ATOM     27  C   UNL     1       5.193   3.651  12.907  0.00  0.00    +0.000 C 
ATOM     28  S   UNL     1       6.506   4.109  14.074  0.00  0.00    +0.000 S 
ENDBRANCH  21  28
ENDBRANCH   1  24
TORSDOF 3
ENDMDL
MODEL 8
REMARK VINA RESULT:      -7.3      2.902      4.348
REMARK  Name = 
REMARK  6 active torsions:
REMARK  status: ('A' for Active; 'I' for Inactive)
REMARK    1  A    between atoms: C_1  and  S_2
REMARK    2  A    between atoms: S_2  and  C_3
REMARK    3  A    between atoms: C_6  and  C_7
REMARK    4  A    between atoms: C_14  and  C_15
REMARK    5  A    between atoms: C_17  and  C_18
REMARK    6  A    between atoms: C_20  and  C_21
REMARK                            x       y       z     vdW  Elec       q    Type
REMARK                         _______ _______ _______ _____ _____    ______ ____
ROOT
ATOM      1  C   UNL     1       0.896  10.015  20.009  0.00  0.00    +0.000 A 
ATOM      2  C   UNL     1       1.445  10.527  18.801  0.00  0.00    +0.000 A 
ATOM      3  C   UNL     1       2.149   9.723  17.906  0.00  0.00    +0.000 A 
ATOM      4  C   UNL     1       2.306   8.400  18.244  0.00  0.00    +0.000 A 
ATOM      5  C   UNL     1       1.799   7.846  19.424  0.00  0.00    +0.000 A 
ATOM      6  C   UNL     1       1.103   8.646  20.316  0.00  0.00    +0.000 A 
ATOM      7  C   UNL     1       2.179   6.423  19.390  0.00  0.00    +0.000 C 
ATOM      8  C   UNL     1       1.858   5.478  20.291  0.00  0.00    +0.000 C 
ATOM      9  C   UNL     1       2.982   6.215  18.121  0.00  0.00    +0.000 C 
ATOM     10  O   UNL     1       3.545   5.222  17.705  0.00  0.00    +0.000 OA
ATOM     11  N   UNL     1       2.980   7.450  17.495  0.00  0.00    +0.000 N 
ATOM     12  H   UNL     1       3.448   7.602  16.616  0.00  0.00    +0.000 HD
ENDROOT
BRANCH   8  13
ATOM     13  C   UNL     1       2.249   4.127  20.121  0.00  0.00    +0.000 A 
ATOM     14  N   UNL     1       3.475   3.741  20.605  0.00  0.00    +0.000 N 
ATOM     15  C   UNL     1       3.745   2.449  20.226  0.00  0.00    +0.000 A 
ATOM     16  C   UNL     1       5.052   1.802  20.493  0.00  0.00    +0.000 C 
ATOM     17  C   UNL     1       2.634   1.980  19.558  0.00  0.00    +0.000 A 
ATOM     18  C   UNL     1       1.680   3.036  19.486  0.00  0.00    +0.000 A 
ATOM     19  C   UNL     1       0.368   2.980  18.791  0.00  0.00    +0.000 C 
ATOM     20  H   UNL     1       4.122   4.347  21.091  0.00  0.00    +0.000 HD
ENDBRANCH   8  13
BRANCH   1  24
ATOM     21  C   UNL     1      -1.311  12.515  22.564  0.00  0.00    +0.000 A 
ATOM     22  C   UNL     1      -1.124  12.812  21.217  0.00  0.00    +0.000 A 
ATOM     23  N   UNL     1      -0.412  12.020  20.365  0.00  0.00    +0.000 NA
ATOM     24  C   UNL     1       0.111  10.890  20.902  0.00  0.00    +0.000 A 
ATOM     25  C   UNL     1      -0.088  10.603  22.253  0.00  0.00    +0.000 A 
ATOM     26  N   UNL     1      -0.793  11.392  23.100  0.00  0.00    +0.000 NA
BRANCH  21  28
ATOM     27  C   UNL     1      -3.684  12.585  23.957  0.00  0.00    +0.000 C 
ATOM     28  S   UNL     1      -2.224  13.612  23.627  0.00  0.00    +0.000 S 
ENDBRANCH  21  28
ENDBRANCH   1  24
TORSDOF 3
ENDMDL
