MODEL 1
REMARK VINA RESULT:      -8.7      0.000      0.000
REMARK  Name = 
REMARK  6 active torsions:
REMARK  status: ('A' for Active; 'I' for Inactive)
REMARK    1  A    between atoms: C_1  and  C_2
REMARK    2  A    between atoms: C_5  and  C_6
REMARK    3  A    between atoms: C_7  and  C_8
REMARK    4  A    between atoms: C_8  and  N_9
REMARK    5  A    between atoms: C_12  and  N_13
REMARK    6  A    between atoms: C_14  and  C_16
REMARK                            x       y       z     vdW  Elec       q    Type
REMARK                         _______ _______ _______ _____ _____    ______ ____
ROOT
ATOM      1  N   UNL     1       4.462   4.654  18.538  0.00  0.00    +0.000 N 
ATOM      2  C   UNL     1       3.268   4.226  18.041  0.00  0.00    +0.000 A 
ATOM      3  N   UNL     1       2.276   4.899  18.568  0.00  0.00    +0.000 NA
ATOM      4  C   UNL     1       2.830   5.753  19.475  0.00  0.00    +0.000 A 
ATOM      5  C   UNL     1       4.197   5.598  19.502  0.00  0.00    +0.000 A 
ENDROOT
BRANCH   4   6
ATOM      6  N   UNL     1       2.100   6.634  20.242  0.00  0.00    +0.000 N 
ATOM      7  C   UNL     1       1.803   7.914  19.805  0.00  0.00    +0.000 C 
ATOM      8  O   UNL     1       2.124   8.411  18.732  0.00  0.00    +0.000 OA
ATOM      9  H   UNL     1       1.753   6.296  21.123  0.00  0.00    +0.000 HD
BRANCH   7  10
ATOM     10  C   UNL     1       1.003   8.776  20.720  0.00  0.00    +0.000 A 
ATOM     11  C   UNL     1       1.065   8.689  22.124  0.00  0.00    +0.000 A 
ATOM     12  C   UNL     1       0.355   9.599  22.921  0.00  0.00    +0.000 A 
ATOM     13  C   UNL     1      -0.392  10.587  22.299  0.00  0.00    +0.000 A 
ATOM     14  C   UNL     1      -0.463  10.669  20.907  0.00  0.00    +0.000 A 
ATOM     15  C   UNL     1       0.220   9.772  20.110  0.00  0.00    +0.000 A 
ATOM     16  C   UNL     1      -1.345  11.792  20.468  0.00  0.00    +0.000 C 
ATOM     17  C   UNL     1      -1.401  12.635  21.748  0.00  0.00    +0.000 C 
ATOM     18  C   UNL     1      -1.225  11.663  22.926  0.00  0.00    +0.000 C 
ENDBRANCH   7  10
ENDBRANCH   4   6
BRANCH   1  19
ATOM     19  C   UNL     1       5.765   4.130  18.174  0.00  0.00    +0.000 C 
BRANCH  19  26
ATOM     20  C   UNL     1       5.893   3.697  14.986  0.00  0.00    +0.000 C 
ATOM     21  C   UNL     1       6.551   4.760  15.783  0.00  0.00    +0.000 A 
ATOM     22  N   UNL     1       7.303   5.673  15.163  0.00  0.00    +0.000 NA
ATOM     23  O   UNL     1       7.791   6.492  16.153  0.00  0.00    +0.000 OA
ATOM     24  C   UNL     1       7.339   6.075  17.365  0.00  0.00    +0.000 A 
ATOM     25  C   UNL     1       7.825   6.873  18.510  0.00  0.00    +0.000 C 
ATOM     26  C   UNL     1       6.521   4.970  17.197  0.00  0.00    +0.000 A 
ENDBRANCH  19  26
ENDBRANCH   1  19
TORSDOF 4
ENDMDL
MODEL 2
REMARK VINA RESULT:      -8.5      0.446      1.620
REMARK  Name = 
REMARK  6 active torsions:
REMARK  status: ('A' for Active; 'I' for Inactive)
REMARK    1  A    between atoms: C_1  and  C_2
REMARK    2  A    between atoms: C_5  and  C_6
REMARK    3  A    between atoms: C_7  and  C_8
REMARK    4  A    between atoms: C_8  and  N_9
REMARK    5  A    between atoms: C_12  and  N_13
REMARK    6  A    between atoms: C_14  and  C_16
REMARK                            x       y       z     vdW  Elec       q    Type
REMARK                         _______ _______ _______ _____ _____    ______ ____
ROOT
ATOM      1  N   UNL     1       4.373   4.557  18.587  0.00  0.00    +0.000 N 
ATOM      2  C   UNL     1       3.167   4.075  18.176  0.00  0.00    +0.000 A 
ATOM      3  N   UNL     1       2.186   4.752  18.718  0.00  0.00    +0.000 NA
ATOM      4  C   UNL     1       2.763   5.668  19.548  0.00  0.00    +0.000 A 
ATOM      5  C   UNL     1       4.133   5.546  19.512  0.00  0.00    +0.000 A 
ENDROOT
BRANCH   4   6
ATOM      6  N   UNL     1       2.049   6.572  20.303  0.00  0.00    +0.000 N 
ATOM      7  C   UNL     1       1.769   7.848  19.847  0.00  0.00    +0.000 C 
ATOM      8  O   UNL     1       2.091   8.323  18.765  0.00  0.00    +0.000 OA
ATOM      9  H   UNL     1       1.702   6.253  21.192  0.00  0.00    +0.000 HD
BRANCH   7  10
ATOM     10  C   UNL     1       0.986   8.737  20.752  0.00  0.00    +0.000 A 
ATOM     11  C   UNL     1       1.053   8.671  22.156  0.00  0.00    +0.000 A 
ATOM     12  C   UNL     1       0.361   9.605  22.942  0.00  0.00    +0.000 A 
ATOM     13  C   UNL     1      -0.373  10.594  22.308  0.00  0.00    +0.000 A 
ATOM     14  C   UNL     1      -0.449  10.655  20.915  0.00  0.00    +0.000 A 
ATOM     15  C   UNL     1       0.216   9.735  20.130  0.00  0.00    +0.000 A 
ATOM     16  C   UNL     1      -1.316  11.785  20.462  0.00  0.00    +0.000 C 
ATOM     17  C   UNL     1      -1.353  12.649  21.729  0.00  0.00    +0.000 C 
ATOM     18  C   UNL     1      -1.187  11.692  22.921  0.00  0.00    +0.000 C 
ENDBRANCH   7  10
ENDBRANCH   4   6
BRANCH   1  19
ATOM     19  C   UNL     1       5.669   4.045  18.184  0.00  0.00    +0.000 C 
BRANCH  19  26
ATOM     20  C   UNL     1       7.800   6.375  18.816  0.00  0.00    +0.000 C 
ATOM     21  C   UNL     1       7.334   5.909  17.488  0.00  0.00    +0.000 A 
ATOM     22  N   UNL     1       7.816   6.488  16.385  0.00  0.00    +0.000 NA
ATOM     23  O   UNL     1       7.186   5.869  15.331  0.00  0.00    +0.000 OA
ATOM     24  C   UNL     1       6.326   4.924  15.794  0.00  0.00    +0.000 A 
ATOM     25  C   UNL     1       5.572   4.210  14.743  0.00  0.00    +0.000 C 
ATOM     26  C   UNL     1       6.384   4.887  17.178  0.00  0.00    +0.000 A 
ENDBRANCH  19  26
ENDBRANCH   1  19
TORSDOF 4
ENDMDL
MODEL 3
REMARK VINA RESULT:      -8.5      0.677      1.414
REMARK  Name = 
REMARK  6 active torsions:
REMARK  status: ('A' for Active; 'I' for Inactive)
REMARK    1  A    between atoms: C_1  and  C_2
REMARK    2  A    between atoms: C_5  and  C_6
REMARK    3  A    between atoms: C_7  and  C_8
REMARK    4  A    between atoms: C_8  and  N_9
REMARK    5  A    between atoms: C_12  and  N_13
REMARK    6  A    between atoms: C_14  and  C_16
REMARK                            x       y       z     vdW  Elec       q    Type
REMARK                         _______ _______ _______ _____ _____    ______ ____
ROOT
ATOM      1  N   UNL     1       4.340   4.691  18.537  0.00  0.00    +0.000 N 
ATOM      2  C   UNL     1       3.099   4.133  18.472  0.00  0.00    +0.000 A 
ATOM      3  N   UNL     1       2.193   4.958  18.932  0.00  0.00    +0.000 NA
ATOM      4  C   UNL     1       2.864   6.066  19.359  0.00  0.00    +0.000 A 
ATOM      5  C   UNL     1       4.216   5.912  19.155  0.00  0.00    +0.000 A 
ENDROOT
BRANCH   4   6
ATOM      6  N   UNL     1       2.248   7.166  19.914  0.00  0.00    +0.000 N 
ATOM      7  C   UNL     1       1.805   8.226  19.140  0.00  0.00    +0.000 C 
ATOM      8  O   UNL     1       1.886   8.323  17.922  0.00  0.00    +0.000 OA
ATOM      9  H   UNL     1       2.095   7.154  20.908  0.00  0.00    +0.000 HD
BRANCH   7  10
ATOM     10  C   UNL     1       1.150   9.359  19.852  0.00  0.00    +0.000 A 
ATOM     11  C   UNL     1       0.888  10.606  19.253  0.00  0.00    +0.000 A 
ATOM     12  C   UNL     1       0.180  11.594  19.955  0.00  0.00    +0.000 A 
ATOM     13  C   UNL     1      -0.265  11.309  21.237  0.00  0.00    +0.000 A 
ATOM     14  C   UNL     1       0.002  10.077  21.835  0.00  0.00    +0.000 A 
ATOM     15  C   UNL     1       0.709   9.101  21.161  0.00  0.00    +0.000 A 
ATOM     16  C   UNL     1      -0.550  10.009  23.222  0.00  0.00    +0.000 C 
ATOM     17  C   UNL     1      -1.566  11.158  23.186  0.00  0.00    +0.000 C 
ATOM     18  C   UNL     1      -1.033  12.188  22.176  0.00  0.00    +0.000 C 
ENDBRANCH   7  10
ENDBRANCH   4   6
BRANCH   1  19
ATOM     19  C   UNL     1       5.575   4.057  18.113  0.00  0.00    +0.000 C 
BRANCH  19  26
ATOM     20  C   UNL     1       5.719   3.816  14.905  0.00  0.00    +0.000 C 
ATOM     21  C   UNL     1       6.453   4.765  15.776  0.00  0.00    +0.000 A 
ATOM     22  N   UNL     1       7.292   5.646  15.225  0.00  0.00    +0.000 NA
ATOM     23  O   UNL     1       7.832   6.355  16.271  0.00  0.00    +0.000 OA
ATOM     24  C   UNL     1       7.325   5.904  17.449  0.00  0.00    +0.000 A 
ATOM     25  C   UNL     1       7.858   6.583  18.649  0.00  0.00    +0.000 C 
ATOM     26  C   UNL     1       6.417   4.887  17.201  0.00  0.00    +0.000 A 
ENDBRANCH  19  26
ENDBRANCH   1  19
TORSDOF 4
ENDMDL
MODEL 4
REMARK VINA RESULT:      -8.2      1.198      2.417
REMARK  Name = 
REMARK  6 active torsions:
REMARK  status: ('A' for Active; 'I' for Inactive)
REMARK    1  A    between atoms: C_1  and  C_2
REMARK    2  A    between atoms: C_5  and  C_6
REMARK    3  A    between atoms: C_7  and  C_8
REMARK    4  A    between atoms: C_8  and  N_9
REMARK    5  A    between atoms: C_12  and  N_13
REMARK    6  A    between atoms: C_14  and  C_16
REMARK                            x       y       z     vdW  Elec       q    Type
REMARK                         _______ _______ _______ _____ _____    ______ ____
ROOT
ATOM      1  N   UNL     1       3.892   4.093  17.403  0.00  0.00    +0.000 N 
ATOM      2  C   UNL     1       2.622   3.630  17.235  0.00  0.00    +0.000 A 
ATOM      3  N   UNL     1       1.753   4.451  17.771  0.00  0.00    +0.000 NA
ATOM      4  C   UNL     1       2.476   5.451  18.352  0.00  0.00    +0.000 A 
ATOM      5  C   UNL     1       3.822   5.235  18.166  0.00  0.00    +0.000 A 
ENDROOT
BRANCH   4   6
ATOM      6  N   UNL     1       1.910   6.512  19.024  0.00  0.00    +0.000 N 
ATOM      7  C   UNL     1       2.183   7.825  18.681  0.00  0.00    +0.000 C 
ATOM      8  O   UNL     1       2.918   8.206  17.778  0.00  0.00    +0.000 OA
ATOM      9  H   UNL     1       1.255   6.295  19.755  0.00  0.00    +0.000 HD
BRANCH   7  10
ATOM     10  C   UNL     1       1.509   8.889  19.478  0.00  0.00    +0.000 A 
ATOM     11  C   UNL     1       1.046  10.099  18.926  0.00  0.00    +0.000 A 
ATOM     12  C   UNL     1       0.334  11.012  19.719  0.00  0.00    +0.000 A 
ATOM     13  C   UNL     1       0.087  10.690  21.045  0.00  0.00    +0.000 A 
ATOM     14  C   UNL     1       0.553   9.495  21.596  0.00  0.00    +0.000 A 
ATOM     15  C   UNL     1       1.267   8.594  20.831  0.00  0.00    +0.000 A 
ATOM     16  C   UNL     1       0.191   9.380  23.041  0.00  0.00    +0.000 C 
ATOM     17  C   UNL     1      -0.935  10.417  23.142  0.00  0.00    +0.000 C 
ATOM     18  C   UNL     1      -0.643  11.490  22.079  0.00  0.00    +0.000 C 
ENDBRANCH   7  10
ENDBRANCH   4   6
BRANCH   1  19
ATOM     19  C   UNL     1       5.099   3.438  16.935  0.00  0.00    +0.000 C 
BRANCH  19  26
ATOM     20  C   UNL     1       7.403   5.462  17.919  0.00  0.00    +0.000 C 
ATOM     21  C   UNL     1       6.990   5.167  16.525  0.00  0.00    +0.000 A 
ATOM     22  N   UNL     1       7.606   5.785  15.515  0.00  0.00    +0.000 NA
ATOM     23  O   UNL     1       6.995   5.333  14.370  0.00  0.00    +0.000 OA
ATOM     24  C   UNL     1       6.013   4.448  14.686  0.00  0.00    +0.000 A 
ATOM     25  C   UNL     1       5.269   3.914  13.526  0.00  0.00    +0.000 C 
ATOM     26  C   UNL     1       5.966   4.283  16.061  0.00  0.00    +0.000 A 
ENDBRANCH  19  26
ENDBRANCH   1  19
TORSDOF 4
ENDMDL
MODEL 5
REMARK VINA RESULT:      -8.2      0.865      2.124
REMARK  Name = 
REMARK  6 active torsions:
REMARK  status: ('A' for Active; 'I' for Inactive)
REMARK    1  A    between atoms: C_1  and  C_2
REMARK    2  A    between atoms: C_5  and  C_6
REMARK    3  A    between atoms: C_7  and  C_8
REMARK    4  A    between atoms: C_8  and  N_9
REMARK    5  A    between atoms: C_12  and  N_13
REMARK    6  A    between atoms: C_14  and  C_16
REMARK                            x       y       z     vdW  Elec       q    Type
REMARK                         _______ _______ _______ _____ _____    ______ ____
ROOT
ATOM      1  N   UNL     1       4.176   4.637  18.462  0.00  0.00    +0.000 N 
ATOM      2  C   UNL     1       2.926   4.096  18.500  0.00  0.00    +0.000 A 
ATOM      3  N   UNL     1       2.069   4.941  19.016  0.00  0.00    +0.000 NA
ATOM      4  C   UNL     1       2.785   6.044  19.375  0.00  0.00    +0.000 A 
ATOM      5  C   UNL     1       4.115   5.869  19.070  0.00  0.00    +0.000 A 
ENDROOT
BRANCH   4   6
ATOM      6  N   UNL     1       2.228   7.160  19.960  0.00  0.00    +0.000 N 
ATOM      7  C   UNL     1       1.797   8.242  19.211  0.00  0.00    +0.000 C 
ATOM      8  O   UNL     1       1.840   8.348  17.991  0.00  0.00    +0.000 OA
ATOM      9  H   UNL     1       2.109   7.144  20.958  0.00  0.00    +0.000 HD
BRANCH   7  10
ATOM     10  C   UNL     1       1.207   9.391  19.954  0.00  0.00    +0.000 A 
ATOM     11  C   UNL     1       1.137  10.699  19.436  0.00  0.00    +0.000 A 
ATOM     12  C   UNL     1       0.480  11.710  20.154  0.00  0.00    +0.000 A 
ATOM     13  C   UNL     1      -0.106  11.390  21.369  0.00  0.00    +0.000 A 
ATOM     14  C   UNL     1      -0.028  10.096  21.888  0.00  0.00    +0.000 A 
ATOM     15  C   UNL     1       0.626   9.095  21.199  0.00  0.00    +0.000 A 
ATOM     16  C   UNL     1      -0.707   9.997  23.216  0.00  0.00    +0.000 C 
ATOM     17  C   UNL     1      -1.584  11.255  23.189  0.00  0.00    +0.000 C 
ATOM     18  C   UNL     1      -0.855  12.284  22.309  0.00  0.00    +0.000 C 
ENDBRANCH   7  10
ENDBRANCH   4   6
BRANCH   1  19
ATOM     19  C   UNL     1       5.365   3.981  17.952  0.00  0.00    +0.000 C 
BRANCH  19  26
ATOM     20  C   UNL     1       7.667   6.046  18.853  0.00  0.00    +0.000 C 
ATOM     21  C   UNL     1       7.224   5.727  17.474  0.00  0.00    +0.000 A 
ATOM     22  N   UNL     1       7.808   6.339  16.440  0.00  0.00    +0.000 NA
ATOM     23  O   UNL     1       7.175   5.863  15.317  0.00  0.00    +0.000 OA
ATOM     24  C   UNL     1       6.212   4.971  15.668  0.00  0.00    +0.000 A 
ATOM     25  C   UNL     1       5.447   4.412  14.534  0.00  0.00    +0.000 C 
ATOM     26  C   UNL     1       6.200   4.824  17.046  0.00  0.00    +0.000 A 
ENDBRANCH  19  26
ENDBRANCH   1  19
TORSDOF 4
ENDMDL
MODEL 6
REMARK VINA RESULT:      -8.2      1.077      1.587
REMARK  Name = 
REMARK  6 active torsions:
REMARK  status: ('A' for Active; 'I' for Inactive)
REMARK    1  A    between atoms: C_1  and  C_2
REMARK    2  A    between atoms: C_5  and  C_6
REMARK    3  A    between atoms: C_7  and  C_8
REMARK    4  A    between atoms: C_8  and  N_9
REMARK    5  A    between atoms: C_12  and  N_13
REMARK    6  A    between atoms: C_14  and  C_16
REMARK                            x       y       z     vdW  Elec       q    Type
REMARK                         _______ _______ _______ _____ _____    ______ ____
ROOT
ATOM      1  N   UNL     1       4.019   4.704  17.560  0.00  0.00    +0.000 N 
ATOM      2  C   UNL     1       2.748   4.212  17.578  0.00  0.00    +0.000 A 
ATOM      3  N   UNL     1       1.900   5.128  17.974  0.00  0.00    +0.000 NA
ATOM      4  C   UNL     1       2.641   6.233  18.274  0.00  0.00    +0.000 A 
ATOM      5  C   UNL     1       3.977   5.985  18.056  0.00  0.00    +0.000 A 
ENDROOT
BRANCH   4   6
ATOM      6  N   UNL     1       2.100   7.415  18.730  0.00  0.00    +0.000 N 
ATOM      7  C   UNL     1       1.626   7.552  20.024  0.00  0.00    +0.000 C 
ATOM      8  O   UNL     1       1.629   6.694  20.897  0.00  0.00    +0.000 OA
ATOM      9  H   UNL     1       2.098   8.194  18.094  0.00  0.00    +0.000 HD
BRANCH   7  10
ATOM     10  C   UNL     1       1.066   8.880  20.405  0.00  0.00    +0.000 A 
ATOM     11  C   UNL     1       1.071  10.000  19.552  0.00  0.00    +0.000 A 
ATOM     12  C   UNL     1       0.438  11.190  19.943  0.00  0.00    +0.000 A 
ATOM     13  C   UNL     1      -0.200  11.231  21.173  0.00  0.00    +0.000 A 
ATOM     14  C   UNL     1      -0.198  10.124  22.023  0.00  0.00    +0.000 A 
ATOM     15  C   UNL     1       0.433   8.952  21.658  0.00  0.00    +0.000 A 
ATOM     16  C   UNL     1      -0.921  10.412  23.299  0.00  0.00    +0.000 C 
ATOM     17  C   UNL     1      -1.740  11.645  22.897  0.00  0.00    +0.000 C 
ATOM     18  C   UNL     1      -0.937  12.371  21.805  0.00  0.00    +0.000 C 
ENDBRANCH   7  10
ENDBRANCH   4   6
BRANCH   1  19
ATOM     19  C   UNL     1       5.206   3.964  17.172  0.00  0.00    +0.000 C 
BRANCH  19  26
ATOM     20  C   UNL     1       5.818   3.810  14.014  0.00  0.00    +0.000 C 
ATOM     21  C   UNL     1       6.466   4.684  15.022  0.00  0.00    +0.000 A 
ATOM     22  N   UNL     1       7.428   5.527  14.636  0.00  0.00    +0.000 NA
ATOM     23  O   UNL     1       7.843   6.169  15.778  0.00  0.00    +0.000 OA
ATOM     24  C   UNL     1       7.140   5.716  16.848  0.00  0.00    +0.000 A 
ATOM     25  C   UNL     1       7.524   6.324  18.139  0.00  0.00    +0.000 C 
ATOM     26  C   UNL     1       6.222   4.766  16.429  0.00  0.00    +0.000 A 
ENDBRANCH  19  26
ENDBRANCH   1  19
TORSDOF 4
ENDMDL
MODEL 7
REMARK VINA RESULT:      -8.0      4.379      7.537
REMARK  Name = 
REMARK  6 active torsions:
REMARK  status: ('A' for Active; 'I' for Inactive)
REMARK    1  A    between atoms: C_1  and  C_2
REMARK    2  A    between atoms: C_5  and  C_6
REMARK    3  A    between atoms: C_7  and  C_8
REMARK    4  A    between atoms: C_8  and  N_9
REMARK    5  A    between atoms: C_12  and  N_13
REMARK    6  A    between atoms: C_14  and  C_16
REMARK                            x       y       z     vdW  Elec       q    Type
REMARK                         _______ _______ _______ _____ _____    ______ ____
ROOT
ATOM      1  N   UNL     1       6.297   4.808  18.629  0.00  0.00    +0.000 N 
ATOM      2  C   UNL     1       6.858   4.827  17.387  0.00  0.00    +0.000 A 
ATOM      3  N   UNL     1       7.714   5.812  17.278  0.00  0.00    +0.000 NA
ATOM      4  C   UNL     1       7.675   6.488  18.462  0.00  0.00    +0.000 A 
ATOM      5  C   UNL     1       6.770   5.900  19.316  0.00  0.00    +0.000 A 
ENDROOT
BRANCH   4   6
ATOM      6  N   UNL     1       8.443   7.598  18.734  0.00  0.00    +0.000 N 
ATOM      7  C   UNL     1       8.196   8.824  18.140  0.00  0.00    +0.000 C 
ATOM      8  O   UNL     1       7.304   9.080  17.340  0.00  0.00    +0.000 OA
ATOM      9  H   UNL     1       9.174   7.494  19.417  0.00  0.00    +0.000 HD
BRANCH   7  10
ATOM     10  C   UNL     1       9.092   9.954  18.514  0.00  0.00    +0.000 A 
ATOM     11  C   UNL     1       9.934  10.616  17.600  0.00  0.00    +0.000 A 
ATOM     12  C   UNL     1      10.677  11.735  18.005  0.00  0.00    +0.000 A 
ATOM     13  C   UNL     1      10.552  12.179  19.312  0.00  0.00    +0.000 A 
ATOM     14  C   UNL     1       9.725  11.519  20.222  0.00  0.00    +0.000 A 
ATOM     15  C   UNL     1       8.999  10.408  19.841  0.00  0.00    +0.000 A 
ATOM     16  C   UNL     1       9.772  12.160  21.571  0.00  0.00    +0.000 C 
ATOM     17  C   UNL     1      10.352  13.535  21.219  0.00  0.00    +0.000 C 
ATOM     18  C   UNL     1      11.232  13.338  19.974  0.00  0.00    +0.000 C 
ENDBRANCH   7  10
ENDBRANCH   4   6
BRANCH   1  19
ATOM     19  C   UNL     1       5.309   3.853  19.095  0.00  0.00    +0.000 C 
BRANCH  19  26
ATOM     20  C   UNL     1       3.404   1.428  18.165  0.00  0.00    +0.000 C 
ATOM     21  C   UNL     1       3.139   2.883  18.054  0.00  0.00    +0.000 A 
ATOM     22  N   UNL     1       1.994   3.301  17.509  0.00  0.00    +0.000 NA
ATOM     23  O   UNL     1       2.051   4.674  17.522  0.00  0.00    +0.000 OA
ATOM     24  C   UNL     1       3.226   5.085  18.068  0.00  0.00    +0.000 A 
ATOM     25  C   UNL     1       3.406   6.551  18.109  0.00  0.00    +0.000 C 
ATOM     26  C   UNL     1       3.969   3.980  18.448  0.00  0.00    +0.000 A 
ENDBRANCH  19  26
ENDBRANCH   1  19
TORSDOF 4
ENDMDL
MODEL 8
REMARK VINA RESULT:      -8.0      3.905      7.509
REMARK  Name = 
REMARK  6 active torsions:
REMARK  status: ('A' for Active; 'I' for Inactive)
REMARK    1  A    between atoms: C_1  and  C_2
REMARK    2  A    between atoms: C_5  and  C_6
REMARK    3  A    between atoms: C_7  and  C_8
REMARK    4  A    between atoms: C_8  and  N_9
REMARK    5  A    between atoms: C_12  and  N_13
REMARK    6  A    between atoms: C_14  and  C_16
REMARK                            x       y       z     vdW  Elec       q    Type
REMARK                         _______ _______ _______ _____ _____    ______ ____
ROOT
ATOM      1  N   UNL     1       5.241   5.285  16.850  0.00  0.00    +0.000 N 
ATOM      2  C   UNL     1       6.488   4.899  16.459  0.00  0.00    +0.000 A 
ATOM      3  N   UNL     1       7.332   5.897  16.545  0.00  0.00    +0.000 NA
ATOM      4  C   UNL     1       6.608   6.979  16.952  0.00  0.00    +0.000 A 
ATOM      5  C   UNL     1       5.287   6.632  17.119  0.00  0.00    +0.000 A 
ENDROOT
BRANCH   4   6
ATOM      6  N   UNL     1       7.150   8.228  17.157  0.00  0.00    +0.000 N 
ATOM      7  C   UNL     1       8.096   8.464  18.140  0.00  0.00    +0.000 C 
ATOM      8  O   UNL     1       8.563   7.639  18.915  0.00  0.00    +0.000 OA
ATOM      9  H   UNL     1       6.859   8.962  16.534  0.00  0.00    +0.000 HD
BRANCH   7  10
ATOM     10  C   UNL     1       8.613   9.856  18.265  0.00  0.00    +0.000 A 
ATOM     11  C   UNL     1       8.160  10.928  17.473  0.00  0.00    +0.000 A 
ATOM     12  C   UNL     1       8.623  12.231  17.715  0.00  0.00    +0.000 A 
ATOM     13  C   UNL     1       9.519  12.437  18.753  0.00  0.00    +0.000 A 
ATOM     14  C   UNL     1       9.975  11.374  19.533  0.00  0.00    +0.000 A 
ATOM     15  C   UNL     1       9.539  10.085  19.298  0.00  0.00    +0.000 A 
ATOM     16  C   UNL     1      10.950  11.832  20.569  0.00  0.00    +0.000 C 
ATOM     17  C   UNL     1      10.650  13.336  20.604  0.00  0.00    +0.000 C 
ATOM     18  C   UNL     1      10.148  13.720  19.202  0.00  0.00    +0.000 C 
ENDBRANCH   7  10
ENDBRANCH   4   6
BRANCH   1  19
ATOM     19  C   UNL     1       4.065   4.435  16.881  0.00  0.00    +0.000 C 
BRANCH  19  26
ATOM     20  C   UNL     1       3.742   1.533  18.240  0.00  0.00    +0.000 C 
ATOM     21  C   UNL     1       3.416   2.853  18.832  0.00  0.00    +0.000 A 
ATOM     22  N   UNL     1       2.922   2.910  20.072  0.00  0.00    +0.000 NA
ATOM     23  O   UNL     1       2.700   4.243  20.325  0.00  0.00    +0.000 OA
ATOM     24  C   UNL     1       3.053   4.987  19.244  0.00  0.00    +0.000 A 
ATOM     25  C   UNL     1       2.831   6.440  19.398  0.00  0.00    +0.000 C 
ATOM     26  C   UNL     1       3.539   4.153  18.250  0.00  0.00    +0.000 A 
ENDBRANCH  19  26
ENDBRANCH   1  19
TORSDOF 4
ENDMDL
MODEL 9
REMARK VINA RESULT:      -8.0      1.289      1.966
REMARK  Name = 
REMARK  6 active torsions:
REMARK  status: ('A' for Active; 'I' for Inactive)
REMARK    1  A    between atoms: C_1  and  C_2
REMARK    2  A    between atoms: C_5  and  C_6
REMARK    3  A    between atoms: C_7  and  C_8
REMARK    4  A    between atoms: C_8  and  N_9
REMARK    5  A    between atoms: C_12  and  N_13
REMARK    6  A    between atoms: C_14  and  C_16
REMARK                            x       y       z     vdW  Elec       q    Type
REMARK                         _______ _______ _______ _____ _____    ______ ____
ROOT
ATOM      1  N   UNL     1       4.474   4.498  17.323  0.00  0.00    +0.000 N 
ATOM      2  C   UNL     1       4.506   4.122  18.632  0.00  0.00    +0.000 A 
ATOM      3  N   UNL     1       3.915   5.014  19.387  0.00  0.00    +0.000 NA
ATOM      4  C   UNL     1       3.533   6.027  18.558  0.00  0.00    +0.000 A 
ATOM      5  C   UNL     1       3.901   5.746  17.262  0.00  0.00    +0.000 A 
ENDROOT
BRANCH   4   6
ATOM      6  N   UNL     1       2.876   7.159  18.986  0.00  0.00    +0.000 N 
ATOM      7  C   UNL     1       1.955   7.125  20.019  0.00  0.00    +0.000 C 
ATOM      8  O   UNL     1       1.621   6.140  20.666  0.00  0.00    +0.000 OA
ATOM      9  H   UNL     1       3.121   8.027  18.542  0.00  0.00    +0.000 HD
BRANCH   7  10
ATOM     10  C   UNL     1       1.310   8.414  20.398  0.00  0.00    +0.000 A 
ATOM     11  C   UNL     1       1.062   9.457  19.485  0.00  0.00    +0.000 A 
ATOM     12  C   UNL     1       0.362  10.603  19.894  0.00  0.00    +0.000 A 
ATOM     13  C   UNL     1      -0.087  10.676  21.203  0.00  0.00    +0.000 A 
ATOM     14  C   UNL     1       0.166   9.647  22.111  0.00  0.00    +0.000 A 
ATOM     15  C   UNL     1       0.865   8.520  21.727  0.00  0.00    +0.000 A 
ATOM     16  C   UNL     1      -0.390   9.959  23.463  0.00  0.00    +0.000 C 
ATOM     17  C   UNL     1      -1.394  11.066  23.116  0.00  0.00    +0.000 C 
ATOM     18  C   UNL     1      -0.848  11.782  21.868  0.00  0.00    +0.000 C 
ENDBRANCH   7  10
ENDBRANCH   4   6
BRANCH   1  19
ATOM     19  C   UNL     1       5.033   3.747  16.214  0.00  0.00    +0.000 C 
BRANCH  19  26
ATOM     20  C   UNL     1       5.692   3.459  13.075  0.00  0.00    +0.000 C 
ATOM     21  C   UNL     1       6.382   4.314  14.072  0.00  0.00    +0.000 A 
ATOM     22  N   UNL     1       7.409   5.074  13.684  0.00  0.00    +0.000 NA
ATOM     23  O   UNL     1       7.848   5.717  14.816  0.00  0.00    +0.000 OA
ATOM     24  C   UNL     1       7.094   5.346  15.883  0.00  0.00    +0.000 A 
ATOM     25  C   UNL     1       7.497   5.962  17.165  0.00  0.00    +0.000 C 
ATOM     26  C   UNL     1       6.119   4.453  15.471  0.00  0.00    +0.000 A 
ENDBRANCH  19  26
ENDBRANCH   1  19
TORSDOF 4
ENDMDL
