MODEL 1
REMARK VINA RESULT:      -9.0      0.000      0.000
REMARK  Name = 
REMARK  3 active torsions:
REMARK  status: ('A' for Active; 'I' for Inactive)
REMARK    1  A    between atoms: N_6  and  C_7
REMARK    2  A    between atoms: C_16  and  C_18
REMARK    3  A    between atoms: C_18  and  C_19
REMARK                            x       y       z     vdW  Elec       q    Type
REMARK                         _______ _______ _______ _____ _____    ______ ____
ROOT
ATOM      1  C   UNL     1       9.165  12.492  18.732  0.00  0.00    +0.000 C 
ATOM      2  C   UNL     1       9.593  11.850  20.056  0.00  0.00    +0.000 C 
ATOM      3  C   UNL     1       9.769  10.368  19.746  0.00  0.00    +0.000 C 
ATOM      4  N   UNL     1       8.833  10.142  18.663  0.00  0.00    +0.000 N 
ATOM      5  C   UNL     1       8.352   8.922  18.268  0.00  0.00    +0.000 A 
ATOM      6  C   UNL     1       8.562   7.775  19.024  0.00  0.00    +0.000 A 
ATOM      7  C   UNL     1       7.900   6.588  18.716  0.00  0.00    +0.000 A 
ATOM      8  C   UNL     1       7.065   6.556  17.619  0.00  0.00    +0.000 A 
ATOM      9  N   UNL     1       6.322   5.423  17.285  0.00  0.00    +0.000 N 
ATOM     10  C   UNL     1       5.686   4.649  18.233  0.00  0.00    +0.000 C 
ATOM     11  O   UNL     1       5.638   4.908  19.435  0.00  0.00    +0.000 OA
ATOM     12  N   UNL     1       6.971   7.622  16.811  0.00  0.00    +0.000 NA
ATOM     13  N   UNL     1       7.583   8.818  17.159  0.00  0.00    +0.000 NA
ATOM     14  C   UNL     1       8.725  11.324  17.815  0.00  0.00    +0.000 C 
ATOM     15  H   UNL     1       5.964   5.421  16.340  0.00  0.00    +0.000 HD
ENDROOT
BRANCH   1  21
ATOM     16  N   UNL     1      10.551  18.233  16.915  0.00  0.00    +0.000 N 
ATOM     17  C   UNL     1      10.183  17.018  17.364  0.00  0.00    +0.000 A 
ATOM     18  N   UNL     1       9.044  16.758  17.962  0.00  0.00    +0.000 NA
ATOM     19  N   UNL     1       8.926  15.427  18.309  0.00  0.00    +0.000 NA
ATOM     20  C   UNL     1       9.980  14.716  17.976  0.00  0.00    +0.000 A 
ATOM     21  N   UNL     1      10.163  13.390  18.164  0.00  0.00    +0.000 N 
ATOM     22  S   UNL     1      11.208  15.653  17.209  0.00  0.00    +0.000 S 
ATOM     23  H   UNL     1      10.036  19.023  17.289  0.00  0.00    +0.000 HD
ATOM     24  H   UNL     1      11.533  18.410  16.747  0.00  0.00    +0.000 HD
ATOM     25  H   UNL     1      11.063  12.983  17.940  0.00  0.00    +0.000 HD
ENDBRANCH   1  21
BRANCH  10  26
ATOM     26  C   UNL     1       5.050   3.384  17.680  0.00  0.00    +0.000 C 
BRANCH  26  27
ATOM     27  C   UNL     1       3.614   3.279  18.131  0.00  0.00    +0.000 A 
ATOM     28  C   UNL     1       3.216   2.208  18.947  0.00  0.00    +0.000 A 
ATOM     29  C   UNL     1       1.871   2.020  19.259  0.00  0.00    +0.000 A 
ATOM     30  C   UNL     1       0.916   2.910  18.778  0.00  0.00    +0.000 A 
ATOM     31  C   UNL     1       1.307   4.001  18.001  0.00  0.00    +0.000 A 
ATOM     32  C   UNL     1       2.650   4.189  17.679  0.00  0.00    +0.000 A 
ENDBRANCH  26  27
ENDBRANCH  10  26
TORSDOF 3
ENDMDL
MODEL 2
REMARK VINA RESULT:      -8.3      7.400      8.807
REMARK  Name = 
REMARK  3 active torsions:
REMARK  status: ('A' for Active; 'I' for Inactive)
REMARK    1  A    between atoms: N_6  and  C_7
REMARK    2  A    between atoms: C_16  and  C_18
REMARK    3  A    between atoms: C_18  and  C_19
REMARK                            x       y       z     vdW  Elec       q    Type
REMARK                         _______ _______ _______ _____ _____    ______ ____
ROOT
ATOM      1  C   UNL     1       0.423  10.979  21.352  0.00  0.00    +0.000 C 
ATOM      2  C   UNL     1       0.709  11.776  20.075  0.00  0.00    +0.000 C 
ATOM      3  C   UNL     1       0.842  10.733  18.972  0.00  0.00    +0.000 C 
ATOM      4  N   UNL     1       1.332   9.565  19.676  0.00  0.00    +0.000 N 
ATOM      5  C   UNL     1       1.944   8.485  19.097  0.00  0.00    +0.000 A 
ATOM      6  C   UNL     1       2.352   8.501  17.769  0.00  0.00    +0.000 A 
ATOM      7  C   UNL     1       3.148   7.481  17.255  0.00  0.00    +0.000 A 
ATOM      8  C   UNL     1       3.490   6.426  18.075  0.00  0.00    +0.000 A 
ATOM      9  N   UNL     1       4.335   5.399  17.650  0.00  0.00    +0.000 N 
ATOM     10  C   UNL     1       5.462   5.634  16.891  0.00  0.00    +0.000 C 
ATOM     11  O   UNL     1       5.880   6.748  16.581  0.00  0.00    +0.000 OA
ATOM     12  N   UNL     1       2.983   6.342  19.313  0.00  0.00    +0.000 NA
ATOM     13  N   UNL     1       2.243   7.392  19.837  0.00  0.00    +0.000 NA
ATOM     14  C   UNL     1       0.791   9.510  21.029  0.00  0.00    +0.000 C 
ATOM     15  H   UNL     1       4.301   4.566  18.222  0.00  0.00    +0.000 HD
ENDROOT
BRANCH   1  21
ATOM     16  N   UNL     1      -3.280  14.401  24.925  0.00  0.00    +0.000 N 
ATOM     17  C   UNL     1      -2.417  13.728  24.140  0.00  0.00    +0.000 A 
ATOM     18  N   UNL     1      -1.178  14.093  23.911  0.00  0.00    +0.000 NA
ATOM     19  N   UNL     1      -0.518  13.214  23.076  0.00  0.00    +0.000 NA
ATOM     20  C   UNL     1      -1.275  12.212  22.686  0.00  0.00    +0.000 A 
ATOM     21  N   UNL     1      -0.919  11.184  21.885  0.00  0.00    +0.000 N 
ATOM     22  S   UNL     1      -2.875  12.292  23.324  0.00  0.00    +0.000 S 
ATOM     23  H   UNL     1      -3.037  15.364  25.134  0.00  0.00    +0.000 HD
ATOM     24  H   UNL     1      -4.272  14.230  24.812  0.00  0.00    +0.000 HD
ATOM     25  H   UNL     1      -1.629  10.524  21.589  0.00  0.00    +0.000 HD
ENDBRANCH   1  21
BRANCH  10  26
ATOM     26  C   UNL     1       6.165   4.374  16.413  0.00  0.00    +0.000 C 
BRANCH  26  27
ATOM     27  C   UNL     1       6.375   4.426  14.920  0.00  0.00    +0.000 A 
ATOM     28  C   UNL     1       5.542   3.677  14.073  0.00  0.00    +0.000 A 
ATOM     29  C   UNL     1       5.806   3.605  12.706  0.00  0.00    +0.000 A 
ATOM     30  C   UNL     1       6.888   4.296  12.171  0.00  0.00    +0.000 A 
ATOM     31  C   UNL     1       7.696   5.076  12.998  0.00  0.00    +0.000 A 
ATOM     32  C   UNL     1       7.441   5.145  14.367  0.00  0.00    +0.000 A 
ENDBRANCH  26  27
ENDBRANCH  10  26
TORSDOF 3
ENDMDL
MODEL 3
REMARK VINA RESULT:      -8.3      7.796      9.046
REMARK  Name = 
REMARK  3 active torsions:
REMARK  status: ('A' for Active; 'I' for Inactive)
REMARK    1  A    between atoms: N_6  and  C_7
REMARK    2  A    between atoms: C_16  and  C_18
REMARK    3  A    between atoms: C_18  and  C_19
REMARK                            x       y       z     vdW  Elec       q    Type
REMARK                         _______ _______ _______ _____ _____    ______ ____
ROOT
ATOM      1  C   UNL     1      -0.944  11.521  22.082  0.00  0.00    +0.000 C 
ATOM      2  C   UNL     1      -1.011  10.419  23.143  0.00  0.00    +0.000 C 
ATOM      3  C   UNL     1       0.198   9.530  22.876  0.00  0.00    +0.000 C 
ATOM      4  N   UNL     1       0.410   9.676  21.451  0.00  0.00    +0.000 N 
ATOM      5  C   UNL     1       1.136   8.823  20.661  0.00  0.00    +0.000 A 
ATOM      6  C   UNL     1       1.576   7.592  21.130  0.00  0.00    +0.000 A 
ATOM      7  C   UNL     1       2.133   6.656  20.261  0.00  0.00    +0.000 A 
ATOM      8  C   UNL     1       2.284   6.990  18.931  0.00  0.00    +0.000 A 
ATOM      9  N   UNL     1       2.777   6.085  17.990  0.00  0.00    +0.000 N 
ATOM     10  C   UNL     1       2.410   4.755  17.980  0.00  0.00    +0.000 C 
ATOM     11  O   UNL     1       1.572   4.251  18.726  0.00  0.00    +0.000 OA
ATOM     12  N   UNL     1       1.987   8.227  18.508  0.00  0.00    +0.000 NA
ATOM     13  N   UNL     1       1.375   9.130  19.366  0.00  0.00    +0.000 NA
ATOM     14  C   UNL     1       0.052  11.019  21.008  0.00  0.00    +0.000 C 
ATOM     15  H   UNL     1       3.090   6.507  17.127  0.00  0.00    +0.000 HD
ENDROOT
BRANCH   1  21
ATOM     16  N   UNL     1      -3.086  16.450  25.134  0.00  0.00    +0.000 N 
ATOM     17  C   UNL     1      -2.687  15.327  24.506  0.00  0.00    +0.000 A 
ATOM     18  N   UNL     1      -3.425  14.252  24.361  0.00  0.00    +0.000 NA
ATOM     19  N   UNL     1      -2.768  13.253  23.671  0.00  0.00    +0.000 NA
ATOM     20  C   UNL     1      -1.547  13.592  23.320  0.00  0.00    +0.000 A 
ATOM     21  N   UNL     1      -0.661  12.844  22.625  0.00  0.00    +0.000 N 
ATOM     22  S   UNL     1      -1.117  15.181  23.831  0.00  0.00    +0.000 S 
ATOM     23  H   UNL     1      -3.894  16.360  25.741  0.00  0.00    +0.000 HD
ATOM     24  H   UNL     1      -2.381  17.098  25.461  0.00  0.00    +0.000 HD
ATOM     25  H   UNL     1       0.282  13.194  22.499  0.00  0.00    +0.000 HD
ENDBRANCH   1  21
BRANCH  10  26
ATOM     26  C   UNL     1       3.165   3.909  16.967  0.00  0.00    +0.000 C 
BRANCH  26  27
ATOM     27  C   UNL     1       4.627   4.284  16.958  0.00  0.00    +0.000 A 
ATOM     28  C   UNL     1       5.290   4.471  15.735  0.00  0.00    +0.000 A 
ATOM     29  C   UNL     1       6.667   4.683  15.704  0.00  0.00    +0.000 A 
ATOM     30  C   UNL     1       7.389   4.730  16.892  0.00  0.00    +0.000 A 
ATOM     31  C   UNL     1       6.732   4.586  18.114  0.00  0.00    +0.000 A 
ATOM     32  C   UNL     1       5.356   4.367  18.151  0.00  0.00    +0.000 A 
ENDBRANCH  26  27
ENDBRANCH  10  26
TORSDOF 3
ENDMDL
MODEL 4
REMARK VINA RESULT:      -8.2      7.753      8.615
REMARK  Name = 
REMARK  3 active torsions:
REMARK  status: ('A' for Active; 'I' for Inactive)
REMARK    1  A    between atoms: N_6  and  C_7
REMARK    2  A    between atoms: C_16  and  C_18
REMARK    3  A    between atoms: C_18  and  C_19
REMARK                            x       y       z     vdW  Elec       q    Type
REMARK                         _______ _______ _______ _____ _____    ______ ____
ROOT
ATOM      1  C   UNL     1      -0.116  12.285  21.530  0.00  0.00    +0.000 C 
ATOM      2  C   UNL     1       0.112  12.907  20.149  0.00  0.00    +0.000 C 
ATOM      3  C   UNL     1       0.125  11.732  19.178  0.00  0.00    +0.000 C 
ATOM      4  N   UNL     1       0.616  10.636  19.988  0.00  0.00    +0.000 N 
ATOM      5  C   UNL     1       1.143   9.465  19.510  0.00  0.00    +0.000 A 
ATOM      6  C   UNL     1       1.457   9.301  18.166  0.00  0.00    +0.000 A 
ATOM      7  C   UNL     1       2.174   8.188  17.733  0.00  0.00    +0.000 A 
ATOM      8  C   UNL     1       2.530   7.225  18.654  0.00  0.00    +0.000 A 
ATOM      9  N   UNL     1       3.301   6.115  18.307  0.00  0.00    +0.000 N 
ATOM     10  C   UNL     1       4.381   6.202  17.453  0.00  0.00    +0.000 C 
ATOM     11  O   UNL     1       4.820   7.248  16.980  0.00  0.00    +0.000 OA
ATOM     12  N   UNL     1       2.107   7.317  19.923  0.00  0.00    +0.000 NA
ATOM     13  N   UNL     1       1.449   8.458  20.359  0.00  0.00    +0.000 NA
ATOM     14  C   UNL     1       0.170  10.772  21.370  0.00  0.00    +0.000 C 
ATOM     15  H   UNL     1       3.274   5.360  18.979  0.00  0.00    +0.000 HD
ENDROOT
BRANCH   1  21
ATOM     16  N   UNL     1      -3.207  15.557  25.765  0.00  0.00    +0.000 N 
ATOM     17  C   UNL     1      -2.465  14.905  24.850  0.00  0.00    +0.000 A 
ATOM     18  N   UNL     1      -1.177  15.082  24.670  0.00  0.00    +0.000 NA
ATOM     19  N   UNL     1      -0.671  14.278  23.669  0.00  0.00    +0.000 NA
ATOM     20  C   UNL     1      -1.588  13.520  23.110  0.00  0.00    +0.000 A 
ATOM     21  N   UNL     1      -1.408  12.618  22.119  0.00  0.00    +0.000 N 
ATOM     22  S   UNL     1      -3.158  13.757  23.782  0.00  0.00    +0.000 S 
ATOM     23  H   UNL     1      -2.800  16.403  26.150  0.00  0.00    +0.000 HD
ATOM     24  H   UNL     1      -4.211  15.589  25.642  0.00  0.00    +0.000 HD
ATOM     25  H   UNL     1      -2.219  12.164  21.717  0.00  0.00    +0.000 HD
ENDBRANCH   1  21
BRANCH  10  26
ATOM     26  C   UNL     1       4.998   4.860  17.091  0.00  0.00    +0.000 C 
BRANCH  26  27
ATOM     27  C   UNL     1       4.245   3.739  17.765  0.00  0.00    +0.000 A 
ATOM     28  C   UNL     1       3.092   3.213  17.161  0.00  0.00    +0.000 A 
ATOM     29  C   UNL     1       2.309   2.275  17.832  0.00  0.00    +0.000 A 
ATOM     30  C   UNL     1       2.682   1.839  19.099  0.00  0.00    +0.000 A 
ATOM     31  C   UNL     1       3.849   2.325  19.689  0.00  0.00    +0.000 A 
ATOM     32  C   UNL     1       4.631   3.269  19.026  0.00  0.00    +0.000 A 
ENDBRANCH  26  27
ENDBRANCH  10  26
TORSDOF 3
ENDMDL
MODEL 5
REMARK VINA RESULT:      -8.0      7.174     10.296
REMARK  Name = 
REMARK  3 active torsions:
REMARK  status: ('A' for Active; 'I' for Inactive)
REMARK    1  A    between atoms: N_6  and  C_7
REMARK    2  A    between atoms: C_16  and  C_18
REMARK    3  A    between atoms: C_18  and  C_19
REMARK                            x       y       z     vdW  Elec       q    Type
REMARK                         _______ _______ _______ _____ _____    ______ ____
ROOT
ATOM      1  C   UNL     1       4.751   5.823  17.797  0.00  0.00    +0.000 C 
ATOM      2  C   UNL     1       4.731   5.063  19.127  0.00  0.00    +0.000 C 
ATOM      3  C   UNL     1       3.337   5.292  19.699  0.00  0.00    +0.000 C 
ATOM      4  N   UNL     1       2.966   6.586  19.163  0.00  0.00    +0.000 N 
ATOM      5  C   UNL     1       1.975   7.396  19.651  0.00  0.00    +0.000 A 
ATOM      6  C   UNL     1       1.354   7.139  20.867  0.00  0.00    +0.000 A 
ATOM      7  C   UNL     1       0.498   8.075  21.443  0.00  0.00    +0.000 A 
ATOM      8  C   UNL     1       0.239   9.247  20.763  0.00  0.00    +0.000 A 
ATOM      9  N   UNL     1      -0.559  10.257  21.302  0.00  0.00    +0.000 N 
ATOM     10  C   UNL     1      -0.485  10.629  22.629  0.00  0.00    +0.000 C 
ATOM     11  O   UNL     1       0.323  10.180  23.440  0.00  0.00    +0.000 OA
ATOM     12  N   UNL     1       0.728   9.433  19.529  0.00  0.00    +0.000 NA
ATOM     13  N   UNL     1       1.629   8.525  18.991  0.00  0.00    +0.000 NA
ATOM     14  C   UNL     1       3.534   6.779  17.834  0.00  0.00    +0.000 C 
ATOM     15  H   UNL     1      -0.892  10.932  20.628  0.00  0.00    +0.000 HD
ENDROOT
BRANCH   1  21
ATOM     16  N   UNL     1       7.746   4.405  12.581  0.00  0.00    +0.000 N 
ATOM     17  C   UNL     1       7.171   4.755  13.747  0.00  0.00    +0.000 A 
ATOM     18  N   UNL     1       7.640   5.666  14.567  0.00  0.00    +0.000 NA
ATOM     19  N   UNL     1       6.845   5.827  15.683  0.00  0.00    +0.000 NA
ATOM     20  C   UNL     1       5.800   5.029  15.687  0.00  0.00    +0.000 A 
ATOM     21  N   UNL     1       4.831   4.958  16.626  0.00  0.00    +0.000 N 
ATOM     22  S   UNL     1       5.731   4.007  14.300  0.00  0.00    +0.000 S 
ATOM     23  H   UNL     1       8.717   4.674  12.463  0.00  0.00    +0.000 HD
ATOM     24  H   UNL     1       7.501   3.514  12.168  0.00  0.00    +0.000 HD
ATOM     25  H   UNL     1       4.127   4.233  16.550  0.00  0.00    +0.000 HD
ENDBRANCH   1  21
BRANCH  10  26
ATOM     26  C   UNL     1      -1.533  11.646  23.050  0.00  0.00    +0.000 C 
BRANCH  26  27
ATOM     27  C   UNL     1      -1.009  13.048  22.857  0.00  0.00    +0.000 A 
ATOM     28  C   UNL     1      -0.045  13.302  21.869  0.00  0.00    +0.000 A 
ATOM     29  C   UNL     1       0.549  14.558  21.767  0.00  0.00    +0.000 A 
ATOM     30  C   UNL     1       0.171  15.577  22.636  0.00  0.00    +0.000 A 
ATOM     31  C   UNL     1      -0.818  15.346  23.594  0.00  0.00    +0.000 A 
ATOM     32  C   UNL     1      -1.409  14.089  23.704  0.00  0.00    +0.000 A 
ENDBRANCH  26  27
ENDBRANCH  10  26
TORSDOF 3
ENDMDL
MODEL 6
REMARK VINA RESULT:      -8.0      7.812      8.929
REMARK  Name = 
REMARK  3 active torsions:
REMARK  status: ('A' for Active; 'I' for Inactive)
REMARK    1  A    between atoms: N_6  and  C_7
REMARK    2  A    between atoms: C_16  and  C_18
REMARK    3  A    between atoms: C_18  and  C_19
REMARK                            x       y       z     vdW  Elec       q    Type
REMARK                         _______ _______ _______ _____ _____    ______ ____
ROOT
ATOM      1  C   UNL     1      -0.119  12.393  21.184  0.00  0.00    +0.000 C 
ATOM      2  C   UNL     1       0.206  12.891  19.772  0.00  0.00    +0.000 C 
ATOM      3  C   UNL     1       0.250  11.638  18.905  0.00  0.00    +0.000 C 
ATOM      4  N   UNL     1       0.665  10.606  19.833  0.00  0.00    +0.000 N 
ATOM      5  C   UNL     1       1.192   9.389  19.488  0.00  0.00    +0.000 A 
ATOM      6  C   UNL     1       1.582   9.106  18.185  0.00  0.00    +0.000 A 
ATOM      7  C   UNL     1       2.298   7.947  17.891  0.00  0.00    +0.000 A 
ATOM      8  C   UNL     1       2.575   7.059  18.910  0.00  0.00    +0.000 A 
ATOM      9  N   UNL     1       3.339   5.910  18.705  0.00  0.00    +0.000 N 
ATOM     10  C   UNL     1       4.470   5.904  17.916  0.00  0.00    +0.000 C 
ATOM     11  O   UNL     1       4.962   6.899  17.385  0.00  0.00    +0.000 OA
ATOM     12  N   UNL     1       2.079   7.266  20.138  0.00  0.00    +0.000 NA
ATOM     13  N   UNL     1       1.423   8.452  20.436  0.00  0.00    +0.000 NA
ATOM     14  C   UNL     1       0.140  10.867  21.169  0.00  0.00    +0.000 C 
ATOM     15  H   UNL     1       3.254   5.216  19.435  0.00  0.00    +0.000 HD
ENDROOT
BRANCH   1  21
ATOM     16  N   UNL     1      -3.390  15.365  25.504  0.00  0.00    +0.000 N 
ATOM     17  C   UNL     1      -2.605  14.767  24.588  0.00  0.00    +0.000 A 
ATOM     18  N   UNL     1      -1.293  14.801  24.595  0.00  0.00    +0.000 NA
ATOM     19  N   UNL     1      -0.744  14.098  23.542  0.00  0.00    +0.000 NA
ATOM     20  C   UNL     1      -1.652  13.557  22.759  0.00  0.00    +0.000 A 
ATOM     21  N   UNL     1      -1.436  12.799  21.662  0.00  0.00    +0.000 N 
ATOM     22  S   UNL     1      -3.265  13.891  23.270  0.00  0.00    +0.000 S 
ATOM     23  H   UNL     1      -2.951  16.084  26.069  0.00  0.00    +0.000 HD
ATOM     24  H   UNL     1      -4.358  15.545  25.268  0.00  0.00    +0.000 HD
ATOM     25  H   UNL     1      -2.229  12.518  21.096  0.00  0.00    +0.000 HD
ENDBRANCH   1  21
BRANCH  10  26
ATOM     26  C   UNL     1       5.076   4.525  17.706  0.00  0.00    +0.000 C 
BRANCH  26  27
ATOM     27  C   UNL     1       5.697   4.430  16.334  0.00  0.00    +0.000 A 
ATOM     28  C   UNL     1       7.029   4.831  16.142  0.00  0.00    +0.000 A 
ATOM     29  C   UNL     1       7.575   4.878  14.861  0.00  0.00    +0.000 A 
ATOM     30  C   UNL     1       6.804   4.506  13.764  0.00  0.00    +0.000 A 
ATOM     31  C   UNL     1       5.494   4.066  13.949  0.00  0.00    +0.000 A 
ATOM     32  C   UNL     1       4.940   4.024  15.228  0.00  0.00    +0.000 A 
ENDBRANCH  26  27
ENDBRANCH  10  26
TORSDOF 3
ENDMDL
MODEL 7
REMARK VINA RESULT:      -8.0      6.978     10.018
REMARK  Name = 
REMARK  3 active torsions:
REMARK  status: ('A' for Active; 'I' for Inactive)
REMARK    1  A    between atoms: N_6  and  C_7
REMARK    2  A    between atoms: C_16  and  C_18
REMARK    3  A    between atoms: C_18  and  C_19
REMARK                            x       y       z     vdW  Elec       q    Type
REMARK                         _______ _______ _______ _____ _____    ______ ____
ROOT
ATOM      1  C   UNL     1       4.964   5.572  17.776  0.00  0.00    +0.000 C 
ATOM      2  C   UNL     1       4.873   4.763  19.073  0.00  0.00    +0.000 C 
ATOM      3  C   UNL     1       3.472   5.024  19.613  0.00  0.00    +0.000 C 
ATOM      4  N   UNL     1       3.167   6.351  19.117  0.00  0.00    +0.000 N 
ATOM      5  C   UNL     1       2.193   7.180  19.606  0.00  0.00    +0.000 A 
ATOM      6  C   UNL     1       1.526   6.901  20.793  0.00  0.00    +0.000 A 
ATOM      7  C   UNL     1       0.688   7.848  21.379  0.00  0.00    +0.000 A 
ATOM      8  C   UNL     1       0.494   9.054  20.737  0.00  0.00    +0.000 A 
ATOM      9  N   UNL     1      -0.281  10.073  21.292  0.00  0.00    +0.000 N 
ATOM     10  C   UNL     1      -0.234  10.391  22.634  0.00  0.00    +0.000 C 
ATOM     11  O   UNL     1       0.530   9.881  23.451  0.00  0.00    +0.000 OA
ATOM     12  N   UNL     1       1.029   9.267  19.527  0.00  0.00    +0.000 NA
ATOM     13  N   UNL     1       1.911   8.346  18.981  0.00  0.00    +0.000 NA
ATOM     14  C   UNL     1       3.783   6.572  17.813  0.00  0.00    +0.000 C 
ATOM     15  H   UNL     1      -0.566  10.786  20.635  0.00  0.00    +0.000 HD
ENDROOT
BRANCH   1  21
ATOM     16  N   UNL     1       7.786   4.532  12.377  0.00  0.00    +0.000 N 
ATOM     17  C   UNL     1       7.247   4.804  13.580  0.00  0.00    +0.000 A 
ATOM     18  N   UNL     1       7.689   5.723  14.405  0.00  0.00    +0.000 NA
ATOM     19  N   UNL     1       6.943   5.792  15.564  0.00  0.00    +0.000 NA
ATOM     20  C   UNL     1       5.960   4.919  15.592  0.00  0.00    +0.000 A 
ATOM     21  N   UNL     1       5.048   4.749  16.575  0.00  0.00    +0.000 N 
ATOM     22  S   UNL     1       5.895   3.935  14.178  0.00  0.00    +0.000 S 
ATOM     23  H   UNL     1       8.728   4.876  12.221  0.00  0.00    +0.000 HD
ATOM     24  H   UNL     1       7.586   3.638  11.947  0.00  0.00    +0.000 HD
ATOM     25  H   UNL     1       4.396   3.976  16.509  0.00  0.00    +0.000 HD
ENDBRANCH   1  21
BRANCH  10  26
ATOM     26  C   UNL     1      -1.256  11.432  23.063  0.00  0.00    +0.000 C 
BRANCH  26  27
ATOM     27  C   UNL     1      -1.182  12.640  22.161  0.00  0.00    +0.000 A 
ATOM     28  C   UNL     1      -2.357  13.159  21.594  0.00  0.00    +0.000 A 
ATOM     29  C   UNL     1      -2.294  14.185  20.653  0.00  0.00    +0.000 A 
ATOM     30  C   UNL     1      -1.061  14.717  20.288  0.00  0.00    +0.000 A 
ATOM     31  C   UNL     1       0.108  14.237  20.878  0.00  0.00    +0.000 A 
ATOM     32  C   UNL     1       0.051  13.204  21.813  0.00  0.00    +0.000 A 
ENDBRANCH  26  27
ENDBRANCH  10  26
TORSDOF 3
ENDMDL
MODEL 8
REMARK VINA RESULT:      -7.9      9.448     12.280
REMARK  Name = 
REMARK  3 active torsions:
REMARK  status: ('A' for Active; 'I' for Inactive)
REMARK    1  A    between atoms: N_6  and  C_7
REMARK    2  A    between atoms: C_16  and  C_18
REMARK    3  A    between atoms: C_18  and  C_19
REMARK                            x       y       z     vdW  Elec       q    Type
REMARK                         _______ _______ _______ _____ _____    ______ ____
ROOT
ATOM      1  C   UNL     1       2.063   7.102  18.860  0.00  0.00    +0.000 C 
ATOM      2  C   UNL     1       1.960   8.248  17.848  0.00  0.00    +0.000 C 
ATOM      3  C   UNL     1       1.895   9.519  18.686  0.00  0.00    +0.000 C 
ATOM      4  N   UNL     1       1.271   9.076  19.915  0.00  0.00    +0.000 N 
ATOM      5  C   UNL     1       0.669   9.886  20.841  0.00  0.00    +0.000 A 
ATOM      6  C   UNL     1       0.411  11.227  20.580  0.00  0.00    +0.000 A 
ATOM      7  C   UNL     1      -0.377  11.982  21.445  0.00  0.00    +0.000 A 
ATOM      8  C   UNL     1      -0.862  11.391  22.593  0.00  0.00    +0.000 A 
ATOM      9  N   UNL     1      -1.707  12.065  23.475  0.00  0.00    +0.000 N 
ATOM     10  C   UNL     1      -2.731  12.881  23.040  0.00  0.00    +0.000 C 
ATOM     11  O   UNL     1      -3.054  13.038  21.864  0.00  0.00    +0.000 OA
ATOM     12  N   UNL     1      -0.498  10.141  22.913  0.00  0.00    +0.000 NA
ATOM     13  N   UNL     1       0.234   9.376  22.016  0.00  0.00    +0.000 NA
ATOM     14  C   UNL     1       1.656   7.704  20.228  0.00  0.00    +0.000 C 
ATOM     15  H   UNL     1      -1.781  11.642  24.390  0.00  0.00    +0.000 HD
ENDROOT
BRANCH   1  21
ATOM     16  N   UNL     1       5.152   1.843  19.855  0.00  0.00    +0.000 N 
ATOM     17  C   UNL     1       4.402   2.938  19.630  0.00  0.00    +0.000 A 
ATOM     18  N   UNL     1       3.094   2.979  19.723  0.00  0.00    +0.000 NA
ATOM     19  N   UNL     1       2.587   4.232  19.446  0.00  0.00    +0.000 NA
ATOM     20  C   UNL     1       3.520   5.106  19.141  0.00  0.00    +0.000 A 
ATOM     21  N   UNL     1       3.348   6.412  18.839  0.00  0.00    +0.000 N 
ATOM     22  S   UNL     1       5.107   4.432  19.166  0.00  0.00    +0.000 S 
ATOM     23  H   UNL     1       4.661   0.955  19.840  0.00  0.00    +0.000 HD
ATOM     24  H   UNL     1       6.091   1.813  19.479  0.00  0.00    +0.000 HD
ATOM     25  H   UNL     1       4.148   6.955  18.534  0.00  0.00    +0.000 HD
ENDBRANCH   1  21
BRANCH  10  26
ATOM     26  C   UNL     1      -3.443  13.633  24.154  0.00  0.00    +0.000 C 
BRANCH  26  27
ATOM     27  C   UNL     1      -4.922  13.715  23.867  0.00  0.00    +0.000 A 
ATOM     28  C   UNL     1      -5.470  14.906  23.363  0.00  0.00    +0.000 A 
ATOM     29  C   UNL     1      -6.849  15.045  23.222  0.00  0.00    +0.000 A 
ATOM     30  C   UNL     1      -7.691  13.991  23.562  0.00  0.00    +0.000 A 
ATOM     31  C   UNL     1      -7.154  12.790  24.024  0.00  0.00    +0.000 A 
ATOM     32  C   UNL     1      -5.775  12.648  24.175  0.00  0.00    +0.000 A 
ENDBRANCH  26  27
ENDBRANCH  10  26
TORSDOF 3
ENDMDL
MODEL 9
REMARK VINA RESULT:      -7.9      8.560      9.802
REMARK  Name = 
REMARK  3 active torsions:
REMARK  status: ('A' for Active; 'I' for Inactive)
REMARK    1  A    between atoms: N_6  and  C_7
REMARK    2  A    between atoms: C_16  and  C_18
REMARK    3  A    between atoms: C_18  and  C_19
REMARK                            x       y       z     vdW  Elec       q    Type
REMARK                         _______ _______ _______ _____ _____    ______ ____
ROOT
ATOM      1  C   UNL     1      -2.002  12.147  22.010  0.00  0.00    +0.000 C 
ATOM      2  C   UNL     1      -1.878  11.137  23.155  0.00  0.00    +0.000 C 
ATOM      3  C   UNL     1      -0.524  10.467  22.955  0.00  0.00    +0.000 C 
ATOM      4  N   UNL     1      -0.327  10.538  21.521  0.00  0.00    +0.000 N 
ATOM      5  C   UNL     1       0.552   9.774  20.800  0.00  0.00    +0.000 A 
ATOM      6  C   UNL     1       1.205   8.684  21.363  0.00  0.00    +0.000 A 
ATOM      7  C   UNL     1       1.934   7.802  20.568  0.00  0.00    +0.000 A 
ATOM      8  C   UNL     1       2.036   8.053  19.216  0.00  0.00    +0.000 A 
ATOM      9  N   UNL     1       2.697   7.183  18.347  0.00  0.00    +0.000 N 
ATOM     10  C   UNL     1       2.580   5.811  18.443  0.00  0.00    +0.000 C 
ATOM     11  O   UNL     1       1.841   5.223  19.230  0.00  0.00    +0.000 OA
ATOM     12  N   UNL     1       1.523   9.178  18.697  0.00  0.00    +0.000 NA
ATOM     13  N   UNL     1       0.745  10.017  19.483  0.00  0.00    +0.000 NA
ATOM     14  C   UNL     1      -0.920  11.753  20.975  0.00  0.00    +0.000 C 
ATOM     15  H   UNL     1       2.937   7.587  17.453  0.00  0.00    +0.000 HD
ENDROOT
BRANCH   1  21
ATOM     16  N   UNL     1      -5.101  16.873  24.510  0.00  0.00    +0.000 N 
ATOM     17  C   UNL     1      -4.487  15.787  24.004  0.00  0.00    +0.000 A 
ATOM     18  N   UNL     1      -5.030  14.595  23.920  0.00  0.00    +0.000 NA
ATOM     19  N   UNL     1      -4.178  13.669  23.353  0.00  0.00    +0.000 NA
ATOM     20  C   UNL     1      -3.010  14.179  23.030  0.00  0.00    +0.000 A 
ATOM     21  N   UNL     1      -1.973  13.538  22.446  0.00  0.00    +0.000 N 
ATOM     22  S   UNL     1      -2.877  15.854  23.418  0.00  0.00    +0.000 S 
ATOM     23  H   UNL     1      -5.919  16.698  25.084  0.00  0.00    +0.000 HD
ATOM     24  H   UNL     1      -4.533  17.655  24.811  0.00  0.00    +0.000 HD
ATOM     25  H   UNL     1      -1.094  14.029  22.334  0.00  0.00    +0.000 HD
ENDBRANCH   1  21
BRANCH  10  26
ATOM     26  C   UNL     1       3.489   5.042  17.498  0.00  0.00    +0.000 C 
BRANCH  26  27
ATOM     27  C   UNL     1       4.934   5.386  17.765  0.00  0.00    +0.000 A 
ATOM     28  C   UNL     1       5.504   5.082  19.011  0.00  0.00    +0.000 A 
ATOM     29  C   UNL     1       6.792   5.514  19.322  0.00  0.00    +0.000 A 
ATOM     30  C   UNL     1       7.528   6.234  18.386  0.00  0.00    +0.000 A 
ATOM     31  C   UNL     1       6.985   6.504  17.130  0.00  0.00    +0.000 A 
ATOM     32  C   UNL     1       5.694   6.081  16.816  0.00  0.00    +0.000 A 
ENDBRANCH  26  27
ENDBRANCH  10  26
TORSDOF 3
ENDMDL
