MODEL 1
REMARK VINA RESULT:      -6.9      0.000      0.000
REMARK  Name = 
REMARK  5 active torsions:
REMARK  status: ('A' for Active; 'I' for Inactive)
REMARK    1  A    between atoms: C_1  and  C_2
REMARK    2  A    between atoms: C_2  and  C_3
REMARK    3  A    between atoms: C_2  and  C_6
REMARK    4  A    between atoms: C_3  and  O_5
REMARK    5  A    between atoms: C_9  and  N_10
REMARK                            x       y       z     vdW  Elec       q    Type
REMARK                         _______ _______ _______ _____ _____    ______ ____
ROOT
ATOM      1  C   UNL     1       2.080   4.194  18.828  0.00  0.00    +0.000 A 
ATOM      2  C   UNL     1       3.038   3.431  18.153  0.00  0.00    +0.000 A 
ATOM      3  C   UNL     1       4.079   4.057  17.470  0.00  0.00    +0.000 A 
ATOM      4  C   UNL     1       4.167   5.454  17.405  0.00  0.00    +0.000 A 
ATOM      5  C   UNL     1       3.229   6.213  18.106  0.00  0.00    +0.000 A 
ATOM      6  C   UNL     1       2.190   5.593  18.808  0.00  0.00    +0.000 A 
ENDROOT
BRANCH   4   7
ATOM      7  N   UNL     1       5.205   6.108  16.708  0.00  0.00    +0.000 N 
ATOM      8  C   UNL     1       6.356   6.663  17.297  0.00  0.00    +0.000 A 
ATOM      9  C   UNL     1       7.032   5.979  18.309  0.00  0.00    +0.000 A 
ATOM     10  C   UNL     1       8.099   6.590  18.951  0.00  0.00    +0.000 A 
ATOM     11  C   UNL     1       8.503   7.846  18.533  0.00  0.00    +0.000 A 
ATOM     12  C   UNL     1       7.820   8.434  17.479  0.00  0.00    +0.000 A 
ATOM     13  N   UNL     1       6.757   7.871  16.860  0.00  0.00    +0.000 NA
ATOM     14  H   UNL     1       4.848   6.799  16.052  0.00  0.00    +0.000 HD
ENDBRANCH   4   7
BRANCH   1  16
ATOM     15  C   UNL     1       0.640   2.184  18.944  0.00  0.00    +0.000 C 
ATOM     16  C   UNL     1       1.026   3.481  19.657  0.00  0.00    +0.000 C 
BRANCH  16  17
ATOM     17  C   UNL     1       1.438   3.228  21.104  0.00  0.00    +0.000 C 
ATOM     18  O   UNL     1       1.053   2.289  21.784  0.00  0.00    +0.000 OA
BRANCH  17  19
ATOM     19  O   UNL     1       2.256   4.182  21.610  0.00  0.00    +0.000 OA
ATOM     20  H   UNL     1       1.816   4.772  22.252  0.00  0.00    +0.000 HD
ENDBRANCH  17  19
ENDBRANCH  16  17
ENDBRANCH   1  16
TORSDOF 4
ENDMDL
MODEL 2
REMARK VINA RESULT:      -6.8      0.582      1.237
REMARK  Name = 
REMARK  5 active torsions:
REMARK  status: ('A' for Active; 'I' for Inactive)
REMARK    1  A    between atoms: C_1  and  C_2
REMARK    2  A    between atoms: C_2  and  C_3
REMARK    3  A    between atoms: C_2  and  C_6
REMARK    4  A    between atoms: C_3  and  O_5
REMARK    5  A    between atoms: C_9  and  N_10
REMARK                            x       y       z     vdW  Elec       q    Type
REMARK                         _______ _______ _______ _____ _____    ______ ____
ROOT
ATOM      1  C   UNL     1       2.270   4.014  19.152  0.00  0.00    +0.000 A 
ATOM      2  C   UNL     1       2.533   5.347  19.482  0.00  0.00    +0.000 A 
ATOM      3  C   UNL     1       3.440   6.090  18.731  0.00  0.00    +0.000 A 
ATOM      4  C   UNL     1       4.140   5.513  17.663  0.00  0.00    +0.000 A 
ATOM      5  C   UNL     1       3.853   4.192  17.314  0.00  0.00    +0.000 A 
ATOM      6  C   UNL     1       2.931   3.445  18.053  0.00  0.00    +0.000 A 
ENDROOT
BRANCH   4   7
ATOM      7  N   UNL     1       5.074   6.243  16.898  0.00  0.00    +0.000 N 
ATOM      8  C   UNL     1       6.271   6.798  17.388  0.00  0.00    +0.000 A 
ATOM      9  C   UNL     1       7.075   6.076  18.271  0.00  0.00    +0.000 A 
ATOM     10  C   UNL     1       8.193   6.679  18.827  0.00  0.00    +0.000 A 
ATOM     11  C   UNL     1       8.515   7.972  18.450  0.00  0.00    +0.000 A 
ATOM     12  C   UNL     1       7.700   8.602  17.520  0.00  0.00    +0.000 A 
ATOM     13  N   UNL     1       6.588   8.044  16.989  0.00  0.00    +0.000 NA
ATOM     14  H   UNL     1       4.627   6.962  16.332  0.00  0.00    +0.000 HD
ENDBRANCH   4   7
BRANCH   1  16
ATOM     15  C   UNL     1       0.618   2.176  19.013  0.00  0.00    +0.000 C 
ATOM     16  C   UNL     1       1.191   3.268  19.918  0.00  0.00    +0.000 C 
BRANCH  16  17
ATOM     17  C   UNL     1       1.653   2.706  21.259  0.00  0.00    +0.000 C 
ATOM     18  O   UNL     1       0.928   2.527  22.226  0.00  0.00    +0.000 OA
BRANCH  17  19
ATOM     19  O   UNL     1       2.983   2.453  21.311  0.00  0.00    +0.000 OA
ATOM     20  H   UNL     1       3.258   1.699  20.755  0.00  0.00    +0.000 HD
ENDBRANCH  17  19
ENDBRANCH  16  17
ENDBRANCH   1  16
TORSDOF 4
ENDMDL
MODEL 3
REMARK VINA RESULT:      -6.8      4.520      6.849
REMARK  Name = 
REMARK  5 active torsions:
REMARK  status: ('A' for Active; 'I' for Inactive)
REMARK    1  A    between atoms: C_1  and  C_2
REMARK    2  A    between atoms: C_2  and  C_3
REMARK    3  A    between atoms: C_2  and  C_6
REMARK    4  A    between atoms: C_3  and  O_5
REMARK    5  A    between atoms: C_9  and  N_10
REMARK                            x       y       z     vdW  Elec       q    Type
REMARK                         _______ _______ _______ _____ _____    ______ ____
ROOT
ATOM      1  C   UNL     1       6.535   4.645  15.065  0.00  0.00    +0.000 A 
ATOM      2  C   UNL     1       7.217   4.311  16.240  0.00  0.00    +0.000 A 
ATOM      3  C   UNL     1       6.683   4.647  17.481  0.00  0.00    +0.000 A 
ATOM      4  C   UNL     1       5.482   5.361  17.585  0.00  0.00    +0.000 A 
ATOM      5  C   UNL     1       4.786   5.666  16.414  0.00  0.00    +0.000 A 
ATOM      6  C   UNL     1       5.307   5.317  15.164  0.00  0.00    +0.000 A 
ENDROOT
BRANCH   4   7
ATOM      7  N   UNL     1       4.931   5.723  18.832  0.00  0.00    +0.000 N 
ATOM      8  C   UNL     1       3.823   5.106  19.441  0.00  0.00    +0.000 A 
ATOM      9  C   UNL     1       3.691   3.717  19.425  0.00  0.00    +0.000 A 
ATOM     10  C   UNL     1       2.540   3.134  19.935  0.00  0.00    +0.000 A 
ATOM     11  C   UNL     1       1.571   3.945  20.499  0.00  0.00    +0.000 A 
ATOM     12  C   UNL     1       1.803   5.312  20.534  0.00  0.00    +0.000 A 
ATOM     13  N   UNL     1       2.903   5.905  20.014  0.00  0.00    +0.000 NA
ATOM     14  H   UNL     1       4.786   6.728  18.908  0.00  0.00    +0.000 HD
ENDBRANCH   4   7
BRANCH   1  16
ATOM     15  C   UNL     1       5.928   3.612  12.900  0.00  0.00    +0.000 C 
ATOM     16  C   UNL     1       7.085   4.163  13.735  0.00  0.00    +0.000 C 
BRANCH  16  17
ATOM     17  C   UNL     1       7.881   5.217  12.971  0.00  0.00    +0.000 C 
ATOM     18  O   UNL     1       8.711   5.961  13.472  0.00  0.00    +0.000 OA
BRANCH  17  19
ATOM     19  O   UNL     1       7.555   5.298  11.659  0.00  0.00    +0.000 OA
ATOM     20  H   UNL     1       8.254   4.967  11.062  0.00  0.00    +0.000 HD
ENDBRANCH  17  19
ENDBRANCH  16  17
ENDBRANCH   1  16
TORSDOF 4
ENDMDL
MODEL 4
REMARK VINA RESULT:      -6.7      4.595      6.800
REMARK  Name = 
REMARK  5 active torsions:
REMARK  status: ('A' for Active; 'I' for Inactive)
REMARK    1  A    between atoms: C_1  and  C_2
REMARK    2  A    between atoms: C_2  and  C_3
REMARK    3  A    between atoms: C_2  and  C_6
REMARK    4  A    between atoms: C_3  and  O_5
REMARK    5  A    between atoms: C_9  and  N_10
REMARK                            x       y       z     vdW  Elec       q    Type
REMARK                         _______ _______ _______ _____ _____    ______ ____
ROOT
ATOM      1  C   UNL     1       0.747   9.770  19.054  0.00  0.00    +0.000 A 
ATOM      2  C   UNL     1       0.913   9.023  20.225  0.00  0.00    +0.000 A 
ATOM      3  C   UNL     1       1.749   7.909  20.235  0.00  0.00    +0.000 A 
ATOM      4  C   UNL     1       2.405   7.485  19.072  0.00  0.00    +0.000 A 
ATOM      5  C   UNL     1       2.265   8.249  17.912  0.00  0.00    +0.000 A 
ATOM      6  C   UNL     1       1.440   9.379  17.898  0.00  0.00    +0.000 A 
ENDROOT
BRANCH   4   7
ATOM      7  N   UNL     1       3.245   6.352  19.056  0.00  0.00    +0.000 N 
ATOM      8  C   UNL     1       2.807   5.015  19.023  0.00  0.00    +0.000 A 
ATOM      9  C   UNL     1       1.747   4.639  18.197  0.00  0.00    +0.000 A 
ATOM     10  C   UNL     1       1.259   3.342  18.258  0.00  0.00    +0.000 A 
ATOM     11  C   UNL     1       1.874   2.434  19.104  0.00  0.00    +0.000 A 
ATOM     12  C   UNL     1       2.962   2.867  19.847  0.00  0.00    +0.000 A 
ATOM     13  N   UNL     1       3.434   4.135  19.826  0.00  0.00    +0.000 NA
ATOM     14  H   UNL     1       3.973   6.405  19.766  0.00  0.00    +0.000 HD
ENDBRANCH   4   7
BRANCH   1  16
ATOM     15  C   UNL     1       0.854  12.237  18.892  0.00  0.00    +0.000 C 
ATOM     16  C   UNL     1      -0.078  11.043  19.107  0.00  0.00    +0.000 C 
BRANCH  16  17
ATOM     17  C   UNL     1      -1.256  11.063  18.137  0.00  0.00    +0.000 C 
ATOM     18  O   UNL     1      -2.089  10.175  18.035  0.00  0.00    +0.000 OA
BRANCH  17  19
ATOM     19  O   UNL     1      -1.283  12.157  17.339  0.00  0.00    +0.000 OA
ATOM     20  H   UNL     1      -0.448  12.306  16.854  0.00  0.00    +0.000 HD
ENDBRANCH  17  19
ENDBRANCH  16  17
ENDBRANCH   1  16
TORSDOF 4
ENDMDL
MODEL 5
REMARK VINA RESULT:      -6.7      2.693      3.481
REMARK  Name = 
REMARK  5 active torsions:
REMARK  status: ('A' for Active; 'I' for Inactive)
REMARK    1  A    between atoms: C_1  and  C_2
REMARK    2  A    between atoms: C_2  and  C_3
REMARK    3  A    between atoms: C_2  and  C_6
REMARK    4  A    between atoms: C_3  and  O_5
REMARK    5  A    between atoms: C_9  and  N_10
REMARK                            x       y       z     vdW  Elec       q    Type
REMARK                         _______ _______ _______ _____ _____    ______ ____
ROOT
ATOM      1  C   UNL     1       3.472   4.328  19.168  0.00  0.00    +0.000 A 
ATOM      2  C   UNL     1       4.748   3.826  18.892  0.00  0.00    +0.000 A 
ATOM      3  C   UNL     1       5.514   4.380  17.869  0.00  0.00    +0.000 A 
ATOM      4  C   UNL     1       5.013   5.415  17.068  0.00  0.00    +0.000 A 
ATOM      5  C   UNL     1       3.753   5.937  17.365  0.00  0.00    +0.000 A 
ATOM      6  C   UNL     1       2.985   5.397  18.401  0.00  0.00    +0.000 A 
ENDROOT
BRANCH   4   7
ATOM      7  N   UNL     1       5.766   5.981  16.018  0.00  0.00    +0.000 N 
ATOM      8  C   UNL     1       6.147   5.314  14.839  0.00  0.00    +0.000 A 
ATOM      9  C   UNL     1       5.243   4.485  14.173  0.00  0.00    +0.000 A 
ATOM     10  C   UNL     1       5.668   3.752  13.075  0.00  0.00    +0.000 A 
ATOM     11  C   UNL     1       6.971   3.903  12.632  0.00  0.00    +0.000 A 
ATOM     12  C   UNL     1       7.791   4.794  13.308  0.00  0.00    +0.000 A 
ATOM     13  N   UNL     1       7.407   5.495  14.401  0.00  0.00    +0.000 NA
ATOM     14  H   UNL     1       6.593   6.469  16.359  0.00  0.00    +0.000 HD
ENDBRANCH   4   7
BRANCH   1  16
ATOM     15  C   UNL     1       2.127   4.955  21.148  0.00  0.00    +0.000 C 
ATOM     16  C   UNL     1       2.711   3.780  20.362  0.00  0.00    +0.000 C 
BRANCH  16  17
ATOM     17  C   UNL     1       1.642   2.753  20.003  0.00  0.00    +0.000 C 
ATOM     18  O   UNL     1       1.863   1.673  19.476  0.00  0.00    +0.000 OA
BRANCH  17  19
ATOM     19  O   UNL     1       0.381   3.163  20.280  0.00  0.00    +0.000 OA
ATOM     20  H   UNL     1      -0.298   2.743  19.717  0.00  0.00    +0.000 HD
ENDBRANCH  17  19
ENDBRANCH  16  17
ENDBRANCH   1  16
TORSDOF 4
ENDMDL
MODEL 6
REMARK VINA RESULT:      -6.7      3.702      5.723
REMARK  Name = 
REMARK  5 active torsions:
REMARK  status: ('A' for Active; 'I' for Inactive)
REMARK    1  A    between atoms: C_1  and  C_2
REMARK    2  A    between atoms: C_2  and  C_3
REMARK    3  A    between atoms: C_2  and  C_6
REMARK    4  A    between atoms: C_3  and  O_5
REMARK    5  A    between atoms: C_9  and  N_10
REMARK                            x       y       z     vdW  Elec       q    Type
REMARK                         _______ _______ _______ _____ _____    ______ ____
ROOT
ATOM      1  C   UNL     1       1.234   8.994  20.141  0.00  0.00    +0.000 A 
ATOM      2  C   UNL     1       1.398   9.257  18.777  0.00  0.00    +0.000 A 
ATOM      3  C   UNL     1       2.036   8.331  17.956  0.00  0.00    +0.000 A 
ATOM      4  C   UNL     1       2.566   7.143  18.477  0.00  0.00    +0.000 A 
ATOM      5  C   UNL     1       2.374   6.867  19.831  0.00  0.00    +0.000 A 
ATOM      6  C   UNL     1       1.719   7.784  20.660  0.00  0.00    +0.000 A 
ENDROOT
BRANCH   4   7
ATOM      7  N   UNL     1       3.229   6.199  17.665  0.00  0.00    +0.000 N 
ATOM      8  C   UNL     1       3.046   4.805  17.725  0.00  0.00    +0.000 A 
ATOM      9  C   UNL     1       1.767   4.264  17.866  0.00  0.00    +0.000 A 
ATOM     10  C   UNL     1       1.617   2.896  18.032  0.00  0.00    +0.000 A 
ATOM     11  C   UNL     1       2.743   2.089  18.002  0.00  0.00    +0.000 A 
ATOM     12  C   UNL     1       3.973   2.695  17.796  0.00  0.00    +0.000 A 
ATOM     13  N   UNL     1       4.146   4.030  17.663  0.00  0.00    +0.000 NA
ATOM     14  H   UNL     1       4.233   6.362  17.630  0.00  0.00    +0.000 HD
ENDBRANCH   4   7
BRANCH   1  16
ATOM     15  C   UNL     1      -0.685  10.556  20.121  0.00  0.00    +0.000 C 
ATOM     16  C   UNL     1       0.433   9.969  20.985  0.00  0.00    +0.000 C 
BRANCH  16  17
ATOM     17  C   UNL     1      -0.108   9.374  22.281  0.00  0.00    +0.000 C 
ATOM     18  O   UNL     1      -0.954   8.494  22.343  0.00  0.00    +0.000 OA
BRANCH  17  19
ATOM     19  O   UNL     1       0.405   9.945  23.396  0.00  0.00    +0.000 OA
ATOM     20  H   UNL     1       1.093   9.404  23.830  0.00  0.00    +0.000 HD
ENDBRANCH  17  19
ENDBRANCH  16  17
ENDBRANCH   1  16
TORSDOF 4
ENDMDL
MODEL 7
REMARK VINA RESULT:      -6.6      2.421      3.338
REMARK  Name = 
REMARK  5 active torsions:
REMARK  status: ('A' for Active; 'I' for Inactive)
REMARK    1  A    between atoms: C_1  and  C_2
REMARK    2  A    between atoms: C_2  and  C_3
REMARK    3  A    between atoms: C_2  and  C_6
REMARK    4  A    between atoms: C_3  and  O_5
REMARK    5  A    between atoms: C_9  and  N_10
REMARK                            x       y       z     vdW  Elec       q    Type
REMARK                         _______ _______ _______ _____ _____    ______ ____
ROOT
ATOM      1  C   UNL     1       2.752   4.167  18.846  0.00  0.00    +0.000 A 
ATOM      2  C   UNL     1       2.559   5.487  18.426  0.00  0.00    +0.000 A 
ATOM      3  C   UNL     1       3.423   6.061  17.497  0.00  0.00    +0.000 A 
ATOM      4  C   UNL     1       4.524   5.354  16.997  0.00  0.00    +0.000 A 
ATOM      5  C   UNL     1       4.698   4.026  17.392  0.00  0.00    +0.000 A 
ATOM      6  C   UNL     1       3.825   3.437  18.312  0.00  0.00    +0.000 A 
ENDROOT
BRANCH   4   7
ATOM      7  N   UNL     1       5.420   5.922  16.067  0.00  0.00    +0.000 N 
ATOM      8  C   UNL     1       5.913   5.279  14.917  0.00  0.00    +0.000 A 
ATOM      9  C   UNL     1       5.065   4.511  14.117  0.00  0.00    +0.000 A 
ATOM     10  C   UNL     1       5.591   3.798  13.050  0.00  0.00    +0.000 A 
ATOM     11  C   UNL     1       6.943   3.907  12.771  0.00  0.00    +0.000 A 
ATOM     12  C   UNL     1       7.709   4.739  13.575  0.00  0.00    +0.000 A 
ATOM     13  N   UNL     1       7.223   5.419  14.639  0.00  0.00    +0.000 NA
ATOM     14  H   UNL     1       6.217   6.361  16.522  0.00  0.00    +0.000 HD
ENDBRANCH   4   7
BRANCH   1  16
ATOM     15  C   UNL     1       1.526   2.077  19.348  0.00  0.00    +0.000 C 
ATOM     16  C   UNL     1       1.727   3.533  19.769  0.00  0.00    +0.000 C 
BRANCH  16  17
ATOM     17  C   UNL     1       2.066   3.651  21.252  0.00  0.00    +0.000 C 
ATOM     18  O   UNL     1       1.980   2.739  22.061  0.00  0.00    +0.000 OA
BRANCH  17  19
ATOM     19  O   UNL     1       2.438   4.898  21.626  0.00  0.00    +0.000 OA
ATOM     20  H   UNL     1       3.039   4.911  22.396  0.00  0.00    +0.000 HD
ENDBRANCH  17  19
ENDBRANCH  16  17
ENDBRANCH   1  16
TORSDOF 4
ENDMDL
MODEL 8
REMARK VINA RESULT:      -6.6      4.304      6.530
REMARK  Name = 
REMARK  5 active torsions:
REMARK  status: ('A' for Active; 'I' for Inactive)
REMARK    1  A    between atoms: C_1  and  C_2
REMARK    2  A    between atoms: C_2  and  C_3
REMARK    3  A    between atoms: C_2  and  C_6
REMARK    4  A    between atoms: C_3  and  O_5
REMARK    5  A    between atoms: C_9  and  N_10
REMARK                            x       y       z     vdW  Elec       q    Type
REMARK                         _______ _______ _______ _____ _____    ______ ____
ROOT
ATOM      1  C   UNL     1       1.004   9.432  19.390  0.00  0.00    +0.000 A 
ATOM      2  C   UNL     1       1.486   9.230  18.093  0.00  0.00    +0.000 A 
ATOM      3  C   UNL     1       2.258   8.109  17.798  0.00  0.00    +0.000 A 
ATOM      4  C   UNL     1       2.607   7.186  18.793  0.00  0.00    +0.000 A 
ATOM      5  C   UNL     1       2.098   7.371  20.080  0.00  0.00    +0.000 A 
ATOM      6  C   UNL     1       1.308   8.485  20.380  0.00  0.00    +0.000 A 
ENDROOT
BRANCH   4   7
ATOM      7  N   UNL     1       3.399   6.052  18.519  0.00  0.00    +0.000 N 
ATOM      8  C   UNL     1       2.971   4.716  18.624  0.00  0.00    +0.000 A 
ATOM      9  C   UNL     1       1.707   4.340  18.166  0.00  0.00    +0.000 A 
ATOM     10  C   UNL     1       1.261   3.044  18.377  0.00  0.00    +0.000 A 
ATOM     11  C   UNL     1       2.106   2.136  18.991  0.00  0.00    +0.000 A 
ATOM     12  C   UNL     1       3.371   2.568  19.361  0.00  0.00    +0.000 A 
ATOM     13  N   UNL     1       3.815   3.836  19.195  0.00  0.00    +0.000 NA
ATOM     14  H   UNL     1       4.311   6.105  18.969  0.00  0.00    +0.000 HD
ENDBRANCH   4   7
BRANCH   1  16
ATOM     15  C   UNL     1       0.913  11.851  19.903  0.00  0.00    +0.000 C 
ATOM     16  C   UNL     1       0.069  10.600  19.652  0.00  0.00    +0.000 C 
BRANCH  16  17
ATOM     17  C   UNL     1      -0.967  10.827  18.556  0.00  0.00    +0.000 C 
ATOM     18  O   UNL     1      -1.901  10.077  18.314  0.00  0.00    +0.000 OA
BRANCH  17  19
ATOM     19  O   UNL     1      -0.739  11.938  17.816  0.00  0.00    +0.000 OA
ATOM     20  H   UNL     1      -0.297  11.755  16.964  0.00  0.00    +0.000 HD
ENDBRANCH  17  19
ENDBRANCH  16  17
ENDBRANCH   1  16
TORSDOF 4
ENDMDL
MODEL 9
REMARK VINA RESULT:      -6.6      4.124      6.308
REMARK  Name = 
REMARK  5 active torsions:
REMARK  status: ('A' for Active; 'I' for Inactive)
REMARK    1  A    between atoms: C_1  and  C_2
REMARK    2  A    between atoms: C_2  and  C_3
REMARK    3  A    between atoms: C_2  and  C_6
REMARK    4  A    between atoms: C_3  and  O_5
REMARK    5  A    between atoms: C_9  and  N_10
REMARK                            x       y       z     vdW  Elec       q    Type
REMARK                         _______ _______ _______ _____ _____    ______ ____
ROOT
ATOM      1  C   UNL     1       1.186   9.460  19.177  0.00  0.00    +0.000 A 
ATOM      2  C   UNL     1       1.774   9.222  17.931  0.00  0.00    +0.000 A 
ATOM      3  C   UNL     1       2.510   8.060  17.714  0.00  0.00    +0.000 A 
ATOM      4  C   UNL     1       2.717   7.130  18.741  0.00  0.00    +0.000 A 
ATOM      5  C   UNL     1       2.103   7.353  19.974  0.00  0.00    +0.000 A 
ATOM      6  C   UNL     1       1.348   8.509  20.196  0.00  0.00    +0.000 A 
ENDROOT
BRANCH   4   7
ATOM      7  N   UNL     1       3.471   5.954  18.546  0.00  0.00    +0.000 N 
ATOM      8  C   UNL     1       2.979   4.642  18.671  0.00  0.00    +0.000 A 
ATOM      9  C   UNL     1       1.725   4.305  18.159  0.00  0.00    +0.000 A 
ATOM     10  C   UNL     1       1.210   3.038  18.387  0.00  0.00    +0.000 A 
ATOM     11  C   UNL     1       1.981   2.115  19.074  0.00  0.00    +0.000 A 
ATOM     12  C   UNL     1       3.243   2.505  19.497  0.00  0.00    +0.000 A 
ATOM     13  N   UNL     1       3.751   3.746  19.314  0.00  0.00    +0.000 NA
ATOM     14  H   UNL     1       4.360   5.982  19.042  0.00  0.00    +0.000 HD
ENDBRANCH   4   7
BRANCH   1  16
ATOM     15  C   UNL     1      -1.076  10.365  18.742  0.00  0.00    +0.000 C 
ATOM     16  C   UNL     1       0.294  10.678  19.347  0.00  0.00    +0.000 C 
BRANCH  16  17
ATOM     17  C   UNL     1       0.178  11.170  20.786  0.00  0.00    +0.000 C 
ATOM     18  O   UNL     1      -0.804  11.017  21.497  0.00  0.00    +0.000 OA
BRANCH  17  19
ATOM     19  O   UNL     1       1.266  11.852  21.215  0.00  0.00    +0.000 OA
ATOM     20  H   UNL     1       1.117  12.815  21.291  0.00  0.00    +0.000 HD
ENDBRANCH  17  19
ENDBRANCH  16  17
ENDBRANCH   1  16
TORSDOF 4
ENDMDL
