MODEL 1
REMARK VINA RESULT:      -7.9      0.000      0.000
REMARK  Name = 
REMARK  7 active torsions:
REMARK  status: ('A' for Active; 'I' for Inactive)
REMARK    1  A    between atoms: C_1  and  O_2
REMARK    2  A    between atoms: O_2  and  C_3
REMARK    3  A    between atoms: C_3  and  C_4
REMARK    4  A    between atoms: C_4  and  N_5
REMARK    5  A    between atoms: C_4  and  C_22
REMARK    6  A    between atoms: C_14  and  O_15
REMARK    7  A    between atoms: O_15  and  C_16
REMARK                            x       y       z     vdW  Elec       q    Type
REMARK                         _______ _______ _______ _____ _____    ______ ____
ROOT
ATOM      1  N   UNL     1       0.982   9.395  19.175  0.00  0.00    +0.000 N 
ATOM      2  C   UNL     1       2.027   8.908  18.425  0.00  0.00    +0.000 C 
ATOM      3  O   UNL     1       2.567   9.550  17.529  0.00  0.00    +0.000 OA
ATOM      4  N   UNL     1       2.345   7.614  18.772  0.00  0.00    +0.000 N 
ATOM      5  C   UNL     1       3.315   6.876  18.081  0.00  0.00    +0.000 A 
ATOM      6  C   UNL     1       4.546   7.430  17.750  0.00  0.00    +0.000 A 
ATOM      7  C   UNL     1       5.398   6.590  17.033  0.00  0.00    +0.000 A 
ATOM      8  N   UNL     1       6.666   6.787  16.550  0.00  0.00    +0.000 N 
ATOM      9  N   UNL     1       7.156   5.744  15.865  0.00  0.00    +0.000 NA
ATOM     10  C   UNL     1       6.167   4.844  15.917  0.00  0.00    +0.000 A 
ATOM     11  C   UNL     1       5.041   5.302  16.644  0.00  0.00    +0.000 A 
ATOM     12  C   UNL     1       3.775   4.839  17.017  0.00  0.00    +0.000 A 
ATOM     13  N   UNL     1       2.956   5.611  17.781  0.00  0.00    +0.000 NA
ATOM     14  H   UNL     1       0.842   8.996  20.090  0.00  0.00    +0.000 HD
ATOM     15  H   UNL     1       1.560   7.044  19.047  0.00  0.00    +0.000 HD
ATOM     16  H   UNL     1       7.250   7.611  16.652  0.00  0.00    +0.000 HD
ENDROOT
BRANCH   1  17
ATOM     17  C   UNL     1       0.413  10.718  18.914  0.00  0.00    +0.000 C 
BRANCH  17  18
ATOM     18  C   UNL     1      -1.022  10.622  18.413  0.00  0.00    +0.000 A 
ATOM     19  C   UNL     1      -1.310   9.819  17.297  0.00  0.00    +0.000 A 
ATOM     20  C   UNL     1      -2.577   9.840  16.712  0.00  0.00    +0.000 A 
ATOM     21  C   UNL     1      -3.575  10.655  17.240  0.00  0.00    +0.000 A 
ATOM     22  C   UNL     1      -3.315  11.436  18.364  0.00  0.00    +0.000 A 
ATOM     23  C   UNL     1      -2.047  11.422  18.947  0.00  0.00    +0.000 A 
ENDBRANCH  17  18
BRANCH  17  24
ATOM     24  C   UNL     1       0.401  11.627  20.166  0.00  0.00    +0.000 C 
BRANCH  24  26
ATOM     25  C   UNL     1      -0.372  10.860  22.247  0.00  0.00    +0.000 C 
ATOM     26  O   UNL     1       0.735  10.896  21.350  0.00  0.00    +0.000 OA
ENDBRANCH  24  26
ENDBRANCH  17  24
ENDBRANCH   1  17
BRANCH  10  27
ATOM     27  O   UNL     1       6.446   3.709  15.247  0.00  0.00    +0.000 OA
BRANCH  27  28
ATOM     28  C   UNL     1       6.206   3.788  13.865  0.00  0.00    +0.000 C 
ATOM     29  F   UNL     1       4.957   4.279  13.667  0.00  0.00    +0.000 F 
ATOM     30  F   UNL     1       7.066   4.708  13.349  0.00  0.00    +0.000 F 
ENDBRANCH  27  28
ENDBRANCH  10  27
TORSDOF 6
ENDMDL
MODEL 2
REMARK VINA RESULT:      -7.9      0.751      1.083
REMARK  Name = 
REMARK  7 active torsions:
REMARK  status: ('A' for Active; 'I' for Inactive)
REMARK    1  A    between atoms: C_1  and  O_2
REMARK    2  A    between atoms: O_2  and  C_3
REMARK    3  A    between atoms: C_3  and  C_4
REMARK    4  A    between atoms: C_4  and  N_5
REMARK    5  A    between atoms: C_4  and  C_22
REMARK    6  A    between atoms: C_14  and  O_15
REMARK    7  A    between atoms: O_15  and  C_16
REMARK                            x       y       z     vdW  Elec       q    Type
REMARK                         _______ _______ _______ _____ _____    ______ ____
ROOT
ATOM      1  N   UNL     1       0.876   9.487  19.044  0.00  0.00    +0.000 N 
ATOM      2  C   UNL     1       1.935   8.992  18.320  0.00  0.00    +0.000 C 
ATOM      3  O   UNL     1       2.471   9.612  17.405  0.00  0.00    +0.000 OA
ATOM      4  N   UNL     1       2.273   7.717  18.714  0.00  0.00    +0.000 N 
ATOM      5  C   UNL     1       3.261   6.973  18.057  0.00  0.00    +0.000 A 
ATOM      6  C   UNL     1       4.485   7.536  17.716  0.00  0.00    +0.000 A 
ATOM      7  C   UNL     1       5.356   6.687  17.035  0.00  0.00    +0.000 A 
ATOM      8  N   UNL     1       6.625   6.889  16.555  0.00  0.00    +0.000 N 
ATOM      9  N   UNL     1       7.138   5.831  15.910  0.00  0.00    +0.000 NA
ATOM     10  C   UNL     1       6.164   4.916  15.987  0.00  0.00    +0.000 A 
ATOM     11  C   UNL     1       5.025   5.379  16.689  0.00  0.00    +0.000 A 
ATOM     12  C   UNL     1       3.765   4.908  17.070  0.00  0.00    +0.000 A 
ATOM     13  N   UNL     1       2.926   5.692  17.800  0.00  0.00    +0.000 NA
ATOM     14  H   UNL     1       0.736   9.118  19.972  0.00  0.00    +0.000 HD
ATOM     15  H   UNL     1       1.495   7.143  19.004  0.00  0.00    +0.000 HD
ATOM     16  H   UNL     1       7.193   7.726  16.631  0.00  0.00    +0.000 HD
ENDROOT
BRANCH   1  17
ATOM     17  C   UNL     1       0.286  10.790  18.732  0.00  0.00    +0.000 C 
BRANCH  17  18
ATOM     18  C   UNL     1      -1.171  10.658  18.309  0.00  0.00    +0.000 A 
ATOM     19  C   UNL     1      -1.505   9.802  17.247  0.00  0.00    +0.000 A 
ATOM     20  C   UNL     1      -2.800   9.785  16.726  0.00  0.00    +0.000 A 
ATOM     21  C   UNL     1      -3.780  10.615  17.266  0.00  0.00    +0.000 A 
ATOM     22  C   UNL     1      -3.472  11.450  18.338  0.00  0.00    +0.000 A 
ATOM     23  C   UNL     1      -2.177  11.474  18.856  0.00  0.00    +0.000 A 
ENDBRANCH  17  18
BRANCH  17  24
ATOM     24  C   UNL     1       0.329  11.773  19.926  0.00  0.00    +0.000 C 
BRANCH  24  26
ATOM     25  C   UNL     1       1.794  12.861  18.448  0.00  0.00    +0.000 C 
ATOM     26  O   UNL     1       0.913  13.025  19.556  0.00  0.00    +0.000 OA
ENDBRANCH  24  26
ENDBRANCH  17  24
ENDBRANCH   1  17
BRANCH  10  27
ATOM     27  O   UNL     1       6.468   3.763  15.360  0.00  0.00    +0.000 OA
BRANCH  27  28
ATOM     28  C   UNL     1       6.121   3.745  13.999  0.00  0.00    +0.000 C 
ATOM     29  F   UNL     1       4.958   4.425  13.836  0.00  0.00    +0.000 F 
ATOM     30  F   UNL     1       7.072   4.443  13.321  0.00  0.00    +0.000 F 
ENDBRANCH  27  28
ENDBRANCH  10  27
TORSDOF 6
ENDMDL
MODEL 3
REMARK VINA RESULT:      -7.9      6.128      8.135
REMARK  Name = 
REMARK  7 active torsions:
REMARK  status: ('A' for Active; 'I' for Inactive)
REMARK    1  A    between atoms: C_1  and  O_2
REMARK    2  A    between atoms: O_2  and  C_3
REMARK    3  A    between atoms: C_3  and  C_4
REMARK    4  A    between atoms: C_4  and  N_5
REMARK    5  A    between atoms: C_4  and  C_22
REMARK    6  A    between atoms: C_14  and  O_15
REMARK    7  A    between atoms: O_15  and  C_16
REMARK                            x       y       z     vdW  Elec       q    Type
REMARK                         _______ _______ _______ _____ _____    ______ ____
ROOT
ATOM      1  N   UNL     1       9.423   9.718  19.253  0.00  0.00    +0.000 N 
ATOM      2  C   UNL     1       8.514   8.949  18.564  0.00  0.00    +0.000 C 
ATOM      3  O   UNL     1       7.729   9.413  17.742  0.00  0.00    +0.000 OA
ATOM      4  N   UNL     1       8.565   7.629  18.949  0.00  0.00    +0.000 N 
ATOM      5  C   UNL     1       7.667   6.674  18.452  0.00  0.00    +0.000 A 
ATOM      6  C   UNL     1       7.365   6.601  17.098  0.00  0.00    +0.000 A 
ATOM      7  C   UNL     1       6.430   5.625  16.754  0.00  0.00    +0.000 A 
ATOM      8  N   UNL     1       5.903   5.265  15.540  0.00  0.00    +0.000 N 
ATOM      9  N   UNL     1       4.985   4.291  15.612  0.00  0.00    +0.000 NA
ATOM     10  C   UNL     1       4.927   4.013  16.920  0.00  0.00    +0.000 A 
ATOM     11  C   UNL     1       5.814   4.801  17.692  0.00  0.00    +0.000 A 
ATOM     12  C   UNL     1       6.179   4.959  19.033  0.00  0.00    +0.000 A 
ATOM     13  N   UNL     1       7.144   5.852  19.385  0.00  0.00    +0.000 NA
ATOM     14  H   UNL     1      10.246   9.255  19.608  0.00  0.00    +0.000 HD
ATOM     15  H   UNL     1       8.776   7.479  19.924  0.00  0.00    +0.000 HD
ATOM     16  H   UNL     1       6.126   5.647  14.627  0.00  0.00    +0.000 HD
ENDROOT
BRANCH   1  17
ATOM     17  C   UNL     1       9.481  11.169  19.073  0.00  0.00    +0.000 C 
BRANCH  17  18
ATOM     18  C   UNL     1       9.426  11.900  20.408  0.00  0.00    +0.000 A 
ATOM     19  C   UNL     1       8.747  11.314  21.488  0.00  0.00    +0.000 A 
ATOM     20  C   UNL     1       8.534  12.028  22.668  0.00  0.00    +0.000 A 
ATOM     21  C   UNL     1       9.007  13.333  22.789  0.00  0.00    +0.000 A 
ATOM     22  C   UNL     1       9.707  13.920  21.737  0.00  0.00    +0.000 A 
ATOM     23  C   UNL     1       9.915  13.211  20.554  0.00  0.00    +0.000 A 
ENDBRANCH  17  18
BRANCH  17  24
ATOM     24  C   UNL     1      10.764  11.636  18.347  0.00  0.00    +0.000 C 
BRANCH  24  26
ATOM     25  C   UNL     1      11.636  13.219  16.846  0.00  0.00    +0.000 C 
ATOM     26  O   UNL     1      10.464  12.527  17.269  0.00  0.00    +0.000 OA
ENDBRANCH  24  26
ENDBRANCH  17  24
ENDBRANCH   1  17
BRANCH  10  27
ATOM     27  O   UNL     1       4.020   3.062  17.221  0.00  0.00    +0.000 OA
BRANCH  27  28
ATOM     28  C   UNL     1       2.935   3.529  17.980  0.00  0.00    +0.000 C 
ATOM     29  F   UNL     1       1.970   3.973  17.136  0.00  0.00    +0.000 F 
ATOM     30  F   UNL     1       2.405   2.464  18.641  0.00  0.00    +0.000 F 
ENDBRANCH  27  28
ENDBRANCH  10  27
TORSDOF 6
ENDMDL
MODEL 4
REMARK VINA RESULT:      -7.6      4.694      9.386
REMARK  Name = 
REMARK  7 active torsions:
REMARK  status: ('A' for Active; 'I' for Inactive)
REMARK    1  A    between atoms: C_1  and  O_2
REMARK    2  A    between atoms: O_2  and  C_3
REMARK    3  A    between atoms: C_3  and  C_4
REMARK    4  A    between atoms: C_4  and  N_5
REMARK    5  A    between atoms: C_4  and  C_22
REMARK    6  A    between atoms: C_14  and  O_15
REMARK    7  A    between atoms: O_15  and  C_16
REMARK                            x       y       z     vdW  Elec       q    Type
REMARK                         _______ _______ _______ _____ _____    ______ ____
ROOT
ATOM      1  N   UNL     1       3.299   5.617  18.411  0.00  0.00    +0.000 N 
ATOM      2  C   UNL     1       2.850   6.906  18.584  0.00  0.00    +0.000 C 
ATOM      3  O   UNL     1       3.200   7.840  17.869  0.00  0.00    +0.000 OA
ATOM      4  N   UNL     1       2.016   7.014  19.674  0.00  0.00    +0.000 N 
ATOM      5  C   UNL     1       1.510   8.249  20.103  0.00  0.00    +0.000 A 
ATOM      6  C   UNL     1       0.982   9.167  19.203  0.00  0.00    +0.000 A 
ATOM      7  C   UNL     1       0.548  10.366  19.769  0.00  0.00    +0.000 A 
ATOM      8  N   UNL     1      -0.022  11.478  19.205  0.00  0.00    +0.000 N 
ATOM      9  N   UNL     1      -0.272  12.464  20.078  0.00  0.00    +0.000 NA
ATOM     10  C   UNL     1       0.147  11.961  21.245  0.00  0.00    +0.000 A 
ATOM     11  C   UNL     1       0.659  10.646  21.128  0.00  0.00    +0.000 A 
ATOM     12  C   UNL     1       1.214   9.660  21.950  0.00  0.00    +0.000 A 
ATOM     13  N   UNL     1       1.575   8.454  21.434  0.00  0.00    +0.000 NA
ATOM     14  H   UNL     1       2.718   4.873  18.766  0.00  0.00    +0.000 HD
ATOM     15  H   UNL     1       2.248   6.410  20.447  0.00  0.00    +0.000 HD
ATOM     16  H   UNL     1      -0.262  11.628  18.231  0.00  0.00    +0.000 HD
ENDROOT
BRANCH   1  17
ATOM     17  C   UNL     1       4.272   5.286  17.370  0.00  0.00    +0.000 C 
BRANCH  17  18
ATOM     18  C   UNL     1       5.676   5.737  17.752  0.00  0.00    +0.000 A 
ATOM     19  C   UNL     1       6.270   5.227  18.918  0.00  0.00    +0.000 A 
ATOM     20  C   UNL     1       7.480   5.743  19.385  0.00  0.00    +0.000 A 
ATOM     21  C   UNL     1       8.117   6.767  18.688  0.00  0.00    +0.000 A 
ATOM     22  C   UNL     1       7.555   7.266  17.515  0.00  0.00    +0.000 A 
ATOM     23  C   UNL     1       6.342   6.756  17.049  0.00  0.00    +0.000 A 
ENDBRANCH  17  18
BRANCH  17  24
ATOM     24  C   UNL     1       4.344   3.770  17.070  0.00  0.00    +0.000 C 
BRANCH  24  26
ATOM     25  C   UNL     1       2.640   2.251  17.622  0.00  0.00    +0.000 C 
ATOM     26  O   UNL     1       3.747   2.999  18.117  0.00  0.00    +0.000 OA
ENDBRANCH  24  26
ENDBRANCH  17  24
ENDBRANCH   1  17
BRANCH  10  27
ATOM     27  O   UNL     1       0.012  12.821  22.273  0.00  0.00    +0.000 OA
BRANCH  27  28
ATOM     28  C   UNL     1      -1.256  12.797  22.876  0.00  0.00    +0.000 C 
ATOM     29  F   UNL     1      -1.450  11.576  23.435  0.00  0.00    +0.000 F 
ATOM     30  F   UNL     1      -1.243  13.690  23.902  0.00  0.00    +0.000 F 
ENDBRANCH  27  28
ENDBRANCH  10  27
TORSDOF 6
ENDMDL
MODEL 5
REMARK VINA RESULT:      -7.6      6.133      8.083
REMARK  Name = 
REMARK  7 active torsions:
REMARK  status: ('A' for Active; 'I' for Inactive)
REMARK    1  A    between atoms: C_1  and  O_2
REMARK    2  A    between atoms: O_2  and  C_3
REMARK    3  A    between atoms: C_3  and  C_4
REMARK    4  A    between atoms: C_4  and  N_5
REMARK    5  A    between atoms: C_4  and  C_22
REMARK    6  A    between atoms: C_14  and  O_15
REMARK    7  A    between atoms: O_15  and  C_16
REMARK                            x       y       z     vdW  Elec       q    Type
REMARK                         _______ _______ _______ _____ _____    ______ ____
ROOT
ATOM      1  N   UNL     1       9.466  10.129  19.194  0.00  0.00    +0.000 N 
ATOM      2  C   UNL     1       8.578   9.323  18.522  0.00  0.00    +0.000 C 
ATOM      3  O   UNL     1       7.730   9.757  17.747  0.00  0.00    +0.000 OA
ATOM      4  N   UNL     1       8.729   7.998  18.865  0.00  0.00    +0.000 N 
ATOM      5  C   UNL     1       7.873   7.002  18.378  0.00  0.00    +0.000 A 
ATOM      6  C   UNL     1       7.517   6.945  17.036  0.00  0.00    +0.000 A 
ATOM      7  C   UNL     1       6.631   5.921  16.703  0.00  0.00    +0.000 A 
ATOM      8  N   UNL     1       6.076   5.560  15.502  0.00  0.00    +0.000 N 
ATOM      9  N   UNL     1       5.225   4.527  15.584  0.00  0.00    +0.000 NA
ATOM     10  C   UNL     1       5.242   4.211  16.884  0.00  0.00    +0.000 A 
ATOM     11  C   UNL     1       6.111   5.034  17.641  0.00  0.00    +0.000 A 
ATOM     12  C   UNL     1       6.523   5.179  18.970  0.00  0.00    +0.000 A 
ATOM     13  N   UNL     1       7.444   6.122  19.307  0.00  0.00    +0.000 NA
ATOM     14  H   UNL     1      10.331   9.711  19.501  0.00  0.00    +0.000 HD
ATOM     15  H   UNL     1       8.992   7.837  19.826  0.00  0.00    +0.000 HD
ATOM     16  H   UNL     1       6.235   5.980  14.592  0.00  0.00    +0.000 HD
ENDROOT
BRANCH   1  17
ATOM     17  C   UNL     1       9.424  11.586  19.055  0.00  0.00    +0.000 C 
BRANCH  17  18
ATOM     18  C   UNL     1       9.144  12.267  20.389  0.00  0.00    +0.000 A 
ATOM     19  C   UNL     1       9.322  13.655  20.504  0.00  0.00    +0.000 A 
ATOM     20  C   UNL     1       9.237  14.283  21.748  0.00  0.00    +0.000 A 
ATOM     21  C   UNL     1       8.963  13.535  22.890  0.00  0.00    +0.000 A 
ATOM     22  C   UNL     1       8.757  12.160  22.789  0.00  0.00    +0.000 A 
ATOM     23  C   UNL     1       8.848  11.529  21.548  0.00  0.00    +0.000 A 
ENDBRANCH  17  18
BRANCH  17  24
ATOM     24  C   UNL     1      10.744  12.178  18.507  0.00  0.00    +0.000 C 
BRANCH  24  26
ATOM     25  C   UNL     1      11.773  13.359  16.757  0.00  0.00    +0.000 C 
ATOM     26  O   UNL     1      10.547  12.819  17.243  0.00  0.00    +0.000 OA
ENDBRANCH  24  26
ENDBRANCH  17  24
ENDBRANCH   1  17
BRANCH  10  27
ATOM     27  O   UNL     1       4.412   3.196  17.195  0.00  0.00    +0.000 OA
BRANCH  27  28
ATOM     28  C   UNL     1       3.133   3.610  17.601  0.00  0.00    +0.000 C 
ATOM     29  F   UNL     1       3.107   4.965  17.649  0.00  0.00    +0.000 F 
ATOM     30  F   UNL     1       2.252   3.243  16.630  0.00  0.00    +0.000 F 
ENDBRANCH  27  28
ENDBRANCH  10  27
TORSDOF 6
ENDMDL
MODEL 6
REMARK VINA RESULT:      -7.5      4.987      9.262
REMARK  Name = 
REMARK  7 active torsions:
REMARK  status: ('A' for Active; 'I' for Inactive)
REMARK    1  A    between atoms: C_1  and  O_2
REMARK    2  A    between atoms: O_2  and  C_3
REMARK    3  A    between atoms: C_3  and  C_4
REMARK    4  A    between atoms: C_4  and  N_5
REMARK    5  A    between atoms: C_4  and  C_22
REMARK    6  A    between atoms: C_14  and  O_15
REMARK    7  A    between atoms: O_15  and  C_16
REMARK                            x       y       z     vdW  Elec       q    Type
REMARK                         _______ _______ _______ _____ _____    ______ ____
ROOT
ATOM      1  N   UNL     1       3.204   6.903  18.702  0.00  0.00    +0.000 N 
ATOM      2  C   UNL     1       2.274   7.727  19.293  0.00  0.00    +0.000 C 
ATOM      3  O   UNL     1       1.887   7.581  20.449  0.00  0.00    +0.000 OA
ATOM      4  N   UNL     1       1.807   8.681  18.418  0.00  0.00    +0.000 N 
ATOM      5  C   UNL     1       0.785   9.573  18.767  0.00  0.00    +0.000 A 
ATOM      6  C   UNL     1       0.787  10.234  19.990  0.00  0.00    +0.000 A 
ATOM      7  C   UNL     1      -0.312  11.063  20.215  0.00  0.00    +0.000 A 
ATOM      8  N   UNL     1      -0.640  11.861  21.280  0.00  0.00    +0.000 N 
ATOM      9  N   UNL     1      -1.815  12.491  21.148  0.00  0.00    +0.000 NA
ATOM     10  C   UNL     1      -2.252  12.088  19.949  0.00  0.00    +0.000 A 
ATOM     11  C   UNL     1      -1.355  11.204  19.303  0.00  0.00    +0.000 A 
ATOM     12  C   UNL     1      -1.268  10.489  18.104  0.00  0.00    +0.000 A 
ATOM     13  N   UNL     1      -0.171   9.732  17.829  0.00  0.00    +0.000 NA
ATOM     14  H   UNL     1       3.731   7.280  17.928  0.00  0.00    +0.000 HD
ATOM     15  H   UNL     1       1.735   8.378  17.458  0.00  0.00    +0.000 HD
ATOM     16  H   UNL     1      -0.106  12.015  22.130  0.00  0.00    +0.000 HD
ENDROOT
BRANCH   1  17
ATOM     17  C   UNL     1       3.767   5.758  19.417  0.00  0.00    +0.000 C 
BRANCH  17  18
ATOM     18  C   UNL     1       2.788   4.592  19.464  0.00  0.00    +0.000 A 
ATOM     19  C   UNL     1       2.267   4.080  18.265  0.00  0.00    +0.000 A 
ATOM     20  C   UNL     1       1.245   3.129  18.280  0.00  0.00    +0.000 A 
ATOM     21  C   UNL     1       0.739   2.669  19.493  0.00  0.00    +0.000 A 
ATOM     22  C   UNL     1       1.264   3.146  20.693  0.00  0.00    +0.000 A 
ATOM     23  C   UNL     1       2.281   4.101  20.680  0.00  0.00    +0.000 A 
ENDBRANCH  17  18
BRANCH  17  24
ATOM     24  C   UNL     1       5.075   5.232  18.780  0.00  0.00    +0.000 C 
BRANCH  24  26
ATOM     25  C   UNL     1       7.371   5.648  19.048  0.00  0.00    +0.000 C 
ATOM     26  O   UNL     1       6.165   5.273  19.707  0.00  0.00    +0.000 OA
ENDBRANCH  24  26
ENDBRANCH  17  24
ENDBRANCH   1  17
BRANCH  10  27
ATOM     27  O   UNL     1      -3.460  12.591  19.627  0.00  0.00    +0.000 OA
BRANCH  27  28
ATOM     28  C   UNL     1      -4.203  13.041  20.731  0.00  0.00    +0.000 C 
ATOM     29  F   UNL     1      -4.796  14.217  20.408  0.00  0.00    +0.000 F 
ATOM     30  F   UNL     1      -5.210  12.149  20.941  0.00  0.00    +0.000 F 
ENDBRANCH  27  28
ENDBRANCH  10  27
TORSDOF 6
ENDMDL
MODEL 7
REMARK VINA RESULT:      -7.4      0.433      1.180
REMARK  Name = 
REMARK  7 active torsions:
REMARK  status: ('A' for Active; 'I' for Inactive)
REMARK    1  A    between atoms: C_1  and  O_2
REMARK    2  A    between atoms: O_2  and  C_3
REMARK    3  A    between atoms: C_3  and  C_4
REMARK    4  A    between atoms: C_4  and  N_5
REMARK    5  A    between atoms: C_4  and  C_22
REMARK    6  A    between atoms: C_14  and  O_15
REMARK    7  A    between atoms: O_15  and  C_16
REMARK                            x       y       z     vdW  Elec       q    Type
REMARK                         _______ _______ _______ _____ _____    ______ ____
ROOT
ATOM      1  N   UNL     1       1.067   9.443  19.367  0.00  0.00    +0.000 N 
ATOM      2  C   UNL     1       2.063   8.955  18.553  0.00  0.00    +0.000 C 
ATOM      3  O   UNL     1       2.590   9.618  17.665  0.00  0.00    +0.000 OA
ATOM      4  N   UNL     1       2.346   7.636  18.828  0.00  0.00    +0.000 N 
ATOM      5  C   UNL     1       3.260   6.898  18.064  0.00  0.00    +0.000 A 
ATOM      6  C   UNL     1       4.496   7.422  17.708  0.00  0.00    +0.000 A 
ATOM      7  C   UNL     1       5.287   6.588  16.918  0.00  0.00    +0.000 A 
ATOM      8  N   UNL     1       6.541   6.762  16.393  0.00  0.00    +0.000 N 
ATOM      9  N   UNL     1       6.964   5.736  15.641  0.00  0.00    +0.000 NA
ATOM     10  C   UNL     1       5.945   4.870  15.694  0.00  0.00    +0.000 A 
ATOM     11  C   UNL     1       4.868   5.332  16.487  0.00  0.00    +0.000 A 
ATOM     12  C   UNL     1       3.601   4.897  16.891  0.00  0.00    +0.000 A 
ATOM     13  N   UNL     1       2.842   5.661  17.723  0.00  0.00    +0.000 NA
ATOM     14  H   UNL     1       0.950   9.007  20.269  0.00  0.00    +0.000 HD
ATOM     15  H   UNL     1       1.552   7.081  19.109  0.00  0.00    +0.000 HD
ATOM     16  H   UNL     1       7.159   7.559  16.507  0.00  0.00    +0.000 HD
ENDROOT
BRANCH   1  17
ATOM     17  C   UNL     1       0.538  10.796  19.191  0.00  0.00    +0.000 C 
BRANCH  17  18
ATOM     18  C   UNL     1      -0.840  10.778  18.541  0.00  0.00    +0.000 A 
ATOM     19  C   UNL     1      -1.851  11.612  19.046  0.00  0.00    +0.000 A 
ATOM     20  C   UNL     1      -3.163  11.499  18.586  0.00  0.00    +0.000 A 
ATOM     21  C   UNL     1      -3.481  10.558  17.609  0.00  0.00    +0.000 A 
ATOM     22  C   UNL     1      -2.485   9.741  17.078  0.00  0.00    +0.000 A 
ATOM     23  C   UNL     1      -1.173   9.848  17.541  0.00  0.00    +0.000 A 
ENDBRANCH  17  18
BRANCH  17  24
ATOM     24  C   UNL     1       0.406  11.571  20.523  0.00  0.00    +0.000 C 
BRANCH  24  26
ATOM     25  C   UNL     1      -0.343  10.494  22.471  0.00  0.00    +0.000 C 
ATOM     26  O   UNL     1       0.784  10.763  21.641  0.00  0.00    +0.000 OA
ENDBRANCH  24  26
ENDBRANCH  17  24
ENDBRANCH   1  17
BRANCH  10  27
ATOM     27  O   UNL     1       6.155   3.758  14.962  0.00  0.00    +0.000 OA
BRANCH  27  28
ATOM     28  C   UNL     1       6.085   3.966  13.574  0.00  0.00    +0.000 C 
ATOM     29  F   UNL     1       7.192   3.434  12.997  0.00  0.00    +0.000 F 
ATOM     30  F   UNL     1       5.026   3.254  13.103  0.00  0.00    +0.000 F 
ENDBRANCH  27  28
ENDBRANCH  10  27
TORSDOF 6
ENDMDL
MODEL 8
REMARK VINA RESULT:      -7.4      4.596      8.991
REMARK  Name = 
REMARK  7 active torsions:
REMARK  status: ('A' for Active; 'I' for Inactive)
REMARK    1  A    between atoms: C_1  and  O_2
REMARK    2  A    between atoms: O_2  and  C_3
REMARK    3  A    between atoms: C_3  and  C_4
REMARK    4  A    between atoms: C_4  and  N_5
REMARK    5  A    between atoms: C_4  and  C_22
REMARK    6  A    between atoms: C_14  and  O_15
REMARK    7  A    between atoms: O_15  and  C_16
REMARK                            x       y       z     vdW  Elec       q    Type
REMARK                         _______ _______ _______ _____ _____    ______ ____
ROOT
ATOM      1  N   UNL     1       3.310   6.723  18.940  0.00  0.00    +0.000 N 
ATOM      2  C   UNL     1       2.319   7.521  19.462  0.00  0.00    +0.000 C 
ATOM      3  O   UNL     1       1.756   7.282  20.527  0.00  0.00    +0.000 OA
ATOM      4  N   UNL     1       2.013   8.570  18.626  0.00  0.00    +0.000 N 
ATOM      5  C   UNL     1       0.969   9.463  18.904  0.00  0.00    +0.000 A 
ATOM      6  C   UNL     1       0.799  10.005  20.172  0.00  0.00    +0.000 A 
ATOM      7  C   UNL     1      -0.302  10.850  20.310  0.00  0.00    +0.000 A 
ATOM      8  N   UNL     1      -0.772  11.555  21.387  0.00  0.00    +0.000 N 
ATOM      9  N   UNL     1      -1.899  12.238  21.142  0.00  0.00    +0.000 NA
ATOM     10  C   UNL     1      -2.155  11.967  19.857  0.00  0.00    +0.000 A 
ATOM     11  C   UNL     1      -1.189  11.115  19.270  0.00  0.00    +0.000 A 
ATOM     12  C   UNL     1      -0.936  10.513  18.033  0.00  0.00    +0.000 A 
ATOM     13  N   UNL     1       0.172   9.745  17.852  0.00  0.00    +0.000 NA
ATOM     14  H   UNL     1       3.957   7.150  18.296  0.00  0.00    +0.000 HD
ATOM     15  H   UNL     1       2.082   8.362  17.641  0.00  0.00    +0.000 HD
ATOM     16  H   UNL     1      -0.372  11.608  22.319  0.00  0.00    +0.000 HD
ENDROOT
BRANCH   1  17
ATOM     17  C   UNL     1       3.730   5.495  19.615  0.00  0.00    +0.000 C 
BRANCH  17  18
ATOM     18  C   UNL     1       2.624   4.447  19.611  0.00  0.00    +0.000 A 
ATOM     19  C   UNL     1       2.212   3.875  20.825  0.00  0.00    +0.000 A 
ATOM     20  C   UNL     1       1.325   2.797  20.840  0.00  0.00    +0.000 A 
ATOM     21  C   UNL     1       0.830   2.285  19.644  0.00  0.00    +0.000 A 
ATOM     22  C   UNL     1       1.207   2.859  18.431  0.00  0.00    +0.000 A 
ATOM     23  C   UNL     1       2.099   3.931  18.413  0.00  0.00    +0.000 A 
ENDBRANCH  17  18
BRANCH  17  24
ATOM     24  C   UNL     1       4.977   4.847  18.968  0.00  0.00    +0.000 C 
BRANCH  24  26
ATOM     25  C   UNL     1       7.168   5.689  18.887  0.00  0.00    +0.000 C 
ATOM     26  O   UNL     1       6.163   5.121  19.721  0.00  0.00    +0.000 OA
ENDBRANCH  24  26
ENDBRANCH  17  24
ENDBRANCH   1  17
BRANCH  10  27
ATOM     27  O   UNL     1      -3.288  12.542  19.409  0.00  0.00    +0.000 OA
BRANCH  27  28
ATOM     28  C   UNL     1      -4.171  11.649  18.779  0.00  0.00    +0.000 C 
ATOM     29  F   UNL     1      -5.427  11.882  19.235  0.00  0.00    +0.000 F 
ATOM     30  F   UNL     1      -4.183  11.948  17.451  0.00  0.00    +0.000 F 
ENDBRANCH  27  28
ENDBRANCH  10  27
TORSDOF 6
ENDMDL
MODEL 9
REMARK VINA RESULT:      -7.4      4.947      9.401
REMARK  Name = 
REMARK  7 active torsions:
REMARK  status: ('A' for Active; 'I' for Inactive)
REMARK    1  A    between atoms: C_1  and  O_2
REMARK    2  A    between atoms: O_2  and  C_3
REMARK    3  A    between atoms: C_3  and  C_4
REMARK    4  A    between atoms: C_4  and  N_5
REMARK    5  A    between atoms: C_4  and  C_22
REMARK    6  A    between atoms: C_14  and  O_15
REMARK    7  A    between atoms: O_15  and  C_16
REMARK                            x       y       z     vdW  Elec       q    Type
REMARK                         _______ _______ _______ _____ _____    ______ ____
ROOT
ATOM      1  N   UNL     1       2.530   7.465  18.330  0.00  0.00    +0.000 N 
ATOM      2  C   UNL     1       1.817   8.376  19.074  0.00  0.00    +0.000 C 
ATOM      3  O   UNL     1       1.726   8.320  20.297  0.00  0.00    +0.000 OA
ATOM      4  N   UNL     1       1.190   9.307  18.277  0.00  0.00    +0.000 N 
ATOM      5  C   UNL     1       0.330  10.280  18.806  0.00  0.00    +0.000 A 
ATOM      6  C   UNL     1       0.670  11.006  19.941  0.00  0.00    +0.000 A 
ATOM      7  C   UNL     1      -0.297  11.914  20.372  0.00  0.00    +0.000 A 
ATOM      8  N   UNL     1      -0.310  12.788  21.428  0.00  0.00    +0.000 N 
ATOM      9  N   UNL     1      -1.451  13.482  21.546  0.00  0.00    +0.000 NA
ATOM     10  C   UNL     1      -2.193  13.041  20.524  0.00  0.00    +0.000 A 
ATOM     11  C   UNL     1      -1.528  12.068  19.739  0.00  0.00    +0.000 A 
ATOM     12  C   UNL     1      -1.779  11.283  18.609  0.00  0.00    +0.000 A 
ATOM     13  N   UNL     1      -0.822  10.445  18.125  0.00  0.00    +0.000 NA
ATOM     14  H   UNL     1       2.862   7.764  17.426  0.00  0.00    +0.000 HD
ATOM     15  H   UNL     1       0.865   8.956  17.390  0.00  0.00    +0.000 HD
ATOM     16  H   UNL     1       0.426  12.956  22.106  0.00  0.00    +0.000 HD
ENDROOT
BRANCH   1  17
ATOM     17  C   UNL     1       3.200   6.328  18.962  0.00  0.00    +0.000 C 
BRANCH  17  18
ATOM     18  C   UNL     1       2.266   5.132  19.098  0.00  0.00    +0.000 A 
ATOM     19  C   UNL     1       1.713   4.829  20.353  0.00  0.00    +0.000 A 
ATOM     20  C   UNL     1       0.992   3.650  20.547  0.00  0.00    +0.000 A 
ATOM     21  C   UNL     1       0.806   2.764  19.489  0.00  0.00    +0.000 A 
ATOM     22  C   UNL     1       1.325   3.063  18.231  0.00  0.00    +0.000 A 
ATOM     23  C   UNL     1       2.051   4.238  18.035  0.00  0.00    +0.000 A 
ENDBRANCH  17  18
BRANCH  17  24
ATOM     24  C   UNL     1       4.445   5.850  18.178  0.00  0.00    +0.000 C 
BRANCH  24  26
ATOM     25  C   UNL     1       5.161   6.342  15.996  0.00  0.00    +0.000 C 
ATOM     26  O   UNL     1       4.938   6.868  17.302  0.00  0.00    +0.000 OA
ENDBRANCH  24  26
ENDBRANCH  17  24
ENDBRANCH   1  17
BRANCH  10  27
ATOM     27  O   UNL     1      -3.418  13.599  20.477  0.00  0.00    +0.000 OA
BRANCH  27  28
ATOM     28  C   UNL     1      -4.463  12.707  20.770  0.00  0.00    +0.000 C 
ATOM     29  F   UNL     1      -4.332  12.288  22.053  0.00  0.00    +0.000 F 
ATOM     30  F   UNL     1      -5.630  13.404  20.711  0.00  0.00    +0.000 F 
ENDBRANCH  27  28
ENDBRANCH  10  27
TORSDOF 6
ENDMDL
