MODEL 1
REMARK VINA RESULT:      -7.0      0.000      0.000
REMARK  Name = 
REMARK  9 active torsions:
REMARK  status: ('A' for Active; 'I' for Inactive)
REMARK    1  A    between atoms: C_1  and  O_2
REMARK    2  A    between atoms: O_2  and  C_3
REMARK    3  A    between atoms: C_6  and  O_7
REMARK    4  A    between atoms: O_7  and  C_8
REMARK    5  A    between atoms: C_9  and  N_10
REMARK    6  A    between atoms: N_10  and  C_11
REMARK    7  A    between atoms: N_10  and  S_19
REMARK    8  A    between atoms: C_11  and  C_12
REMARK    9  A    between atoms: S_19  and  C_22
REMARK                            x       y       z     vdW  Elec       q    Type
REMARK                         _______ _______ _______ _____ _____    ______ ____
ROOT
ATOM      1  N   UNL     1       3.601   5.583  18.007  0.00  0.00    +0.000 N 
ENDROOT
BRANCH   1   6
ATOM      2  C   UNL     1       7.078   5.629  19.464  0.00  0.00    +0.000 A 
ATOM      3  C   UNL     1       7.793   6.160  18.397  0.00  0.00    +0.000 A 
ATOM      4  C   UNL     1       7.165   6.395  17.173  0.00  0.00    +0.000 A 
ATOM      5  C   UNL     1       5.790   6.168  17.030  0.00  0.00    +0.000 A 
ATOM      6  C   UNL     1       5.047   5.732  18.141  0.00  0.00    +0.000 A 
ATOM      7  C   UNL     1       5.701   5.412  19.341  0.00  0.00    +0.000 A 
BRANCH   2   9
ATOM      8  C   UNL     1       9.096   4.870  20.395  0.00  0.00    +0.000 C 
ATOM      9  O   UNL     1       7.799   5.414  20.607  0.00  0.00    +0.000 OA
ENDBRANCH   2   9
BRANCH   5  10
ATOM     10  O   UNL     1       5.093   6.353  15.859  0.00  0.00    +0.000 OA
ATOM     11  C   UNL     1       5.401   5.476  14.784  0.00  0.00    +0.000 C 
ENDBRANCH   5  10
ENDBRANCH   1   6
BRANCH   1  12
ATOM     12  S   UNL     1       3.114   3.980  17.645  0.00  0.00    +0.000 S 
ATOM     13  O   UNL     1       1.953   3.981  16.780  0.00  0.00    +0.000 OA
ATOM     14  O   UNL     1       4.311   3.239  17.283  0.00  0.00    +0.000 OA
BRANCH  12  15
ATOM     15  C   UNL     1       2.550   3.352  19.221  0.00  0.00    +0.000 A 
ATOM     16  C   UNL     1       3.489   2.847  20.129  0.00  0.00    +0.000 A 
ATOM     17  C   UNL     1       3.075   2.439  21.400  0.00  0.00    +0.000 A 
ATOM     18  C   UNL     1       1.733   2.548  21.767  0.00  0.00    +0.000 A 
ATOM     19  C   UNL     1       0.798   3.053  20.862  0.00  0.00    +0.000 A 
ATOM     20  C   UNL     1       1.202   3.454  19.586  0.00  0.00    +0.000 A 
ENDBRANCH  12  15
ENDBRANCH   1  12
BRANCH   1  21
ATOM     21  C   UNL     1       2.782   6.241  19.058  0.00  0.00    +0.000 C 
BRANCH  21  22
ATOM     22  C   UNL     1       2.219   7.608  18.678  0.00  0.00    +0.000 C 
ATOM     23  O   UNL     1       2.403   8.076  17.552  0.00  0.00    +0.000 OA
ATOM     24  N   UNL     1       1.579   8.329  19.664  0.00  0.00    +0.000 N 
ATOM     25  C   UNL     1       1.171   9.705  19.467  0.00  0.00    +0.000 C 
ATOM     26  C   UNL     1       0.987  10.224  20.884  0.00  0.00    +0.000 C 
ATOM     27  C   UNL     1       0.454   9.009  21.636  0.00  0.00    +0.000 C 
ATOM     28  C   UNL     1       1.076   7.810  20.924  0.00  0.00    +0.000 C 
ENDBRANCH  21  22
ENDBRANCH   1  21
TORSDOF 7
ENDMDL
MODEL 2
REMARK VINA RESULT:      -6.6      1.673      3.256
REMARK  Name = 
REMARK  9 active torsions:
REMARK  status: ('A' for Active; 'I' for Inactive)
REMARK    1  A    between atoms: C_1  and  O_2
REMARK    2  A    between atoms: O_2  and  C_3
REMARK    3  A    between atoms: C_6  and  O_7
REMARK    4  A    between atoms: O_7  and  C_8
REMARK    5  A    between atoms: C_9  and  N_10
REMARK    6  A    between atoms: N_10  and  C_11
REMARK    7  A    between atoms: N_10  and  S_19
REMARK    8  A    between atoms: C_11  and  C_12
REMARK    9  A    between atoms: S_19  and  C_22
REMARK                            x       y       z     vdW  Elec       q    Type
REMARK                         _______ _______ _______ _____ _____    ______ ____
ROOT
ATOM      1  N   UNL     1       4.392   4.682  17.661  0.00  0.00    +0.000 N 
ENDROOT
BRANCH   1   6
ATOM      2  C   UNL     1       5.762   4.244  14.177  0.00  0.00    +0.000 A 
ATOM      3  C   UNL     1       7.056   4.719  14.351  0.00  0.00    +0.000 A 
ATOM      4  C   UNL     1       7.443   5.283  15.568  0.00  0.00    +0.000 A 
ATOM      5  C   UNL     1       6.553   5.308  16.649  0.00  0.00    +0.000 A 
ATOM      6  C   UNL     1       5.280   4.731  16.504  0.00  0.00    +0.000 A 
ATOM      7  C   UNL     1       4.866   4.247  15.252  0.00  0.00    +0.000 A 
BRANCH   2   9
ATOM      8  C   UNL     1       6.615   3.601  12.086  0.00  0.00    +0.000 C 
ATOM      9  O   UNL     1       5.484   3.736  12.937  0.00  0.00    +0.000 OA
ENDBRANCH   2   9
BRANCH   5  10
ATOM     10  O   UNL     1       6.841   5.860  17.876  0.00  0.00    +0.000 OA
ATOM     11  C   UNL     1       7.668   7.016  17.880  0.00  0.00    +0.000 C 
ENDBRANCH   5  10
ENDBRANCH   1   6
BRANCH   1  12
ATOM     12  S   UNL     1       4.484   3.206  18.526  0.00  0.00    +0.000 S 
ATOM     13  O   UNL     1       4.486   2.078  17.617  0.00  0.00    +0.000 OA
ATOM     14  O   UNL     1       5.530   3.357  19.524  0.00  0.00    +0.000 OA
BRANCH  12  15
ATOM     15  C   UNL     1       2.922   3.132  19.392  0.00  0.00    +0.000 A 
ATOM     16  C   UNL     1       2.921   3.042  20.790  0.00  0.00    +0.000 A 
ATOM     17  C   UNL     1       1.710   3.079  21.486  0.00  0.00    +0.000 A 
ATOM     18  C   UNL     1       0.507   3.218  20.792  0.00  0.00    +0.000 A 
ATOM     19  C   UNL     1       0.509   3.310  19.399  0.00  0.00    +0.000 A 
ATOM     20  C   UNL     1       1.716   3.264  18.694  0.00  0.00    +0.000 A 
ENDBRANCH  12  15
ENDBRANCH   1  12
BRANCH   1  21
ATOM     21  C   UNL     1       4.387   5.890  18.526  0.00  0.00    +0.000 C 
BRANCH  21  22
ATOM     22  C   UNL     1       3.419   6.989  18.099  0.00  0.00    +0.000 C 
ATOM     23  O   UNL     1       3.509   7.511  16.985  0.00  0.00    +0.000 OA
ATOM     24  N   UNL     1       2.505   7.431  19.032  0.00  0.00    +0.000 N 
ATOM     25  C   UNL     1       1.666   8.588  18.796  0.00  0.00    +0.000 C 
ATOM     26  C   UNL     1       1.218   8.988  20.193  0.00  0.00    +0.000 C 
ATOM     27  C   UNL     1       1.082   7.652  20.914  0.00  0.00    +0.000 C 
ATOM     28  C   UNL     1       2.124   6.749  20.256  0.00  0.00    +0.000 C 
ENDBRANCH  21  22
ENDBRANCH   1  21
TORSDOF 7
ENDMDL
MODEL 3
REMARK VINA RESULT:      -6.5      1.589      3.272
REMARK  Name = 
REMARK  9 active torsions:
REMARK  status: ('A' for Active; 'I' for Inactive)
REMARK    1  A    between atoms: C_1  and  O_2
REMARK    2  A    between atoms: O_2  and  C_3
REMARK    3  A    between atoms: C_6  and  O_7
REMARK    4  A    between atoms: O_7  and  C_8
REMARK    5  A    between atoms: C_9  and  N_10
REMARK    6  A    between atoms: N_10  and  C_11
REMARK    7  A    between atoms: N_10  and  S_19
REMARK    8  A    between atoms: C_11  and  C_12
REMARK    9  A    between atoms: S_19  and  C_22
REMARK                            x       y       z     vdW  Elec       q    Type
REMARK                         _______ _______ _______ _____ _____    ______ ____
ROOT
ATOM      1  N   UNL     1       4.200   4.657  17.742  0.00  0.00    +0.000 N 
ENDROOT
BRANCH   1   6
ATOM      2  C   UNL     1       5.614   4.390  14.257  0.00  0.00    +0.000 A 
ATOM      3  C   UNL     1       6.894   4.890  14.464  0.00  0.00    +0.000 A 
ATOM      4  C   UNL     1       7.256   5.414  15.706  0.00  0.00    +0.000 A 
ATOM      5  C   UNL     1       6.355   5.375  16.778  0.00  0.00    +0.000 A 
ATOM      6  C   UNL     1       5.098   4.773  16.596  0.00  0.00    +0.000 A 
ATOM      7  C   UNL     1       4.708   4.329  15.323  0.00  0.00    +0.000 A 
BRANCH   2   9
ATOM      8  C   UNL     1       6.485   3.355  12.338  0.00  0.00    +0.000 C 
ATOM      9  O   UNL     1       5.360   3.925  12.996  0.00  0.00    +0.000 OA
ENDBRANCH   2   9
BRANCH   5  10
ATOM     10  O   UNL     1       6.618   5.885  18.028  0.00  0.00    +0.000 OA
ATOM     11  C   UNL     1       7.848   5.506  18.629  0.00  0.00    +0.000 C 
ENDBRANCH   5  10
ENDBRANCH   1   6
BRANCH   1  12
ATOM     12  S   UNL     1       4.303   3.141  18.534  0.00  0.00    +0.000 S 
ATOM     13  O   UNL     1       4.037   2.060  17.608  0.00  0.00    +0.000 OA
ATOM     14  O   UNL     1       5.519   3.155  19.331  0.00  0.00    +0.000 OA
BRANCH  12  15
ATOM     15  C   UNL     1       2.919   3.168  19.665  0.00  0.00    +0.000 A 
ATOM     16  C   UNL     1       1.623   3.306  19.153  0.00  0.00    +0.000 A 
ATOM     17  C   UNL     1       0.526   3.235  20.015  0.00  0.00    +0.000 A 
ATOM     18  C   UNL     1       0.720   3.014  21.380  0.00  0.00    +0.000 A 
ATOM     19  C   UNL     1       2.013   2.875  21.889  0.00  0.00    +0.000 A 
ATOM     20  C   UNL     1       3.116   2.954  21.035  0.00  0.00    +0.000 A 
ENDBRANCH  12  15
ENDBRANCH   1  12
BRANCH   1  21
ATOM     21  C   UNL     1       4.174   5.821  18.665  0.00  0.00    +0.000 C 
BRANCH  21  22
ATOM     22  C   UNL     1       3.258   6.965  18.239  0.00  0.00    +0.000 C 
ATOM     23  O   UNL     1       3.363   7.475  17.121  0.00  0.00    +0.000 OA
ATOM     24  N   UNL     1       2.376   7.457  19.177  0.00  0.00    +0.000 N 
ATOM     25  C   UNL     1       1.594   8.654  18.942  0.00  0.00    +0.000 C 
ATOM     26  C   UNL     1       1.179   9.084  20.340  0.00  0.00    +0.000 C 
ATOM     27  C   UNL     1       0.984   7.761  21.071  0.00  0.00    +0.000 C 
ATOM     28  C   UNL     1       1.972   6.803  20.409  0.00  0.00    +0.000 C 
ENDBRANCH  21  22
ENDBRANCH   1  21
TORSDOF 7
ENDMDL
MODEL 4
REMARK VINA RESULT:      -6.4      1.366      2.915
REMARK  Name = 
REMARK  9 active torsions:
REMARK  status: ('A' for Active; 'I' for Inactive)
REMARK    1  A    between atoms: C_1  and  O_2
REMARK    2  A    between atoms: O_2  and  C_3
REMARK    3  A    between atoms: C_6  and  O_7
REMARK    4  A    between atoms: O_7  and  C_8
REMARK    5  A    between atoms: C_9  and  N_10
REMARK    6  A    between atoms: N_10  and  C_11
REMARK    7  A    between atoms: N_10  and  S_19
REMARK    8  A    between atoms: C_11  and  C_12
REMARK    9  A    between atoms: S_19  and  C_22
REMARK                            x       y       z     vdW  Elec       q    Type
REMARK                         _______ _______ _______ _____ _____    ______ ____
ROOT
ATOM      1  N   UNL     1       3.447   5.328  17.261  0.00  0.00    +0.000 N 
ENDROOT
BRANCH   1   6
ATOM      2  C   UNL     1       6.210   4.548  14.819  0.00  0.00    +0.000 A 
ATOM      3  C   UNL     1       7.284   4.403  15.688  0.00  0.00    +0.000 A 
ATOM      4  C   UNL     1       7.131   4.669  17.050  0.00  0.00    +0.000 A 
ATOM      5  C   UNL     1       5.875   5.014  17.565  0.00  0.00    +0.000 A 
ATOM      6  C   UNL     1       4.767   5.056  16.701  0.00  0.00    +0.000 A 
ATOM      7  C   UNL     1       4.945   4.876  15.320  0.00  0.00    +0.000 A 
BRANCH   2   9
ATOM      8  C   UNL     1       7.607   4.979  12.981  0.00  0.00    +0.000 C 
ATOM      9  O   UNL     1       6.479   4.287  13.503  0.00  0.00    +0.000 OA
ENDBRANCH   2   9
BRANCH   5  10
ATOM     10  O   UNL     1       5.636   5.311  18.887  0.00  0.00    +0.000 OA
ATOM     11  C   UNL     1       6.772   5.465  19.725  0.00  0.00    +0.000 C 
ENDBRANCH   5  10
ENDBRANCH   1   6
BRANCH   1  12
ATOM     12  S   UNL     1       2.459   3.933  17.381  0.00  0.00    +0.000 S 
ATOM     13  O   UNL     1       1.081   4.253  17.071  0.00  0.00    +0.000 OA
ATOM     14  O   UNL     1       3.147   2.859  16.684  0.00  0.00    +0.000 OA
BRANCH  12  15
ATOM     15  C   UNL     1       2.491   3.549  19.127  0.00  0.00    +0.000 A 
ATOM     16  C   UNL     1       1.360   3.823  19.906  0.00  0.00    +0.000 A 
ATOM     17  C   UNL     1       1.336   3.443  21.250  0.00  0.00    +0.000 A 
ATOM     18  C   UNL     1       2.429   2.780  21.811  0.00  0.00    +0.000 A 
ATOM     19  C   UNL     1       3.555   2.506  21.032  0.00  0.00    +0.000 A 
ATOM     20  C   UNL     1       3.591   2.892  19.690  0.00  0.00    +0.000 A 
ENDBRANCH  12  15
ENDBRANCH   1  12
BRANCH   1  21
ATOM     21  C   UNL     1       3.421   6.193  18.470  0.00  0.00    +0.000 C 
BRANCH  21  22
ATOM     22  C   UNL     1       2.649   7.500  18.315  0.00  0.00    +0.000 C 
ATOM     23  O   UNL     1       2.707   8.147  17.267  0.00  0.00    +0.000 OA
ATOM     24  N   UNL     1       1.962   7.968  19.415  0.00  0.00    +0.000 N 
ATOM     25  C   UNL     1       1.351   9.281  19.437  0.00  0.00    +0.000 C 
ATOM     26  C   UNL     1       1.164   9.558  20.920  0.00  0.00    +0.000 C 
ATOM     27  C   UNL     1       0.850   8.182  21.497  0.00  0.00    +0.000 C 
ATOM     28  C   UNL     1       1.602   7.204  20.596  0.00  0.00    +0.000 C 
ENDBRANCH  21  22
ENDBRANCH   1  21
TORSDOF 7
ENDMDL
MODEL 5
REMARK VINA RESULT:      -6.1      4.926      9.111
REMARK  Name = 
REMARK  9 active torsions:
REMARK  status: ('A' for Active; 'I' for Inactive)
REMARK    1  A    between atoms: C_1  and  O_2
REMARK    2  A    between atoms: O_2  and  C_3
REMARK    3  A    between atoms: C_6  and  O_7
REMARK    4  A    between atoms: O_7  and  C_8
REMARK    5  A    between atoms: C_9  and  N_10
REMARK    6  A    between atoms: N_10  and  C_11
REMARK    7  A    between atoms: N_10  and  S_19
REMARK    8  A    between atoms: C_11  and  C_12
REMARK    9  A    between atoms: S_19  and  C_22
REMARK                            x       y       z     vdW  Elec       q    Type
REMARK                         _______ _______ _______ _____ _____    ______ ____
ROOT
ATOM      1  N   UNL     1       0.303  11.840  19.905  0.00  0.00    +0.000 N 
ENDROOT
BRANCH   1   6
ATOM      2  C   UNL     1       1.775   8.416  19.342  0.00  0.00    +0.000 A 
ATOM      3  C   UNL     1       1.604   7.855  20.602  0.00  0.00    +0.000 A 
ATOM      4  C   UNL     1       1.116   8.627  21.657  0.00  0.00    +0.000 A 
ATOM      5  C   UNL     1       0.724   9.954  21.439  0.00  0.00    +0.000 A 
ATOM      6  C   UNL     1       0.797  10.487  20.141  0.00  0.00    +0.000 A 
ATOM      7  C   UNL     1       1.373   9.735  19.104  0.00  0.00    +0.000 A 
BRANCH   2   9
ATOM      8  C   UNL     1       2.985   6.451  18.905  0.00  0.00    +0.000 C 
ATOM      9  O   UNL     1       2.285   7.576  18.389  0.00  0.00    +0.000 OA
ENDBRANCH   2   9
BRANCH   5  10
ATOM     10  O   UNL     1       0.251  10.793  22.422  0.00  0.00    +0.000 OA
ATOM     11  C   UNL     1      -0.890  10.354  23.145  0.00  0.00    +0.000 C 
ENDBRANCH   5  10
ENDBRANCH   1   6
BRANCH   1  12
ATOM     12  S   UNL     1       1.547  13.017  19.851  0.00  0.00    +0.000 S 
ATOM     13  O   UNL     1       2.377  12.941  21.036  0.00  0.00    +0.000 OA
ATOM     14  O   UNL     1       2.139  12.957  18.525  0.00  0.00    +0.000 OA
BRANCH  12  15
ATOM     15  C   UNL     1       0.661  14.565  19.974  0.00  0.00    +0.000 A 
ATOM     16  C   UNL     1       0.445  15.320  18.814  0.00  0.00    +0.000 A 
ATOM     17  C   UNL     1      -0.326  16.484  18.878  0.00  0.00    +0.000 A 
ATOM     18  C   UNL     1      -0.890  16.884  20.091  0.00  0.00    +0.000 A 
ATOM     19  C   UNL     1      -0.675  16.130  21.246  0.00  0.00    +0.000 A 
ATOM     20  C   UNL     1       0.103  14.970  21.192  0.00  0.00    +0.000 A 
ENDBRANCH  12  15
ENDBRANCH   1  12
BRANCH   1  21
ATOM     21  C   UNL     1      -0.710  11.982  18.828  0.00  0.00    +0.000 C 
BRANCH  21  22
ATOM     22  C   UNL     1      -2.134  12.247  19.309  0.00  0.00    +0.000 C 
ATOM     23  O   UNL     1      -2.344  12.746  20.417  0.00  0.00    +0.000 OA
ATOM     24  N   UNL     1      -3.168  11.828  18.498  0.00  0.00    +0.000 N 
ATOM     25  C   UNL     1      -4.548  11.862  18.936  0.00  0.00    +0.000 C 
ATOM     26  C   UNL     1      -5.242  10.895  17.989  0.00  0.00    +0.000 C 
ATOM     27  C   UNL     1      -4.492  11.093  16.676  0.00  0.00    +0.000 C 
ATOM     28  C   UNL     1      -3.074  11.474  17.093  0.00  0.00    +0.000 C 
ENDBRANCH  21  22
ENDBRANCH   1  21
TORSDOF 7
ENDMDL
MODEL 6
REMARK VINA RESULT:      -6.1      1.050      1.083
REMARK  Name = 
REMARK  9 active torsions:
REMARK  status: ('A' for Active; 'I' for Inactive)
REMARK    1  A    between atoms: C_1  and  O_2
REMARK    2  A    between atoms: O_2  and  C_3
REMARK    3  A    between atoms: C_6  and  O_7
REMARK    4  A    between atoms: O_7  and  C_8
REMARK    5  A    between atoms: C_9  and  N_10
REMARK    6  A    between atoms: N_10  and  C_11
REMARK    7  A    between atoms: N_10  and  S_19
REMARK    8  A    between atoms: C_11  and  C_12
REMARK    9  A    between atoms: S_19  and  C_22
REMARK                            x       y       z     vdW  Elec       q    Type
REMARK                         _______ _______ _______ _____ _____    ______ ____
ROOT
ATOM      1  N   UNL     1       3.783   5.118  17.604  0.00  0.00    +0.000 N 
ENDROOT
BRANCH   1   6
ATOM      2  C   UNL     1       7.484   4.773  18.233  0.00  0.00    +0.000 A 
ATOM      3  C   UNL     1       7.957   4.692  16.929  0.00  0.00    +0.000 A 
ATOM      4  C   UNL     1       7.065   4.636  15.857  0.00  0.00    +0.000 A 
ATOM      5  C   UNL     1       5.685   4.736  16.080  0.00  0.00    +0.000 A 
ATOM      6  C   UNL     1       5.214   4.926  17.390  0.00  0.00    +0.000 A 
ATOM      7  C   UNL     1       6.110   4.891  18.471  0.00  0.00    +0.000 A 
BRANCH   2   9
ATOM      8  C   UNL     1       8.130   5.611  20.330  0.00  0.00    +0.000 C 
ATOM      9  O   UNL     1       8.445   4.796  19.207  0.00  0.00    +0.000 OA
ENDBRANCH   2   9
BRANCH   5  10
ATOM     10  O   UNL     1       4.735   4.671  15.088  0.00  0.00    +0.000 OA
ATOM     11  C   UNL     1       5.177   4.256  13.803  0.00  0.00    +0.000 C 
ENDBRANCH   5  10
ENDBRANCH   1   6
BRANCH   1  12
ATOM     12  S   UNL     1       2.878   3.668  17.481  0.00  0.00    +0.000 S 
ATOM     13  O   UNL     1       1.618   3.906  16.806  0.00  0.00    +0.000 OA
ATOM     14  O   UNL     1       3.785   2.633  17.017  0.00  0.00    +0.000 OA
BRANCH  12  15
ATOM     15  C   UNL     1       2.459   3.295  19.179  0.00  0.00    +0.000 A 
ATOM     16  C   UNL     1       3.428   2.716  20.008  0.00  0.00    +0.000 A 
ATOM     17  C   UNL     1       3.148   2.505  21.360  0.00  0.00    +0.000 A 
ATOM     18  C   UNL     1       1.910   2.882  21.886  0.00  0.00    +0.000 A 
ATOM     19  C   UNL     1       0.946   3.461  21.059  0.00  0.00    +0.000 A 
ATOM     20  C   UNL     1       1.216   3.666  19.703  0.00  0.00    +0.000 A 
ENDBRANCH  12  15
ENDBRANCH   1  12
BRANCH   1  21
ATOM     21  C   UNL     1       3.409   5.968  18.763  0.00  0.00    +0.000 C 
BRANCH  21  22
ATOM     22  C   UNL     1       2.687   7.266  18.409  0.00  0.00    +0.000 C 
ATOM     23  O   UNL     1       2.839   7.791  17.304  0.00  0.00    +0.000 OA
ATOM     24  N   UNL     1       1.936   7.866  19.397  0.00  0.00    +0.000 N 
ATOM     25  C   UNL     1       1.362   9.186  19.229  0.00  0.00    +0.000 C 
ATOM     26  C   UNL     1       1.076   9.629  20.655  0.00  0.00    +0.000 C 
ATOM     27  C   UNL     1       0.683   8.332  21.354  0.00  0.00    +0.000 C 
ATOM     28  C   UNL     1       1.470   7.245  20.624  0.00  0.00    +0.000 C 
ENDBRANCH  21  22
ENDBRANCH   1  21
TORSDOF 7
ENDMDL
MODEL 7
REMARK VINA RESULT:      -6.1      6.427      9.668
REMARK  Name = 
REMARK  9 active torsions:
REMARK  status: ('A' for Active; 'I' for Inactive)
REMARK    1  A    between atoms: C_1  and  O_2
REMARK    2  A    between atoms: O_2  and  C_3
REMARK    3  A    between atoms: C_6  and  O_7
REMARK    4  A    between atoms: O_7  and  C_8
REMARK    5  A    between atoms: C_9  and  N_10
REMARK    6  A    between atoms: N_10  and  C_11
REMARK    7  A    between atoms: N_10  and  S_19
REMARK    8  A    between atoms: C_11  and  C_12
REMARK    9  A    between atoms: S_19  and  C_22
REMARK                            x       y       z     vdW  Elec       q    Type
REMARK                         _______ _______ _______ _____ _____    ______ ____
ROOT
ATOM      1  N   UNL     1      -1.027  12.245  18.847  0.00  0.00    +0.000 N 
ENDROOT
BRANCH   1   6
ATOM      2  C   UNL     1      -3.735  11.088  16.494  0.00  0.00    +0.000 A 
ATOM      3  C   UNL     1      -4.864  11.329  17.268  0.00  0.00    +0.000 A 
ATOM      4  C   UNL     1      -4.735  11.760  18.589  0.00  0.00    +0.000 A 
ATOM      5  C   UNL     1      -3.468  12.024  19.125  0.00  0.00    +0.000 A 
ATOM      6  C   UNL     1      -2.334  11.882  18.308  0.00  0.00    +0.000 A 
ATOM      7  C   UNL     1      -2.464  11.363  17.010  0.00  0.00    +0.000 A 
BRANCH   2   9
ATOM      8  C   UNL     1      -2.864  10.024  14.590  0.00  0.00    +0.000 C 
ATOM      9  O   UNL     1      -3.977  10.645  15.222  0.00  0.00    +0.000 OA
ENDBRANCH   2   9
BRANCH   5  10
ATOM     10  O   UNL     1      -3.246  12.432  20.420  0.00  0.00    +0.000 OA
ATOM     11  C   UNL     1      -4.244  13.250  21.015  0.00  0.00    +0.000 C 
ENDBRANCH   5  10
ENDBRANCH   1   6
BRANCH   1  12
ATOM     12  S   UNL     1       0.086  10.942  18.863  0.00  0.00    +0.000 S 
ATOM     13  O   UNL     1      -0.435   9.813  18.121  0.00  0.00    +0.000 OA
ATOM     14  O   UNL     1       1.396  11.492  18.556  0.00  0.00    +0.000 OA
BRANCH  12  15
ATOM     15  C   UNL     1       0.106  10.433  20.577  0.00  0.00    +0.000 A 
ATOM     16  C   UNL     1      -0.653  11.150  21.510  0.00  0.00    +0.000 A 
ATOM     17  C   UNL     1      -0.723  10.709  22.834  0.00  0.00    +0.000 A 
ATOM     18  C   UNL     1      -0.049   9.550  23.222  0.00  0.00    +0.000 A 
ATOM     19  C   UNL     1       0.706   8.834  22.290  0.00  0.00    +0.000 A 
ATOM     20  C   UNL     1       0.788   9.275  20.967  0.00  0.00    +0.000 A 
ENDBRANCH  12  15
ENDBRANCH   1  12
BRANCH   1  21
ATOM     21  C   UNL     1      -0.454  13.524  18.353  0.00  0.00    +0.000 C 
BRANCH  21  22
ATOM     22  C   UNL     1      -0.191  14.574  19.428  0.00  0.00    +0.000 C 
ATOM     23  O   UNL     1      -1.022  14.793  20.313  0.00  0.00    +0.000 OA
ATOM     24  N   UNL     1       0.962  15.322  19.319  0.00  0.00    +0.000 N 
ATOM     25  C   UNL     1       1.220  16.463  20.173  0.00  0.00    +0.000 C 
ATOM     26  C   UNL     1       2.283  17.239  19.412  0.00  0.00    +0.000 C 
ATOM     27  C   UNL     1       3.111  16.143  18.750  0.00  0.00    +0.000 C 
ATOM     28  C   UNL     1       2.121  15.006  18.504  0.00  0.00    +0.000 C 
ENDBRANCH  21  22
ENDBRANCH   1  21
TORSDOF 7
ENDMDL
MODEL 8
REMARK VINA RESULT:      -6.1      1.372      2.865
REMARK  Name = 
REMARK  9 active torsions:
REMARK  status: ('A' for Active; 'I' for Inactive)
REMARK    1  A    between atoms: C_1  and  O_2
REMARK    2  A    between atoms: O_2  and  C_3
REMARK    3  A    between atoms: C_6  and  O_7
REMARK    4  A    between atoms: O_7  and  C_8
REMARK    5  A    between atoms: C_9  and  N_10
REMARK    6  A    between atoms: N_10  and  C_11
REMARK    7  A    between atoms: N_10  and  S_19
REMARK    8  A    between atoms: C_11  and  C_12
REMARK    9  A    between atoms: S_19  and  C_22
REMARK                            x       y       z     vdW  Elec       q    Type
REMARK                         _______ _______ _______ _____ _____    ______ ____
ROOT
ATOM      1  N   UNL     1       3.443   5.234  17.300  0.00  0.00    +0.000 N 
ENDROOT
BRANCH   1   6
ATOM      2  C   UNL     1       6.264   4.552  14.895  0.00  0.00    +0.000 A 
ATOM      3  C   UNL     1       7.316   4.364  15.784  0.00  0.00    +0.000 A 
ATOM      4  C   UNL     1       7.129   4.569  17.152  0.00  0.00    +0.000 A 
ATOM      5  C   UNL     1       5.862   4.896  17.650  0.00  0.00    +0.000 A 
ATOM      6  C   UNL     1       4.776   4.982  16.762  0.00  0.00    +0.000 A 
ATOM      7  C   UNL     1       4.988   4.862  15.379  0.00  0.00    +0.000 A 
BRANCH   2   9
ATOM      8  C   UNL     1       5.584   3.617  12.851  0.00  0.00    +0.000 C 
ATOM      9  O   UNL     1       6.565   4.349  13.575  0.00  0.00    +0.000 OA
ENDBRANCH   2   9
BRANCH   5  10
ATOM     10  O   UNL     1       5.591   5.135  18.977  0.00  0.00    +0.000 OA
ATOM     11  C   UNL     1       6.698   5.441  19.813  0.00  0.00    +0.000 C 
ENDBRANCH   5  10
ENDBRANCH   1   6
BRANCH   1  12
ATOM     12  S   UNL     1       2.448   3.840  17.331  0.00  0.00    +0.000 S 
ATOM     13  O   UNL     1       1.077   4.182  17.011  0.00  0.00    +0.000 OA
ATOM     14  O   UNL     1       3.145   2.798  16.596  0.00  0.00    +0.000 OA
BRANCH  12  15
ATOM     15  C   UNL     1       2.444   3.370  19.056  0.00  0.00    +0.000 A 
ATOM     16  C   UNL     1       3.595   2.794  19.608  0.00  0.00    +0.000 A 
ATOM     17  C   UNL     1       3.641   2.508  20.975  0.00  0.00    +0.000 A 
ATOM     18  C   UNL     1       2.548   2.808  21.790  0.00  0.00    +0.000 A 
ATOM     19  C   UNL     1       1.401   3.383  21.239  0.00  0.00    +0.000 A 
ATOM     20  C   UNL     1       1.345   3.664  19.871  0.00  0.00    +0.000 A 
ENDBRANCH  12  15
ENDBRANCH   1  12
BRANCH   1  21
ATOM     21  C   UNL     1       3.390   6.043  18.546  0.00  0.00    +0.000 C 
BRANCH  21  22
ATOM     22  C   UNL     1       2.680   7.388  18.416  0.00  0.00    +0.000 C 
ATOM     23  O   UNL     1       2.815   8.077  17.402  0.00  0.00    +0.000 OA
ATOM     24  N   UNL     1       1.961   7.836  19.503  0.00  0.00    +0.000 N 
ATOM     25  C   UNL     1       1.403   9.172  19.557  0.00  0.00    +0.000 C 
ATOM     26  C   UNL     1       1.157   9.391  21.041  0.00  0.00    +0.000 C 
ATOM     27  C   UNL     1       0.760   8.006  21.539  0.00  0.00    +0.000 C 
ATOM     28  C   UNL     1       1.514   7.037  20.630  0.00  0.00    +0.000 C 
ENDBRANCH  21  22
ENDBRANCH   1  21
TORSDOF 7
ENDMDL
MODEL 9
REMARK VINA RESULT:      -6.0      5.969      9.886
REMARK  Name = 
REMARK  9 active torsions:
REMARK  status: ('A' for Active; 'I' for Inactive)
REMARK    1  A    between atoms: C_1  and  O_2
REMARK    2  A    between atoms: O_2  and  C_3
REMARK    3  A    between atoms: C_6  and  O_7
REMARK    4  A    between atoms: O_7  and  C_8
REMARK    5  A    between atoms: C_9  and  N_10
REMARK    6  A    between atoms: N_10  and  C_11
REMARK    7  A    between atoms: N_10  and  S_19
REMARK    8  A    between atoms: C_11  and  C_12
REMARK    9  A    between atoms: S_19  and  C_22
REMARK                            x       y       z     vdW  Elec       q    Type
REMARK                         _______ _______ _______ _____ _____    ______ ____
ROOT
ATOM      1  N   UNL     1      -0.330  13.126  20.127  0.00  0.00    +0.000 N 
ENDROOT
BRANCH   1   6
ATOM      2  C   UNL     1       0.539  10.121  18.023  0.00  0.00    +0.000 A 
ATOM      3  C   UNL     1      -0.726   9.736  17.596  0.00  0.00    +0.000 A 
ATOM      4  C   UNL     1      -1.863  10.383  18.082  0.00  0.00    +0.000 A 
ATOM      5  C   UNL     1      -1.736  11.477  18.949  0.00  0.00    +0.000 A 
ATOM      6  C   UNL     1      -0.453  11.932  19.296  0.00  0.00    +0.000 A 
ATOM      7  C   UNL     1       0.682  11.222  18.876  0.00  0.00    +0.000 A 
BRANCH   2   9
ATOM      8  C   UNL     1       2.139   8.443  18.392  0.00  0.00    +0.000 C 
ATOM      9  O   UNL     1       1.580   9.402  17.503  0.00  0.00    +0.000 OA
ENDBRANCH   2   9
BRANCH   5  10
ATOM     10  O   UNL     1      -2.799  12.160  19.492  0.00  0.00    +0.000 OA
ATOM     11  C   UNL     1      -4.076  11.922  18.915  0.00  0.00    +0.000 C 
ENDBRANCH   5  10
ENDBRANCH   1   6
BRANCH   1  12
ATOM     12  S   UNL     1       0.266  12.800  21.700  0.00  0.00    +0.000 S 
ATOM     13  O   UNL     1       0.580  11.394  21.847  0.00  0.00    +0.000 OA
ATOM     14  O   UNL     1       1.257  13.819  22.004  0.00  0.00    +0.000 OA
BRANCH  12  15
ATOM     15  C   UNL     1      -1.150  13.097  22.751  0.00  0.00    +0.000 A 
ATOM     16  C   UNL     1      -1.287  14.344  23.373  0.00  0.00    +0.000 A 
ATOM     17  C   UNL     1      -2.434  14.623  24.121  0.00  0.00    +0.000 A 
ATOM     18  C   UNL     1      -3.445  13.668  24.236  0.00  0.00    +0.000 A 
ATOM     19  C   UNL     1      -3.308  12.425  23.614  0.00  0.00    +0.000 A 
ATOM     20  C   UNL     1      -2.159  12.135  22.872  0.00  0.00    +0.000 A 
ENDBRANCH  12  15
ENDBRANCH   1  12
BRANCH   1  21
ATOM     21  C   UNL     1       0.295  14.308  19.477  0.00  0.00    +0.000 C 
BRANCH  21  22
ATOM     22  C   UNL     1      -0.576  15.560  19.436  0.00  0.00    +0.000 C 
ATOM     23  O   UNL     1      -1.652  15.601  20.036  0.00  0.00    +0.000 OA
ATOM     24  N   UNL     1      -0.155  16.602  18.637  0.00  0.00    +0.000 N 
ATOM     25  C   UNL     1      -0.989  17.758  18.381  0.00  0.00    +0.000 C 
ATOM     26  C   UNL     1      -0.377  18.363  17.127  0.00  0.00    +0.000 C 
ATOM     27  C   UNL     1       1.113  18.090  17.298  0.00  0.00    +0.000 C 
ATOM     28  C   UNL     1       1.180  16.790  18.097  0.00  0.00    +0.000 C 
ENDBRANCH  21  22
ENDBRANCH   1  21
TORSDOF 7
ENDMDL
