MODEL 1
REMARK VINA RESULT:      -7.9      0.000      0.000
REMARK  Name = 
REMARK  8 active torsions:
REMARK  status: ('A' for Active; 'I' for Inactive)
REMARK    1  A    between atoms: C_1  and  N_2
REMARK    2  A    between atoms: N_2  and  C_3
REMARK    3  A    between atoms: N_2  and  C_4
REMARK    4  A    between atoms: C_4  and  C_5
REMARK    5  A    between atoms: C_5  and  N_6
REMARK    6  A    between atoms: C_7  and  C_9
REMARK    7  A    between atoms: C_16  and  C_17
REMARK    8  A    between atoms: C_20  and  N_21
REMARK                            x       y       z     vdW  Elec       q    Type
REMARK                         _______ _______ _______ _____ _____    ______ ____
ROOT
ATOM      1  C   UNL     1       2.109   5.158  19.634  0.00  0.00    +0.000 A 
ATOM      2  C   UNL     1       1.173   4.744  20.603  0.00  0.00    +0.000 A 
ATOM      3  C   UNL     1       0.991   3.397  20.867  0.00  0.00    +0.000 A 
ATOM      4  C   UNL     1       1.740   2.466  20.158  0.00  0.00    +0.000 A 
ATOM      5  C   UNL     1       2.650   2.854  19.185  0.00  0.00    +0.000 A 
ATOM      6  N   UNL     1       3.310   1.881  18.539  0.00  0.00    +0.000 NA
ATOM      7  C   UNL     1       4.174   2.269  17.576  0.00  0.00    +0.000 A 
ATOM      8  C   UNL     1       4.409   3.594  17.252  0.00  0.00    +0.000 A 
ATOM      9  N   UNL     1       3.752   4.577  17.922  0.00  0.00    +0.000 NA
ATOM     10  C   UNL     1       2.859   4.227  18.895  0.00  0.00    +0.000 A 
ENDROOT
BRANCH   8  11
ATOM     11  C   UNL     1       5.323   4.009  16.169  0.00  0.00    +0.000 A 
ATOM     12  C   UNL     1       6.434   4.828  16.439  0.00  0.00    +0.000 A 
ATOM     13  C   UNL     1       7.293   5.264  15.422  0.00  0.00    +0.000 A 
ATOM     14  C   UNL     1       7.059   4.873  14.105  0.00  0.00    +0.000 A 
ATOM     15  C   UNL     1       5.968   4.057  13.799  0.00  0.00    +0.000 A 
ATOM     16  C   UNL     1       5.114   3.631  14.826  0.00  0.00    +0.000 A 
BRANCH  14  17
ATOM     17  N   UNL     1       7.969   5.316  13.040  0.00  0.00    +0.000 N 
ATOM     18  O   UNL     1       7.694   4.992  11.875  0.00  0.00    +0.000 OA
ATOM     19  O   UNL     1       8.954   5.991  13.368  0.00  0.00    +0.000 OA
ENDBRANCH  14  17
ENDBRANCH   8  11
BRANCH   1  21
ATOM     20  N   UNL     1       2.393   7.116  18.192  0.00  0.00    +0.000 N 
ATOM     21  C   UNL     1       2.262   6.632  19.470  0.00  0.00    +0.000 C 
ATOM     22  O   UNL     1       2.317   7.354  20.462  0.00  0.00    +0.000 OA
ATOM     23  H   UNL     1       2.100   6.524  17.414  0.00  0.00    +0.000 HD
BRANCH  20  24
ATOM     24  C   UNL     1       2.555   8.533  17.942  0.00  0.00    +0.000 C 
BRANCH  24  25
ATOM     25  C   UNL     1       1.211   9.276  17.859  0.00  0.00    +0.000 C 
BRANCH  25  27
ATOM     26  C   UNL     1       1.556  11.531  18.691  0.00  0.00    +0.000 C 
ATOM     27  N   UNL     1       0.966  10.220  18.973  0.00  0.00    +0.000 NA
ATOM     28  C   UNL     1      -0.474  10.358  19.203  0.00  0.00    +0.000 C 
ENDBRANCH  25  27
ENDBRANCH  24  25
ENDBRANCH  20  24
ENDBRANCH   1  21
TORSDOF 6
ENDMDL
MODEL 2
REMARK VINA RESULT:      -7.5      1.471      1.892
REMARK  Name = 
REMARK  8 active torsions:
REMARK  status: ('A' for Active; 'I' for Inactive)
REMARK    1  A    between atoms: C_1  and  N_2
REMARK    2  A    between atoms: N_2  and  C_3
REMARK    3  A    between atoms: N_2  and  C_4
REMARK    4  A    between atoms: C_4  and  C_5
REMARK    5  A    between atoms: C_5  and  N_6
REMARK    6  A    between atoms: C_7  and  C_9
REMARK    7  A    between atoms: C_16  and  C_17
REMARK    8  A    between atoms: C_20  and  N_21
REMARK                            x       y       z     vdW  Elec       q    Type
REMARK                         _______ _______ _______ _____ _____    ______ ____
ROOT
ATOM      1  C   UNL     1       2.080   5.011  19.801  0.00  0.00    +0.000 A 
ATOM      2  C   UNL     1       1.147   4.552  20.754  0.00  0.00    +0.000 A 
ATOM      3  C   UNL     1       0.955   3.195  20.943  0.00  0.00    +0.000 A 
ATOM      4  C   UNL     1       1.689   2.298  20.178  0.00  0.00    +0.000 A 
ATOM      5  C   UNL     1       2.595   2.731  19.220  0.00  0.00    +0.000 A 
ATOM      6  N   UNL     1       3.241   1.790  18.515  0.00  0.00    +0.000 NA
ATOM      7  C   UNL     1       4.101   2.223  17.569  0.00  0.00    +0.000 A 
ATOM      8  C   UNL     1       4.346   3.562  17.318  0.00  0.00    +0.000 A 
ATOM      9  N   UNL     1       3.703   4.512  18.046  0.00  0.00    +0.000 NA
ATOM     10  C   UNL     1       2.815   4.116  19.005  0.00  0.00    +0.000 A 
ENDROOT
BRANCH   8  11
ATOM     11  C   UNL     1       5.255   4.029  16.251  0.00  0.00    +0.000 A 
ATOM     12  C   UNL     1       5.005   3.713  14.904  0.00  0.00    +0.000 A 
ATOM     13  C   UNL     1       5.873   4.113  13.880  0.00  0.00    +0.000 A 
ATOM     14  C   UNL     1       7.012   4.855  14.189  0.00  0.00    +0.000 A 
ATOM     15  C   UNL     1       7.290   5.191  15.516  0.00  0.00    +0.000 A 
ATOM     16  C   UNL     1       6.415   4.781  16.531  0.00  0.00    +0.000 A 
BRANCH  14  17
ATOM     17  N   UNL     1       7.913   5.289  13.114  0.00  0.00    +0.000 N 
ATOM     18  O   UNL     1       7.639   4.943  11.955  0.00  0.00    +0.000 OA
ATOM     19  O   UNL     1       8.892   5.981  13.428  0.00  0.00    +0.000 OA
ENDBRANCH  14  17
ENDBRANCH   8  11
BRANCH   1  21
ATOM     20  N   UNL     1       1.672   7.247  20.712  0.00  0.00    +0.000 N 
ATOM     21  C   UNL     1       2.245   6.490  19.719  0.00  0.00    +0.000 C 
ATOM     22  O   UNL     1       2.831   6.987  18.761  0.00  0.00    +0.000 OA
ATOM     23  H   UNL     1       1.419   6.790  21.589  0.00  0.00    +0.000 HD
BRANCH  20  24
ATOM     24  C   UNL     1       1.775   8.691  20.705  0.00  0.00    +0.000 C 
BRANCH  24  25
ATOM     25  C   UNL     1       0.418   9.383  20.919  0.00  0.00    +0.000 C 
BRANCH  25  27
ATOM     26  C   UNL     1      -0.692  11.254  21.997  0.00  0.00    +0.000 C 
ATOM     27  N   UNL     1       0.352  10.233  22.128  0.00  0.00    +0.000 NA
ATOM     28  C   UNL     1       0.095   9.404  23.308  0.00  0.00    +0.000 C 
ENDBRANCH  25  27
ENDBRANCH  24  25
ENDBRANCH  20  24
ENDBRANCH   1  21
TORSDOF 6
ENDMDL
MODEL 3
REMARK VINA RESULT:      -7.5      0.971      1.569
REMARK  Name = 
REMARK  8 active torsions:
REMARK  status: ('A' for Active; 'I' for Inactive)
REMARK    1  A    between atoms: C_1  and  N_2
REMARK    2  A    between atoms: N_2  and  C_3
REMARK    3  A    between atoms: N_2  and  C_4
REMARK    4  A    between atoms: C_4  and  C_5
REMARK    5  A    between atoms: C_5  and  N_6
REMARK    6  A    between atoms: C_7  and  C_9
REMARK    7  A    between atoms: C_16  and  C_17
REMARK    8  A    between atoms: C_20  and  N_21
REMARK                            x       y       z     vdW  Elec       q    Type
REMARK                         _______ _______ _______ _____ _____    ______ ____
ROOT
ATOM      1  C   UNL     1       2.125   4.946  19.810  0.00  0.00    +0.000 A 
ATOM      2  C   UNL     1       1.217   4.480  20.783  0.00  0.00    +0.000 A 
ATOM      3  C   UNL     1       1.075   3.122  21.010  0.00  0.00    +0.000 A 
ATOM      4  C   UNL     1       1.835   2.232  20.262  0.00  0.00    +0.000 A 
ATOM      5  C   UNL     1       2.717   2.670  19.285  0.00  0.00    +0.000 A 
ATOM      6  N   UNL     1       3.390   1.735  18.599  0.00  0.00    +0.000 NA
ATOM      7  C   UNL     1       4.227   2.172  17.634  0.00  0.00    +0.000 A 
ATOM      8  C   UNL     1       4.422   3.512  17.345  0.00  0.00    +0.000 A 
ATOM      9  N   UNL     1       3.751   4.457  18.054  0.00  0.00    +0.000 NA
ATOM     10  C   UNL     1       2.885   4.057  19.032  0.00  0.00    +0.000 A 
ENDROOT
BRANCH   8  11
ATOM     11  C   UNL     1       5.305   3.982  16.259  0.00  0.00    +0.000 A 
ATOM     12  C   UNL     1       4.939   3.813  14.911  0.00  0.00    +0.000 A 
ATOM     13  C   UNL     1       5.777   4.217  13.864  0.00  0.00    +0.000 A 
ATOM     14  C   UNL     1       7.003   4.815  14.151  0.00  0.00    +0.000 A 
ATOM     15  C   UNL     1       7.398   5.003  15.478  0.00  0.00    +0.000 A 
ATOM     16  C   UNL     1       6.551   4.590  16.516  0.00  0.00    +0.000 A 
BRANCH  14  17
ATOM     17  N   UNL     1       7.875   5.255  13.054  0.00  0.00    +0.000 N 
ATOM     18  O   UNL     1       8.825   6.001  13.336  0.00  0.00    +0.000 OA
ATOM     19  O   UNL     1       7.614   4.850  11.913  0.00  0.00    +0.000 OA
ENDBRANCH  14  17
ENDBRANCH   8  11
BRANCH   1  21
ATOM     20  N   UNL     1       1.731   7.187  20.714  0.00  0.00    +0.000 N 
ATOM     21  C   UNL     1       2.237   6.427  19.687  0.00  0.00    +0.000 C 
ATOM     22  O   UNL     1       2.720   6.921  18.672  0.00  0.00    +0.000 OA
ATOM     23  H   UNL     1       1.572   6.741  21.617  0.00  0.00    +0.000 HD
BRANCH  20  24
ATOM     24  C   UNL     1       1.790   8.633  20.672  0.00  0.00    +0.000 C 
BRANCH  24  25
ATOM     25  C   UNL     1       0.395   9.281  20.633  0.00  0.00    +0.000 C 
BRANCH  25  27
ATOM     26  C   UNL     1       0.795  11.621  20.122  0.00  0.00    +0.000 C 
ATOM     27  N   UNL     1       0.250  10.355  19.625  0.00  0.00    +0.000 NA
ATOM     28  C   UNL     1       0.929   9.970  18.384  0.00  0.00    +0.000 C 
ENDBRANCH  25  27
ENDBRANCH  24  25
ENDBRANCH  20  24
ENDBRANCH   1  21
TORSDOF 6
ENDMDL
MODEL 4
REMARK VINA RESULT:      -7.5      0.888      1.070
REMARK  Name = 
REMARK  8 active torsions:
REMARK  status: ('A' for Active; 'I' for Inactive)
REMARK    1  A    between atoms: C_1  and  N_2
REMARK    2  A    between atoms: N_2  and  C_3
REMARK    3  A    between atoms: N_2  and  C_4
REMARK    4  A    between atoms: C_4  and  C_5
REMARK    5  A    between atoms: C_5  and  N_6
REMARK    6  A    between atoms: C_7  and  C_9
REMARK    7  A    between atoms: C_16  and  C_17
REMARK    8  A    between atoms: C_20  and  N_21
REMARK                            x       y       z     vdW  Elec       q    Type
REMARK                         _______ _______ _______ _____ _____    ______ ____
ROOT
ATOM      1  C   UNL     1       2.153   4.957  19.790  0.00  0.00    +0.000 A 
ATOM      2  C   UNL     1       1.226   4.514  20.755  0.00  0.00    +0.000 A 
ATOM      3  C   UNL     1       1.034   3.160  20.967  0.00  0.00    +0.000 A 
ATOM      4  C   UNL     1       1.763   2.251  20.210  0.00  0.00    +0.000 A 
ATOM      5  C   UNL     1       2.662   2.667  19.240  0.00  0.00    +0.000 A 
ATOM      6  N   UNL     1       3.302   1.716  18.545  0.00  0.00    +0.000 NA
ATOM      7  C   UNL     1       4.157   2.133  17.586  0.00  0.00    +0.000 A 
ATOM      8  C   UNL     1       4.402   3.468  17.313  0.00  0.00    +0.000 A 
ATOM      9  N   UNL     1       3.765   4.429  18.031  0.00  0.00    +0.000 NA
ATOM     10  C   UNL     1       2.882   4.050  19.003  0.00  0.00    +0.000 A 
ENDROOT
BRANCH   8  11
ATOM     11  C   UNL     1       5.304   3.917  16.234  0.00  0.00    +0.000 A 
ATOM     12  C   UNL     1       6.479   4.631  16.530  0.00  0.00    +0.000 A 
ATOM     13  C   UNL     1       7.331   5.099  15.521  0.00  0.00    +0.000 A 
ATOM     14  C   UNL     1       7.025   4.846  14.185  0.00  0.00    +0.000 A 
ATOM     15  C   UNL     1       5.868   4.136  13.853  0.00  0.00    +0.000 A 
ATOM     16  C   UNL     1       5.023   3.677  14.873  0.00  0.00    +0.000 A 
BRANCH  14  17
ATOM     17  N   UNL     1       7.926   5.321  13.127  0.00  0.00    +0.000 N 
ATOM     18  O   UNL     1       7.670   4.990  11.960  0.00  0.00    +0.000 OA
ATOM     19  O   UNL     1       8.885   6.029  13.463  0.00  0.00    +0.000 OA
ENDBRANCH  14  17
ENDBRANCH   8  11
BRANCH   1  21
ATOM     20  N   UNL     1       1.706   7.210  20.637  0.00  0.00    +0.000 N 
ATOM     21  C   UNL     1       2.320   6.435  19.684  0.00  0.00    +0.000 C 
ATOM     22  O   UNL     1       2.943   6.913  18.741  0.00  0.00    +0.000 OA
ATOM     23  H   UNL     1       1.420   6.770  21.512  0.00  0.00    +0.000 HD
BRANCH  20  24
ATOM     24  C   UNL     1       1.808   8.654  20.605  0.00  0.00    +0.000 C 
BRANCH  24  25
ATOM     25  C   UNL     1       0.436   9.342  20.503  0.00  0.00    +0.000 C 
BRANCH  25  27
ATOM     26  C   UNL     1       0.927   9.735  18.158  0.00  0.00    +0.000 C 
ATOM     27  N   UNL     1       0.310  10.284  19.368  0.00  0.00    +0.000 NA
ATOM     28  C   UNL     1      -1.104  10.578  19.119  0.00  0.00    +0.000 C 
ENDBRANCH  25  27
ENDBRANCH  24  25
ENDBRANCH  20  24
ENDBRANCH   1  21
TORSDOF 6
ENDMDL
MODEL 5
REMARK VINA RESULT:      -7.4      1.414      1.651
REMARK  Name = 
REMARK  8 active torsions:
REMARK  status: ('A' for Active; 'I' for Inactive)
REMARK    1  A    between atoms: C_1  and  N_2
REMARK    2  A    between atoms: N_2  and  C_3
REMARK    3  A    between atoms: N_2  and  C_4
REMARK    4  A    between atoms: C_4  and  C_5
REMARK    5  A    between atoms: C_5  and  N_6
REMARK    6  A    between atoms: C_7  and  C_9
REMARK    7  A    between atoms: C_16  and  C_17
REMARK    8  A    between atoms: C_20  and  N_21
REMARK                            x       y       z     vdW  Elec       q    Type
REMARK                         _______ _______ _______ _____ _____    ______ ____
ROOT
ATOM      1  C   UNL     1       2.213   5.094  19.771  0.00  0.00    +0.000 A 
ATOM      2  C   UNL     1       1.304   4.675  20.763  0.00  0.00    +0.000 A 
ATOM      3  C   UNL     1       1.135   3.328  21.029  0.00  0.00    +0.000 A 
ATOM      4  C   UNL     1       1.868   2.401  20.300  0.00  0.00    +0.000 A 
ATOM      5  C   UNL     1       2.751   2.792  19.304  0.00  0.00    +0.000 A 
ATOM      6  N   UNL     1       3.398   1.824  18.639  0.00  0.00    +0.000 NA
ATOM      7  C   UNL     1       4.235   2.216  17.655  0.00  0.00    +0.000 A 
ATOM      8  C   UNL     1       4.456   3.543  17.328  0.00  0.00    +0.000 A 
ATOM      9  N   UNL     1       3.813   4.522  18.015  0.00  0.00    +0.000 NA
ATOM     10  C   UNL     1       2.947   4.167  19.011  0.00  0.00    +0.000 A 
ENDROOT
BRANCH   8  11
ATOM     11  C   UNL     1       5.340   3.963  16.221  0.00  0.00    +0.000 A 
ATOM     12  C   UNL     1       6.505   4.709  16.475  0.00  0.00    +0.000 A 
ATOM     13  C   UNL     1       7.338   5.149  15.439  0.00  0.00    +0.000 A 
ATOM     14  C   UNL     1       7.023   4.836  14.117  0.00  0.00    +0.000 A 
ATOM     15  C   UNL     1       5.876   4.093  13.828  0.00  0.00    +0.000 A 
ATOM     16  C   UNL     1       5.049   3.662  14.874  0.00  0.00    +0.000 A 
BRANCH  14  17
ATOM     17  N   UNL     1       7.905   5.283  13.032  0.00  0.00    +0.000 N 
ATOM     18  O   UNL     1       8.873   5.997  13.332  0.00  0.00    +0.000 OA
ATOM     19  O   UNL     1       7.632   4.915  11.880  0.00  0.00    +0.000 OA
ENDBRANCH  14  17
ENDBRANCH   8  11
BRANCH   1  21
ATOM     20  N   UNL     1       1.711   7.372  20.513  0.00  0.00    +0.000 N 
ATOM     21  C   UNL     1       2.356   6.569  19.606  0.00  0.00    +0.000 C 
ATOM     22  O   UNL     1       2.989   7.018  18.654  0.00  0.00    +0.000 OA
ATOM     23  H   UNL     1       1.415   6.964  21.401  0.00  0.00    +0.000 HD
BRANCH  20  24
ATOM     24  C   UNL     1       1.788   8.815  20.422  0.00  0.00    +0.000 C 
BRANCH  24  25
ATOM     25  C   UNL     1       0.460   9.503  20.783  0.00  0.00    +0.000 C 
BRANCH  25  27
ATOM     26  C   UNL     1      -0.136  11.631  21.789  0.00  0.00    +0.000 C 
ATOM     27  N   UNL     1       0.518  10.337  22.004  0.00  0.00    +0.000 NA
ATOM     28  C   UNL     1      -0.119   9.634  23.120  0.00  0.00    +0.000 C 
ENDBRANCH  25  27
ENDBRANCH  24  25
ENDBRANCH  20  24
ENDBRANCH   1  21
TORSDOF 6
ENDMDL
MODEL 6
REMARK VINA RESULT:      -7.2      2.825      7.460
REMARK  Name = 
REMARK  8 active torsions:
REMARK  status: ('A' for Active; 'I' for Inactive)
REMARK    1  A    between atoms: C_1  and  N_2
REMARK    2  A    between atoms: N_2  and  C_3
REMARK    3  A    between atoms: N_2  and  C_4
REMARK    4  A    between atoms: C_4  and  C_5
REMARK    5  A    between atoms: C_5  and  N_6
REMARK    6  A    between atoms: C_7  and  C_9
REMARK    7  A    between atoms: C_16  and  C_17
REMARK    8  A    between atoms: C_20  and  N_21
REMARK                            x       y       z     vdW  Elec       q    Type
REMARK                         _______ _______ _______ _____ _____    ______ ____
ROOT
ATOM      1  C   UNL     1       4.440   3.701  17.084  0.00  0.00    +0.000 A 
ATOM      2  C   UNL     1       5.318   2.983  16.246  0.00  0.00    +0.000 A 
ATOM      3  C   UNL     1       6.138   3.654  15.357  0.00  0.00    +0.000 A 
ATOM      4  C   UNL     1       6.077   5.041  15.301  0.00  0.00    +0.000 A 
ATOM      5  C   UNL     1       5.204   5.763  16.100  0.00  0.00    +0.000 A 
ATOM      6  N   UNL     1       5.201   7.097  15.959  0.00  0.00    +0.000 NA
ATOM      7  C   UNL     1       4.328   7.788  16.724  0.00  0.00    +0.000 A 
ATOM      8  C   UNL     1       3.474   7.189  17.635  0.00  0.00    +0.000 A 
ATOM      9  N   UNL     1       3.493   5.840  17.788  0.00  0.00    +0.000 NA
ATOM     10  C   UNL     1       4.352   5.102  17.024  0.00  0.00    +0.000 A 
ENDROOT
BRANCH   8  11
ATOM     11  C   UNL     1       2.492   7.947  18.437  0.00  0.00    +0.000 A 
ATOM     12  C   UNL     1       1.839   9.070  17.899  0.00  0.00    +0.000 A 
ATOM     13  C   UNL     1       0.932   9.826  18.653  0.00  0.00    +0.000 A 
ATOM     14  C   UNL     1       0.651   9.459  19.968  0.00  0.00    +0.000 A 
ATOM     15  C   UNL     1       1.278   8.346  20.534  0.00  0.00    +0.000 A 
ATOM     16  C   UNL     1       2.187   7.602  19.770  0.00  0.00    +0.000 A 
BRANCH  14  17
ATOM     17  N   UNL     1      -0.312  10.240  20.754  0.00  0.00    +0.000 N 
ATOM     18  O   UNL     1      -0.886  11.185  20.190  0.00  0.00    +0.000 OA
ATOM     19  O   UNL     1      -0.499   9.907  21.932  0.00  0.00    +0.000 OA
ENDBRANCH  14  17
ENDBRANCH   8  11
BRANCH   1  21
ATOM     20  N   UNL     1       2.276   2.999  17.988  0.00  0.00    +0.000 N 
ATOM     21  C   UNL     1       3.643   2.881  18.040  0.00  0.00    +0.000 C 
ATOM     22  O   UNL     1       4.217   2.176  18.867  0.00  0.00    +0.000 OA
ATOM     23  H   UNL     1       1.853   3.393  17.147  0.00  0.00    +0.000 HD
BRANCH  20  24
ATOM     24  C   UNL     1       1.426   2.246  18.886  0.00  0.00    +0.000 C 
BRANCH  24  25
ATOM     25  C   UNL     1       0.618   3.150  19.833  0.00  0.00    +0.000 C 
BRANCH  25  27
ATOM     26  C   UNL     1       2.011   2.170  21.564  0.00  0.00    +0.000 C 
ATOM     27  N   UNL     1       1.238   3.348  21.162  0.00  0.00    +0.000 NA
ATOM     28  C   UNL     1       2.105   4.530  21.138  0.00  0.00    +0.000 C 
ENDBRANCH  25  27
ENDBRANCH  24  25
ENDBRANCH  20  24
ENDBRANCH   1  21
TORSDOF 6
ENDMDL
MODEL 7
REMARK VINA RESULT:      -7.0      2.808      7.393
REMARK  Name = 
REMARK  8 active torsions:
REMARK  status: ('A' for Active; 'I' for Inactive)
REMARK    1  A    between atoms: C_1  and  N_2
REMARK    2  A    between atoms: N_2  and  C_3
REMARK    3  A    between atoms: N_2  and  C_4
REMARK    4  A    between atoms: C_4  and  C_5
REMARK    5  A    between atoms: C_5  and  N_6
REMARK    6  A    between atoms: C_7  and  C_9
REMARK    7  A    between atoms: C_16  and  C_17
REMARK    8  A    between atoms: C_20  and  N_21
REMARK                            x       y       z     vdW  Elec       q    Type
REMARK                         _______ _______ _______ _____ _____    ______ ____
ROOT
ATOM      1  C   UNL     1       4.346   3.704  16.819  0.00  0.00    +0.000 A 
ATOM      2  C   UNL     1       5.258   2.980  16.025  0.00  0.00    +0.000 A 
ATOM      3  C   UNL     1       6.241   3.643  15.311  0.00  0.00    +0.000 A 
ATOM      4  C   UNL     1       6.307   5.029  15.386  0.00  0.00    +0.000 A 
ATOM      5  C   UNL     1       5.404   5.760  16.144  0.00  0.00    +0.000 A 
ATOM      6  N   UNL     1       5.534   7.095  16.137  0.00  0.00    +0.000 NA
ATOM      7  C   UNL     1       4.634   7.798  16.857  0.00  0.00    +0.000 A 
ATOM      8  C   UNL     1       3.622   7.208  17.596  0.00  0.00    +0.000 A 
ATOM      9  N   UNL     1       3.505   5.855  17.615  0.00  0.00    +0.000 NA
ATOM     10  C   UNL     1       4.388   5.107  16.889  0.00  0.00    +0.000 A 
ENDROOT
BRANCH   8  11
ATOM     11  C   UNL     1       2.615   7.985  18.347  0.00  0.00    +0.000 A 
ATOM     12  C   UNL     1       2.260   7.623  19.658  0.00  0.00    +0.000 A 
ATOM     13  C   UNL     1       1.281   8.322  20.376  0.00  0.00    +0.000 A 
ATOM     14  C   UNL     1       0.644   9.415  19.791  0.00  0.00    +0.000 A 
ATOM     15  C   UNL     1       0.975   9.807  18.492  0.00  0.00    +0.000 A 
ATOM     16  C   UNL     1       1.953   9.096  17.784  0.00  0.00    +0.000 A 
BRANCH  14  17
ATOM     17  N   UNL     1      -0.370  10.160  20.549  0.00  0.00    +0.000 N 
ATOM     18  O   UNL     1      -0.436   9.964  21.772  0.00  0.00    +0.000 OA
ATOM     19  O   UNL     1      -1.097  10.944  19.923  0.00  0.00    +0.000 OA
ENDBRANCH  14  17
ENDBRANCH   8  11
BRANCH   1  21
ATOM     20  N   UNL     1       2.085   3.368  17.695  0.00  0.00    +0.000 N 
ATOM     21  C   UNL     1       3.366   2.885  17.587  0.00  0.00    +0.000 C 
ATOM     22  O   UNL     1       3.732   1.849  18.135  0.00  0.00    +0.000 OA
ATOM     23  H   UNL     1       1.777   4.083  17.035  0.00  0.00    +0.000 HD
BRANCH  20  24
ATOM     24  C   UNL     1       1.071   2.642  18.431  0.00  0.00    +0.000 C 
BRANCH  24  25
ATOM     25  C   UNL     1       0.810   3.238  19.824  0.00  0.00    +0.000 C 
BRANCH  25  27
ATOM     26  C   UNL     1       2.198   4.650  21.231  0.00  0.00    +0.000 C 
ATOM     27  N   UNL     1       2.005   3.300  20.695  0.00  0.00    +0.000 NA
ATOM     28  C   UNL     1       1.872   2.340  21.794  0.00  0.00    +0.000 C 
ENDBRANCH  25  27
ENDBRANCH  24  25
ENDBRANCH  20  24
ENDBRANCH   1  21
TORSDOF 6
ENDMDL
MODEL 8
REMARK VINA RESULT:      -7.0      4.004      7.521
REMARK  Name = 
REMARK  8 active torsions:
REMARK  status: ('A' for Active; 'I' for Inactive)
REMARK    1  A    between atoms: C_1  and  N_2
REMARK    2  A    between atoms: N_2  and  C_3
REMARK    3  A    between atoms: N_2  and  C_4
REMARK    4  A    between atoms: C_4  and  C_5
REMARK    5  A    between atoms: C_5  and  N_6
REMARK    6  A    between atoms: C_7  and  C_9
REMARK    7  A    between atoms: C_16  and  C_17
REMARK    8  A    between atoms: C_20  and  N_21
REMARK                            x       y       z     vdW  Elec       q    Type
REMARK                         _______ _______ _______ _____ _____    ______ ____
ROOT
ATOM      1  C   UNL     1      -1.521  11.766  20.207  0.00  0.00    +0.000 A 
ATOM      2  C   UNL     1      -2.232  12.754  20.920  0.00  0.00    +0.000 A 
ATOM      3  C   UNL     1      -2.070  12.877  22.289  0.00  0.00    +0.000 A 
ATOM      4  C   UNL     1      -1.204  12.012  22.945  0.00  0.00    +0.000 A 
ATOM      5  C   UNL     1      -0.514  11.019  22.264  0.00  0.00    +0.000 A 
ATOM      6  N   UNL     1       0.282  10.217  22.987  0.00  0.00    +0.000 NA
ATOM      7  C   UNL     1       0.929   9.239  22.318  0.00  0.00    +0.000 A 
ATOM      8  C   UNL     1       0.818   9.049  20.951  0.00  0.00    +0.000 A 
ATOM      9  N   UNL     1       0.025   9.875  20.220  0.00  0.00    +0.000 NA
ATOM     10  C   UNL     1      -0.658  10.870  20.860  0.00  0.00    +0.000 A 
ENDROOT
BRANCH   8  11
ATOM     11  C   UNL     1       1.494   7.950  20.233  0.00  0.00    +0.000 A 
ATOM     12  C   UNL     1       1.982   8.138  18.927  0.00  0.00    +0.000 A 
ATOM     13  C   UNL     1       2.593   7.100  18.212  0.00  0.00    +0.000 A 
ATOM     14  C   UNL     1       2.741   5.847  18.805  0.00  0.00    +0.000 A 
ATOM     15  C   UNL     1       2.274   5.625  20.102  0.00  0.00    +0.000 A 
ATOM     16  C   UNL     1       1.660   6.671  20.804  0.00  0.00    +0.000 A 
BRANCH  14  17
ATOM     17  N   UNL     1       3.398   4.762  18.063  0.00  0.00    +0.000 N 
ATOM     18  O   UNL     1       4.585   4.519  18.329  0.00  0.00    +0.000 OA
ATOM     19  O   UNL     1       2.726   4.152  17.221  0.00  0.00    +0.000 OA
ENDBRANCH  14  17
ENDBRANCH   8  11
BRANCH   1  21
ATOM     20  N   UNL     1      -2.600  10.826  18.220  0.00  0.00    +0.000 N 
ATOM     21  C   UNL     1      -1.730  11.758  18.731  0.00  0.00    +0.000 C 
ATOM     22  O   UNL     1      -1.094  12.532  18.020  0.00  0.00    +0.000 OA
ATOM     23  H   UNL     1      -3.270  10.387  18.853  0.00  0.00    +0.000 HD
BRANCH  20  24
ATOM     24  C   UNL     1      -2.854  10.742  16.798  0.00  0.00    +0.000 C 
BRANCH  24  25
ATOM     25  C   UNL     1      -4.303  11.109  16.433  0.00  0.00    +0.000 C 
BRANCH  25  27
ATOM     26  C   UNL     1      -5.973  12.760  17.051  0.00  0.00    +0.000 C 
ATOM     27  N   UNL     1      -5.078  11.709  17.542  0.00  0.00    +0.000 NA
ATOM     28  C   UNL     1      -5.853  10.672  18.229  0.00  0.00    +0.000 C 
ENDBRANCH  25  27
ENDBRANCH  24  25
ENDBRANCH  20  24
ENDBRANCH   1  21
TORSDOF 6
ENDMDL
MODEL 9
REMARK VINA RESULT:      -7.0      2.772      7.606
REMARK  Name = 
REMARK  8 active torsions:
REMARK  status: ('A' for Active; 'I' for Inactive)
REMARK    1  A    between atoms: C_1  and  N_2
REMARK    2  A    between atoms: N_2  and  C_3
REMARK    3  A    between atoms: N_2  and  C_4
REMARK    4  A    between atoms: C_4  and  C_5
REMARK    5  A    between atoms: C_5  and  N_6
REMARK    6  A    between atoms: C_7  and  C_9
REMARK    7  A    between atoms: C_16  and  C_17
REMARK    8  A    between atoms: C_20  and  N_21
REMARK                            x       y       z     vdW  Elec       q    Type
REMARK                         _______ _______ _______ _____ _____    ______ ____
ROOT
ATOM      1  C   UNL     1       4.796   3.734  16.853  0.00  0.00    +0.000 A 
ATOM      2  C   UNL     1       5.616   3.107  15.893  0.00  0.00    +0.000 A 
ATOM      3  C   UNL     1       6.236   3.857  14.908  0.00  0.00    +0.000 A 
ATOM      4  C   UNL     1       6.030   5.230  14.880  0.00  0.00    +0.000 A 
ATOM      5  C   UNL     1       5.209   5.862  15.801  0.00  0.00    +0.000 A 
ATOM      6  N   UNL     1       5.054   7.189  15.680  0.00  0.00    +0.000 NA
ATOM      7  C   UNL     1       4.232   7.790  16.567  0.00  0.00    +0.000 A 
ATOM      8  C   UNL     1       3.575   7.109  17.578  0.00  0.00    +0.000 A 
ATOM      9  N   UNL     1       3.749   5.769  17.709  0.00  0.00    +0.000 NA
ATOM     10  C   UNL     1       4.562   5.120  16.824  0.00  0.00    +0.000 A 
ENDROOT
BRANCH   8  11
ATOM     11  C   UNL     1       2.644   7.766  18.518  0.00  0.00    +0.000 A 
ATOM     12  C   UNL     1       2.366   7.193  19.771  0.00  0.00    +0.000 A 
ATOM     13  C   UNL     1       1.458   7.778  20.664  0.00  0.00    +0.000 A 
ATOM     14  C   UNL     1       0.816   8.966  20.317  0.00  0.00    +0.000 A 
ATOM     15  C   UNL     1       1.071   9.566  19.082  0.00  0.00    +0.000 A 
ATOM     16  C   UNL     1       1.979   8.968  18.197  0.00  0.00    +0.000 A 
BRANCH  14  17
ATOM     17  N   UNL     1      -0.123   9.590  21.258  0.00  0.00    +0.000 N 
ATOM     18  O   UNL     1      -0.633  10.673  20.932  0.00  0.00    +0.000 OA
ATOM     19  O   UNL     1      -0.354   8.995  22.320  0.00  0.00    +0.000 OA
ENDBRANCH  14  17
ENDBRANCH   8  11
BRANCH   1  21
ATOM     20  N   UNL     1       4.783   2.892  19.151  0.00  0.00    +0.000 N 
ATOM     21  C   UNL     1       4.223   2.839  17.898  0.00  0.00    +0.000 C 
ATOM     22  O   UNL     1       3.321   2.059  17.607  0.00  0.00    +0.000 OA
ATOM     23  H   UNL     1       5.344   3.707  19.401  0.00  0.00    +0.000 HD
BRANCH  20  24
ATOM     24  C   UNL     1       4.295   2.051  20.224  0.00  0.00    +0.000 C 
BRANCH  24  25
ATOM     25  C   UNL     1       3.315   2.786  21.154  0.00  0.00    +0.000 C 
BRANCH  25  27
ATOM     26  C   UNL     1       1.108   2.372  22.078  0.00  0.00    +0.000 C 
ATOM     27  N   UNL     1       1.887   2.544  20.849  0.00  0.00    +0.000 NA
ATOM     28  C   UNL     1       1.347   3.659  20.066  0.00  0.00    +0.000 C 
ENDBRANCH  25  27
ENDBRANCH  24  25
ENDBRANCH  20  24
ENDBRANCH   1  21
TORSDOF 6
ENDMDL
