MODEL 1
REMARK VINA RESULT:      -7.5      0.000      0.000
REMARK  Name = 
REMARK  6 active torsions:
REMARK  status: ('A' for Active; 'I' for Inactive)
REMARK    1  A    between atoms: C_1  and  O_2
REMARK    2  A    between atoms: O_2  and  C_3
REMARK    3  A    between atoms: C_10  and  C_12
REMARK    4  A    between atoms: C_12  and  C_14
REMARK    5  A    between atoms: C_14  and  C_15
REMARK    6  A    between atoms: C_15  and  C_17
REMARK                            x       y       z     vdW  Elec       q    Type
REMARK                         _______ _______ _______ _____ _____    ______ ____
ROOT
ATOM      1  C   UNL     1       0.202  11.034  20.557  0.00  0.00    +0.000 A 
ATOM      2  C   UNL     1       0.433  11.296  19.208  0.00  0.00    +0.000 A 
ATOM      3  C   UNL     1       1.094  10.357  18.401  0.00  0.00    +0.000 A 
ATOM      4  C   UNL     1       1.518   9.131  18.950  0.00  0.00    +0.000 A 
ATOM      5  N   UNL     1       2.187   8.117  18.282  0.00  0.00    +0.000 NA
ATOM      6  C   UNL     1       2.364   7.100  19.090  0.00  0.00    +0.000 A 
ATOM      7  N   UNL     1       2.985   5.953  18.673  0.00  0.00    +0.000 N 
ATOM      8  C   UNL     1       3.121   4.791  19.386  0.00  0.00    +0.000 C 
ATOM      9  O   UNL     1       2.704   4.489  20.494  0.00  0.00    +0.000 OA
ATOM     10  S   UNL     1       1.821   7.306  20.688  0.00  0.00    +0.000 S 
ATOM     11  C   UNL     1       1.252   8.879  20.296  0.00  0.00    +0.000 A 
ATOM     12  C   UNL     1       0.609   9.818  21.116  0.00  0.00    +0.000 A 
ATOM     13  H   UNL     1       3.408   6.022  17.753  0.00  0.00    +0.000 HD
ENDROOT
BRANCH   1  15
ATOM     14  C   UNL     1      -0.951  11.291  22.624  0.00  0.00    +0.000 C 
ATOM     15  O   UNL     1      -0.417  11.873  21.443  0.00  0.00    +0.000 OA
ENDBRANCH   1  15
BRANCH   8  16
ATOM     16  C   UNL     1       3.935   3.742  18.655  0.00  0.00    +0.000 C 
ATOM     17  O   UNL     1       4.527   2.875  19.284  0.00  0.00    +0.000 OA
BRANCH  16  18
ATOM     18  C   UNL     1       3.951   3.865  17.158  0.00  0.00    +0.000 C 
BRANCH  18  19
ATOM     19  C   UNL     1       5.341   4.081  16.616  0.00  0.00    +0.000 C 
ATOM     20  O   UNL     1       5.814   3.334  15.760  0.00  0.00    +0.000 OA
BRANCH  19  21
ATOM     21  C   UNL     1       6.166   5.208  17.144  0.00  0.00    +0.000 A 
ATOM     22  C   UNL     1       7.190   5.010  18.079  0.00  0.00    +0.000 A 
ATOM     23  C   UNL     1       7.950   6.099  18.518  0.00  0.00    +0.000 A 
ATOM     24  C   UNL     1       7.692   7.379  18.026  0.00  0.00    +0.000 A 
ATOM     25 CL   UNL     1       8.638   8.710  18.561  0.00  0.00    +0.000 Cl
ATOM     26  C   UNL     1       6.670   7.585  17.100  0.00  0.00    +0.000 A 
ATOM     27  C   UNL     1       5.912   6.496  16.659  0.00  0.00    +0.000 A 
ENDBRANCH  19  21
ENDBRANCH  18  19
ENDBRANCH  16  18
ENDBRANCH   8  16
TORSDOF 5
ENDMDL
MODEL 2
REMARK VINA RESULT:      -7.5      5.168      7.219
REMARK  Name = 
REMARK  6 active torsions:
REMARK  status: ('A' for Active; 'I' for Inactive)
REMARK    1  A    between atoms: C_1  and  O_2
REMARK    2  A    between atoms: O_2  and  C_3
REMARK    3  A    between atoms: C_10  and  C_12
REMARK    4  A    between atoms: C_12  and  C_14
REMARK    5  A    between atoms: C_14  and  C_15
REMARK    6  A    between atoms: C_15  and  C_17
REMARK                            x       y       z     vdW  Elec       q    Type
REMARK                         _______ _______ _______ _____ _____    ______ ____
ROOT
ATOM      1  C   UNL     1       9.944  13.761  18.479  0.00  0.00    +0.000 A 
ATOM      2  C   UNL     1      10.593  13.424  19.665  0.00  0.00    +0.000 A 
ATOM      3  C   UNL     1      10.495  12.125  20.188  0.00  0.00    +0.000 A 
ATOM      4  C   UNL     1       9.748  11.145  19.505  0.00  0.00    +0.000 A 
ATOM      5  N   UNL     1       9.556   9.831  19.903  0.00  0.00    +0.000 NA
ATOM      6  C   UNL     1       8.862   9.193  18.992  0.00  0.00    +0.000 A 
ATOM      7  N   UNL     1       8.547   7.867  19.129  0.00  0.00    +0.000 N 
ATOM      8  C   UNL     1       7.934   7.072  18.197  0.00  0.00    +0.000 C 
ATOM      9  O   UNL     1       7.576   7.321  17.056  0.00  0.00    +0.000 OA
ATOM     10  S   UNL     1       8.341  10.115  17.661  0.00  0.00    +0.000 S 
ATOM     11  C   UNL     1       9.130  11.497  18.305  0.00  0.00    +0.000 A 
ATOM     12  C   UNL     1       9.206  12.798  17.784  0.00  0.00    +0.000 A 
ATOM     13  H   UNL     1       8.771   7.481  20.040  0.00  0.00    +0.000 HD
ENDROOT
BRANCH   1  15
ATOM     14  C   UNL     1      10.188  16.117  18.716  0.00  0.00    +0.000 C 
ATOM     15  O   UNL     1       9.954  14.992  17.881  0.00  0.00    +0.000 OA
ENDBRANCH   1  15
BRANCH   8  16
ATOM     16  C   UNL     1       7.662   5.670  18.706  0.00  0.00    +0.000 C 
ATOM     17  O   UNL     1       7.566   5.460  19.908  0.00  0.00    +0.000 OA
BRANCH  16  18
ATOM     18  C   UNL     1       7.536   4.612  17.646  0.00  0.00    +0.000 C 
BRANCH  18  19
ATOM     19  C   UNL     1       6.138   4.524  17.090  0.00  0.00    +0.000 C 
ATOM     20  O   UNL     1       5.941   4.376  15.883  0.00  0.00    +0.000 OA
BRANCH  19  21
ATOM     21  C   UNL     1       4.972   4.642  18.015  0.00  0.00    +0.000 A 
ATOM     22  C   UNL     1       4.165   5.785  18.058  0.00  0.00    +0.000 A 
ATOM     23  C   UNL     1       3.068   5.829  18.925  0.00  0.00    +0.000 A 
ATOM     24  C   UNL     1       2.777   4.738  19.744  0.00  0.00    +0.000 A 
ATOM     25 CL   UNL     1       1.420   4.795  20.797  0.00  0.00    +0.000 Cl
ATOM     26  C   UNL     1       3.580   3.599  19.712  0.00  0.00    +0.000 A 
ATOM     27  C   UNL     1       4.674   3.553  18.843  0.00  0.00    +0.000 A 
ENDBRANCH  19  21
ENDBRANCH  18  19
ENDBRANCH  16  18
ENDBRANCH   8  16
TORSDOF 5
ENDMDL
MODEL 3
REMARK VINA RESULT:      -7.4      5.259      7.453
REMARK  Name = 
REMARK  6 active torsions:
REMARK  status: ('A' for Active; 'I' for Inactive)
REMARK    1  A    between atoms: C_1  and  O_2
REMARK    2  A    between atoms: O_2  and  C_3
REMARK    3  A    between atoms: C_10  and  C_12
REMARK    4  A    between atoms: C_12  and  C_14
REMARK    5  A    between atoms: C_14  and  C_15
REMARK    6  A    between atoms: C_15  and  C_17
REMARK                            x       y       z     vdW  Elec       q    Type
REMARK                         _______ _______ _______ _____ _____    ______ ____
ROOT
ATOM      1  C   UNL     1      10.314  13.723  18.504  0.00  0.00    +0.000 A 
ATOM      2  C   UNL     1      10.815  13.358  19.752  0.00  0.00    +0.000 A 
ATOM      3  C   UNL     1      10.571  12.078  20.273  0.00  0.00    +0.000 A 
ATOM      4  C   UNL     1       9.826  11.143  19.527  0.00  0.00    +0.000 A 
ATOM      5  N   UNL     1       9.500   9.853  19.913  0.00  0.00    +0.000 NA
ATOM      6  C   UNL     1       8.856   9.252  18.943  0.00  0.00    +0.000 A 
ATOM      7  N   UNL     1       8.434   7.954  19.058  0.00  0.00    +0.000 N 
ATOM      8  C   UNL     1       7.861   7.191  18.076  0.00  0.00    +0.000 C 
ATOM      9  O   UNL     1       7.639   7.447  16.902  0.00  0.00    +0.000 OA
ATOM     10  S   UNL     1       8.539  10.188  17.559  0.00  0.00    +0.000 S 
ATOM     11  C   UNL     1       9.359  11.520  18.268  0.00  0.00    +0.000 A 
ATOM     12  C   UNL     1       9.580  12.804  17.746  0.00  0.00    +0.000 A 
ATOM     13  H   UNL     1       8.538   7.567  19.990  0.00  0.00    +0.000 HD
ENDROOT
BRANCH   1  15
ATOM     14  C   UNL     1      11.542  15.070  16.974  0.00  0.00    +0.000 C 
ATOM     15  O   UNL     1      10.473  14.940  17.900  0.00  0.00    +0.000 OA
ENDBRANCH   1  15
BRANCH   8  16
ATOM     16  C   UNL     1       7.439   5.819  18.565  0.00  0.00    +0.000 C 
ATOM     17  O   UNL     1       7.397   5.582  19.766  0.00  0.00    +0.000 OA
BRANCH  16  18
ATOM     18  C   UNL     1       7.101   4.826  17.490  0.00  0.00    +0.000 C 
BRANCH  18  19
ATOM     19  C   UNL     1       5.695   4.998  16.975  0.00  0.00    +0.000 C 
ATOM     20  O   UNL     1       5.480   5.386  15.826  0.00  0.00    +0.000 OA
BRANCH  19  21
ATOM     21  C   UNL     1       4.542   4.714  17.881  0.00  0.00    +0.000 A 
ATOM     22  C   UNL     1       4.619   3.773  18.914  0.00  0.00    +0.000 A 
ATOM     23  C   UNL     1       3.515   3.568  19.750  0.00  0.00    +0.000 A 
ATOM     24  C   UNL     1       2.343   4.300  19.557  0.00  0.00    +0.000 A 
ATOM     25 CL   UNL     1       0.997   4.052  20.596  0.00  0.00    +0.000 Cl
ATOM     26  C   UNL     1       2.258   5.234  18.526  0.00  0.00    +0.000 A 
ATOM     27  C   UNL     1       3.361   5.441  17.692  0.00  0.00    +0.000 A 
ENDBRANCH  19  21
ENDBRANCH  18  19
ENDBRANCH  16  18
ENDBRANCH   8  16
TORSDOF 5
ENDMDL
MODEL 4
REMARK VINA RESULT:      -7.3      5.554      7.406
REMARK  Name = 
REMARK  6 active torsions:
REMARK  status: ('A' for Active; 'I' for Inactive)
REMARK    1  A    between atoms: C_1  and  O_2
REMARK    2  A    between atoms: O_2  and  C_3
REMARK    3  A    between atoms: C_10  and  C_12
REMARK    4  A    between atoms: C_12  and  C_14
REMARK    5  A    between atoms: C_14  and  C_15
REMARK    6  A    between atoms: C_15  and  C_17
REMARK                            x       y       z     vdW  Elec       q    Type
REMARK                         _______ _______ _______ _____ _____    ______ ____
ROOT
ATOM      1  C   UNL     1      10.313  14.083  19.635  0.00  0.00    +0.000 A 
ATOM      2  C   UNL     1       9.437  14.587  18.675  0.00  0.00    +0.000 A 
ATOM      3  C   UNL     1       8.654  13.719  17.898  0.00  0.00    +0.000 A 
ATOM      4  C   UNL     1       8.739  12.326  18.095  0.00  0.00    +0.000 A 
ATOM      5  N   UNL     1       8.038  11.353  17.400  0.00  0.00    +0.000 NA
ATOM      6  C   UNL     1       8.320  10.172  17.894  0.00  0.00    +0.000 A 
ATOM      7  N   UNL     1       7.744   9.032  17.399  0.00  0.00    +0.000 N 
ATOM      8  C   UNL     1       7.870   7.766  17.907  0.00  0.00    +0.000 C 
ATOM      9  O   UNL     1       8.458   7.366  18.900  0.00  0.00    +0.000 OA
ATOM     10  S   UNL     1       9.470  10.135  19.146  0.00  0.00    +0.000 S 
ATOM     11  C   UNL     1       9.602  11.846  19.080  0.00  0.00    +0.000 A 
ATOM     12  C   UNL     1      10.403  12.704  19.849  0.00  0.00    +0.000 A 
ATOM     13  H   UNL     1       7.208   9.175  16.550  0.00  0.00    +0.000 HD
ENDROOT
BRANCH   1  15
ATOM     14  C   UNL     1      10.577  15.327  21.647  0.00  0.00    +0.000 C 
ATOM     15  O   UNL     1      11.134  14.825  20.440  0.00  0.00    +0.000 OA
ENDBRANCH   1  15
BRANCH   8  16
ATOM     16  C   UNL     1       7.162   6.720  17.067  0.00  0.00    +0.000 C 
ATOM     17  O   UNL     1       7.728   6.220  16.104  0.00  0.00    +0.000 OA
BRANCH  16  18
ATOM     18  C   UNL     1       5.766   6.379  17.503  0.00  0.00    +0.000 C 
BRANCH  18  19
ATOM     19  C   UNL     1       5.706   5.081  18.266  0.00  0.00    +0.000 C 
ATOM     20  O   UNL     1       6.716   4.597  18.780  0.00  0.00    +0.000 OA
BRANCH  19  21
ATOM     21  C   UNL     1       4.406   4.357  18.380  0.00  0.00    +0.000 A 
ATOM     22  C   UNL     1       4.315   3.065  18.913  0.00  0.00    +0.000 A 
ATOM     23  C   UNL     1       3.065   2.445  19.022  0.00  0.00    +0.000 A 
ATOM     24  C   UNL     1       1.912   3.111  18.603  0.00  0.00    +0.000 A 
ATOM     25 CL   UNL     1       0.380   2.348  18.753  0.00  0.00    +0.000 Cl
ATOM     26  C   UNL     1       1.996   4.395  18.066  0.00  0.00    +0.000 A 
ATOM     27  C   UNL     1       3.244   5.015  17.960  0.00  0.00    +0.000 A 
ENDBRANCH  19  21
ENDBRANCH  18  19
ENDBRANCH  16  18
ENDBRANCH   8  16
TORSDOF 5
ENDMDL
MODEL 5
REMARK VINA RESULT:      -7.3      0.997      1.071
REMARK  Name = 
REMARK  6 active torsions:
REMARK  status: ('A' for Active; 'I' for Inactive)
REMARK    1  A    between atoms: C_1  and  O_2
REMARK    2  A    between atoms: O_2  and  C_3
REMARK    3  A    between atoms: C_10  and  C_12
REMARK    4  A    between atoms: C_12  and  C_14
REMARK    5  A    between atoms: C_14  and  C_15
REMARK    6  A    between atoms: C_15  and  C_17
REMARK                            x       y       z     vdW  Elec       q    Type
REMARK                         _______ _______ _______ _____ _____    ______ ____
ROOT
ATOM      1  C   UNL     1       0.548  10.300  21.729  0.00  0.00    +0.000 A 
ATOM      2  C   UNL     1       0.721  10.908  20.487  0.00  0.00    +0.000 A 
ATOM      3  C   UNL     1       1.204  10.172  19.394  0.00  0.00    +0.000 A 
ATOM      4  C   UNL     1       1.505   8.804  19.542  0.00  0.00    +0.000 A 
ATOM      5  N   UNL     1       1.994   7.958  18.560  0.00  0.00    +0.000 NA
ATOM      6  C   UNL     1       2.094   6.741  19.037  0.00  0.00    +0.000 A 
ATOM      7  N   UNL     1       2.536   5.701  18.263  0.00  0.00    +0.000 N 
ATOM      8  C   UNL     1       2.570   4.377  18.615  0.00  0.00    +0.000 C 
ATOM      9  O   UNL     1       2.192   3.819  19.633  0.00  0.00    +0.000 OA
ATOM     10  S   UNL     1       1.687   6.541  20.677  0.00  0.00    +0.000 S 
ATOM     11  C   UNL     1       1.298   8.210  20.787  0.00  0.00    +0.000 A 
ATOM     12  C   UNL     1       0.834   8.940  21.892  0.00  0.00    +0.000 A 
ATOM     13  H   UNL     1       2.903   5.984  17.361  0.00  0.00    +0.000 HD
ENDROOT
BRANCH   1  15
ATOM     14  C   UNL     1      -0.996  11.807  22.734  0.00  0.00    +0.000 C 
ATOM     15  O   UNL     1       0.100  10.913  22.867  0.00  0.00    +0.000 OA
ENDBRANCH   1  15
BRANCH   8  16
ATOM     16  C   UNL     1       3.195   3.500  17.548  0.00  0.00    +0.000 C 
ATOM     17  O   UNL     1       2.500   3.021  16.661  0.00  0.00    +0.000 OA
BRANCH  16  18
ATOM     18  C   UNL     1       4.675   3.278  17.680  0.00  0.00    +0.000 C 
BRANCH  18  19
ATOM     19  C   UNL     1       5.468   4.139  16.730  0.00  0.00    +0.000 C 
ATOM     20  O   UNL     1       5.472   3.916  15.519  0.00  0.00    +0.000 OA
BRANCH  19  21
ATOM     21  C   UNL     1       6.282   5.269  17.270  0.00  0.00    +0.000 A 
ATOM     22  C   UNL     1       7.170   5.105  18.340  0.00  0.00    +0.000 A 
ATOM     23  C   UNL     1       7.928   6.193  18.787  0.00  0.00    +0.000 A 
ATOM     24  C   UNL     1       7.801   7.437  18.169  0.00  0.00    +0.000 A 
ATOM     25 CL   UNL     1       8.745   8.765  18.715  0.00  0.00    +0.000 Cl
ATOM     26  C   UNL     1       6.914   7.609  17.107  0.00  0.00    +0.000 A 
ATOM     27  C   UNL     1       6.159   6.522  16.659  0.00  0.00    +0.000 A 
ENDBRANCH  19  21
ENDBRANCH  18  19
ENDBRANCH  16  18
ENDBRANCH   8  16
TORSDOF 5
ENDMDL
MODEL 6
REMARK VINA RESULT:      -7.2      2.307      3.151
REMARK  Name = 
REMARK  6 active torsions:
REMARK  status: ('A' for Active; 'I' for Inactive)
REMARK    1  A    between atoms: C_1  and  O_2
REMARK    2  A    between atoms: O_2  and  C_3
REMARK    3  A    between atoms: C_10  and  C_12
REMARK    4  A    between atoms: C_12  and  C_14
REMARK    5  A    between atoms: C_14  and  C_15
REMARK    6  A    between atoms: C_15  and  C_17
REMARK                            x       y       z     vdW  Elec       q    Type
REMARK                         _______ _______ _______ _____ _____    ______ ____
ROOT
ATOM      1  C   UNL     1      -1.295  11.605  21.912  0.00  0.00    +0.000 A 
ATOM      2  C   UNL     1      -1.145  10.867  23.085  0.00  0.00    +0.000 A 
ATOM      3  C   UNL     1      -0.378   9.691  23.095  0.00  0.00    +0.000 A 
ATOM      4  C   UNL     1       0.259   9.254  21.917  0.00  0.00    +0.000 A 
ATOM      5  N   UNL     1       1.035   8.115  21.775  0.00  0.00    +0.000 NA
ATOM      6  C   UNL     1       1.518   8.061  20.558  0.00  0.00    +0.000 A 
ATOM      7  N   UNL     1       2.339   7.040  20.157  0.00  0.00    +0.000 N 
ATOM      8  C   UNL     1       2.993   6.940  18.958  0.00  0.00    +0.000 C 
ATOM      9  O   UNL     1       3.043   7.716  18.016  0.00  0.00    +0.000 OA
ATOM     10  S   UNL     1       1.032   9.301  19.501  0.00  0.00    +0.000 S 
ATOM     11  C   UNL     1       0.118  10.023  20.762  0.00  0.00    +0.000 A 
ATOM     12  C   UNL     1      -0.661  11.190  20.735  0.00  0.00    +0.000 A 
ATOM     13  H   UNL     1       2.415   6.283  20.828  0.00  0.00    +0.000 HD
ENDROOT
BRANCH   1  15
ATOM     14  C   UNL     1      -3.176  12.893  22.594  0.00  0.00    +0.000 C 
ATOM     15  O   UNL     1      -2.024  12.754  21.774  0.00  0.00    +0.000 OA
ENDBRANCH   1  15
BRANCH   8  16
ATOM     16  C   UNL     1       3.757   5.639  18.809  0.00  0.00    +0.000 C 
ATOM     17  O   UNL     1       4.791   5.458  19.439  0.00  0.00    +0.000 OA
BRANCH  16  18
ATOM     18  C   UNL     1       3.158   4.644  17.857  0.00  0.00    +0.000 C 
BRANCH  18  19
ATOM     19  C   UNL     1       4.175   3.654  17.350  0.00  0.00    +0.000 C 
ATOM     20  O   UNL     1       4.228   2.508  17.798  0.00  0.00    +0.000 OA
BRANCH  19  21
ATOM     21  C   UNL     1       5.150   4.077  16.300  0.00  0.00    +0.000 A 
ATOM     22  C   UNL     1       6.444   4.509  16.614  0.00  0.00    +0.000 A 
ATOM     23  C   UNL     1       7.325   4.866  15.587  0.00  0.00    +0.000 A 
ATOM     24  C   UNL     1       6.917   4.792  14.255  0.00  0.00    +0.000 A 
ATOM     25 CL   UNL     1       8.009   5.221  12.999  0.00  0.00    +0.000 Cl
ATOM     26  C   UNL     1       5.628   4.369  13.936  0.00  0.00    +0.000 A 
ATOM     27  C   UNL     1       4.748   4.008  14.961  0.00  0.00    +0.000 A 
ENDBRANCH  19  21
ENDBRANCH  18  19
ENDBRANCH  16  18
ENDBRANCH   8  16
TORSDOF 5
ENDMDL
MODEL 7
REMARK VINA RESULT:      -7.2      5.645      7.592
REMARK  Name = 
REMARK  6 active torsions:
REMARK  status: ('A' for Active; 'I' for Inactive)
REMARK    1  A    between atoms: C_1  and  O_2
REMARK    2  A    between atoms: O_2  and  C_3
REMARK    3  A    between atoms: C_10  and  C_12
REMARK    4  A    between atoms: C_12  and  C_14
REMARK    5  A    between atoms: C_14  and  C_15
REMARK    6  A    between atoms: C_15  and  C_17
REMARK                            x       y       z     vdW  Elec       q    Type
REMARK                         _______ _______ _______ _____ _____    ______ ____
ROOT
ATOM      1  C   UNL     1      10.077  13.963  18.240  0.00  0.00    +0.000 A 
ATOM      2  C   UNL     1      10.722  13.681  19.443  0.00  0.00    +0.000 A 
ATOM      3  C   UNL     1      10.613  12.411  20.031  0.00  0.00    +0.000 A 
ATOM      4  C   UNL     1       9.857  11.404  19.398  0.00  0.00    +0.000 A 
ATOM      5  N   UNL     1       9.654  10.114  19.862  0.00  0.00    +0.000 NA
ATOM      6  C   UNL     1       8.955   9.436  18.985  0.00  0.00    +0.000 A 
ATOM      7  N   UNL     1       8.628   8.122  19.189  0.00  0.00    +0.000 N 
ATOM      8  C   UNL     1       8.009   7.285  18.299  0.00  0.00    +0.000 C 
ATOM      9  O   UNL     1       7.654   7.479  17.146  0.00  0.00    +0.000 OA
ATOM     10  S   UNL     1       8.442  10.294  17.608  0.00  0.00    +0.000 S 
ATOM     11  C   UNL     1       9.243  11.700  18.182  0.00  0.00    +0.000 A 
ATOM     12  C   UNL     1       9.330  12.972  17.595  0.00  0.00    +0.000 A 
ATOM     13  H   UNL     1       8.849   7.781  20.119  0.00  0.00    +0.000 HD
ENDROOT
BRANCH   1  15
ATOM     14  C   UNL     1      10.388  16.320  18.349  0.00  0.00    +0.000 C 
ATOM     15  O   UNL     1      10.098  15.161  17.580  0.00  0.00    +0.000 OA
ENDBRANCH   1  15
BRANCH   8  16
ATOM     16  C   UNL     1       7.725   5.913  18.878  0.00  0.00    +0.000 C 
ATOM     17  O   UNL     1       8.649   5.155  19.142  0.00  0.00    +0.000 OA
BRANCH  16  18
ATOM     18  C   UNL     1       6.273   5.586  19.080  0.00  0.00    +0.000 C 
BRANCH  18  19
ATOM     19  C   UNL     1       5.758   4.612  18.051  0.00  0.00    +0.000 C 
ATOM     20  O   UNL     1       6.400   4.364  17.030  0.00  0.00    +0.000 OA
BRANCH  19  21
ATOM     21  C   UNL     1       4.435   3.952  18.264  0.00  0.00    +0.000 A 
ATOM     22  C   UNL     1       4.136   3.238  19.430  0.00  0.00    +0.000 A 
ATOM     23  C   UNL     1       2.870   2.664  19.588  0.00  0.00    +0.000 A 
ATOM     24  C   UNL     1       1.907   2.802  18.587  0.00  0.00    +0.000 A 
ATOM     25 CL   UNL     1       0.350   2.105  18.793  0.00  0.00    +0.000 Cl
ATOM     26  C   UNL     1       2.201   3.507  17.420  0.00  0.00    +0.000 A 
ATOM     27  C   UNL     1       3.464   4.083  17.264  0.00  0.00    +0.000 A 
ENDBRANCH  19  21
ENDBRANCH  18  19
ENDBRANCH  16  18
ENDBRANCH   8  16
TORSDOF 5
ENDMDL
MODEL 8
REMARK VINA RESULT:      -7.1      4.044      9.257
REMARK  Name = 
REMARK  6 active torsions:
REMARK  status: ('A' for Active; 'I' for Inactive)
REMARK    1  A    between atoms: C_1  and  O_2
REMARK    2  A    between atoms: O_2  and  C_3
REMARK    3  A    between atoms: C_10  and  C_12
REMARK    4  A    between atoms: C_12  and  C_14
REMARK    5  A    between atoms: C_14  and  C_15
REMARK    6  A    between atoms: C_15  and  C_17
REMARK                            x       y       z     vdW  Elec       q    Type
REMARK                         _______ _______ _______ _____ _____    ______ ____
ROOT
ATOM      1  C   UNL     1       3.584   2.837  19.995  0.00  0.00    +0.000 A 
ATOM      2  C   UNL     1       2.769   2.950  21.120  0.00  0.00    +0.000 A 
ATOM      3  C   UNL     1       2.114   4.158  21.408  0.00  0.00    +0.000 A 
ATOM      4  C   UNL     1       2.267   5.265  20.551  0.00  0.00    +0.000 A 
ATOM      5  N   UNL     1       1.693   6.516  20.711  0.00  0.00    +0.000 NA
ATOM      6  C   UNL     1       2.002   7.276  19.689  0.00  0.00    +0.000 A 
ATOM      7  N   UNL     1       1.544   8.563  19.589  0.00  0.00    +0.000 N 
ATOM      8  C   UNL     1       1.702   9.406  18.520  0.00  0.00    +0.000 C 
ATOM      9  O   UNL     1       2.222   9.215  17.432  0.00  0.00    +0.000 OA
ATOM     10  S   UNL     1       3.034   6.589  18.526  0.00  0.00    +0.000 S 
ATOM     11  C   UNL     1       3.065   5.121  19.416  0.00  0.00    +0.000 A 
ATOM     12  C   UNL     1       3.739   3.924  19.128  0.00  0.00    +0.000 A 
ATOM     13  H   UNL     1       1.079   8.903  20.424  0.00  0.00    +0.000 HD
ENDROOT
BRANCH   1  15
ATOM     14  C   UNL     1       3.868   1.070  18.426  0.00  0.00    +0.000 C 
ATOM     15  O   UNL     1       4.282   1.722  19.618  0.00  0.00    +0.000 OA
ENDBRANCH   1  15
BRANCH   8  16
ATOM     16  C   UNL     1       1.138  10.791  18.773  0.00  0.00    +0.000 C 
ATOM     17  O   UNL     1       1.782  11.783  18.457  0.00  0.00    +0.000 OA
BRANCH  16  18
ATOM     18  C   UNL     1      -0.215  10.828  19.423  0.00  0.00    +0.000 C 
BRANCH  18  19
ATOM     19  C   UNL     1      -0.146  11.268  20.863  0.00  0.00    +0.000 C 
ATOM     20  O   UNL     1       0.891  11.147  21.518  0.00  0.00    +0.000 OA
BRANCH  19  21
ATOM     21  C   UNL     1      -1.362  11.840  21.515  0.00  0.00    +0.000 A 
ATOM     22  C   UNL     1      -2.257  12.667  20.827  0.00  0.00    +0.000 A 
ATOM     23  C   UNL     1      -3.396  13.152  21.481  0.00  0.00    +0.000 A 
ATOM     24  C   UNL     1      -3.640  12.813  22.812  0.00  0.00    +0.000 A 
ATOM     25 CL   UNL     1      -5.047  13.402  23.603  0.00  0.00    +0.000 Cl
ATOM     26  C   UNL     1      -2.748  11.994  23.504  0.00  0.00    +0.000 A 
ATOM     27  C   UNL     1      -1.613  11.507  22.851  0.00  0.00    +0.000 A 
ENDBRANCH  19  21
ENDBRANCH  18  19
ENDBRANCH  16  18
ENDBRANCH   8  16
TORSDOF 5
ENDMDL
MODEL 9
REMARK VINA RESULT:      -7.1      2.211      3.050
REMARK  Name = 
REMARK  6 active torsions:
REMARK  status: ('A' for Active; 'I' for Inactive)
REMARK    1  A    between atoms: C_1  and  O_2
REMARK    2  A    between atoms: O_2  and  C_3
REMARK    3  A    between atoms: C_10  and  C_12
REMARK    4  A    between atoms: C_12  and  C_14
REMARK    5  A    between atoms: C_14  and  C_15
REMARK    6  A    between atoms: C_15  and  C_17
REMARK                            x       y       z     vdW  Elec       q    Type
REMARK                         _______ _______ _______ _____ _____    ______ ____
ROOT
ATOM      1  C   UNL     1      -0.054  12.716  19.514  0.00  0.00    +0.000 A 
ATOM      2  C   UNL     1      -0.220  12.494  20.880  0.00  0.00    +0.000 A 
ATOM      3  C   UNL     1       0.109  11.252  21.446  0.00  0.00    +0.000 A 
ATOM      4  C   UNL     1       0.625  10.222  20.636  0.00  0.00    +0.000 A 
ATOM      5  N   UNL     1       0.983   8.949  21.051  0.00  0.00    +0.000 NA
ATOM      6  C   UNL     1       1.484   8.281  20.041  0.00  0.00    +0.000 A 
ATOM      7  N   UNL     1       1.937   6.997  20.184  0.00  0.00    +0.000 N 
ATOM      8  C   UNL     1       2.583   6.247  19.237  0.00  0.00    +0.000 C 
ATOM      9  O   UNL     1       2.939   6.538  18.104  0.00  0.00    +0.000 OA
ATOM     10  S   UNL     1       1.496   9.084  18.541  0.00  0.00    +0.000 S 
ATOM     11  C   UNL     1       0.809  10.476  19.277  0.00  0.00    +0.000 A 
ATOM     12  C   UNL     1       0.467  11.706  18.697  0.00  0.00    +0.000 A 
ATOM     13  H   UNL     1       1.721   6.580  21.083  0.00  0.00    +0.000 HD
ENDROOT
BRANCH   1  15
ATOM     14  C   UNL     1       0.229  15.073  19.342  0.00  0.00    +0.000 C 
ATOM     15  O   UNL     1      -0.350  13.873  18.847  0.00  0.00    +0.000 OA
ENDBRANCH   1  15
BRANCH   8  16
ATOM     16  C   UNL     1       2.877   4.834  19.702  0.00  0.00    +0.000 C 
ATOM     17  O   UNL     1       2.740   4.535  20.881  0.00  0.00    +0.000 OA
BRANCH  16  18
ATOM     18  C   UNL     1       3.335   3.885  18.632  0.00  0.00    +0.000 C 
BRANCH  18  19
ATOM     19  C   UNL     1       4.838   3.792  18.555  0.00  0.00    +0.000 C 
ATOM     20  O   UNL     1       5.506   3.453  19.533  0.00  0.00    +0.000 OA
BRANCH  19  21
ATOM     21  C   UNL     1       5.530   4.139  17.278  0.00  0.00    +0.000 A 
ATOM     22  C   UNL     1       6.855   4.589  17.246  0.00  0.00    +0.000 A 
ATOM     23  C   UNL     1       7.462   4.873  16.018  0.00  0.00    +0.000 A 
ATOM     24  C   UNL     1       6.752   4.706  14.828  0.00  0.00    +0.000 A 
ATOM     25 CL   UNL     1       7.509   5.044  13.323  0.00  0.00    +0.000 Cl
ATOM     26  C   UNL     1       5.430   4.264  14.854  0.00  0.00    +0.000 A 
ATOM     27  C   UNL     1       4.824   3.978  16.081  0.00  0.00    +0.000 A 
ENDBRANCH  19  21
ENDBRANCH  18  19
ENDBRANCH  16  18
ENDBRANCH   8  16
TORSDOF 5
ENDMDL
