MODEL 1
REMARK VINA RESULT:      -8.4      0.000      0.000
REMARK  Name = 
REMARK  13 active torsions:
REMARK  status: ('A' for Active; 'I' for Inactive)
REMARK    1  A    between atoms: C_1  and  O_2
REMARK    2  A    between atoms: O_2  and  C_3
REMARK    3  A    between atoms: C_7  and  C_8
REMARK    4  A    between atoms: C_8  and  C_9
REMARK    5  A    between atoms: C_8  and  N_10
REMARK    6  A    between atoms: C_11  and  C_13
REMARK    7  A    between atoms: C_16  and  C_17
REMARK    8  A    between atoms: C_24  and  N_25
REMARK    9  A    between atoms: N_25  and  C_26
REMARK   10  A    between atoms: C_26  and  C_27
REMARK   11  A    between atoms: C_27  and  C_28
REMARK   12  A    between atoms: C_28  and  C_29
REMARK   13  A    between atoms: C_29  and  N_30
REMARK                            x       y       z     vdW  Elec       q    Type
REMARK                         _______ _______ _______ _____ _____    ______ ____
ROOT
ATOM      1  C   UNL     1       3.586   6.126  18.426  0.00  0.00    +0.000 A 
ATOM      2  C   UNL     1       3.440   7.194  17.516  0.00  0.00    +0.000 A 
ATOM      3  C   UNL     1       2.600   8.275  17.784  0.00  0.00    +0.000 A 
ATOM      4  C   UNL     1       1.876   8.335  18.979  0.00  0.00    +0.000 A 
ATOM      5  C   UNL     1       2.039   7.263  19.884  0.00  0.00    +0.000 A 
ATOM      6  C   UNL     1       2.851   6.131  19.636  0.00  0.00    +0.000 A 
ENDROOT
BRANCH   4   7
ATOM      7  C   UNL     1       0.997   9.478  19.302  0.00  0.00    +0.000 A 
ATOM      8  C   UNL     1       0.188  10.089  18.355  0.00  0.00    +0.000 A 
ATOM      9  C   UNL     1      -0.555  11.160  18.780  0.00  0.00    +0.000 A 
ATOM     10  N   UNL     1      -0.537  11.622  20.041  0.00  0.00    +0.000 NA
ATOM     11  C   UNL     1       0.262  10.957  20.886  0.00  0.00    +0.000 A 
ATOM     12  N   UNL     1       1.031   9.902  20.584  0.00  0.00    +0.000 NA
ENDBRANCH   4   7
BRANCH   1  14
ATOM     13  N   UNL     1       5.344   5.330  16.892  0.00  0.00    +0.000 N 
ATOM     14  C   UNL     1       4.541   5.064  17.983  0.00  0.00    +0.000 C 
ATOM     15  O   UNL     1       4.614   4.016  18.615  0.00  0.00    +0.000 OA
ATOM     16  H   UNL     1       5.195   6.206  16.399  0.00  0.00    +0.000 HD
BRANCH  13  17
ATOM     17  C   UNL     1       6.337   4.366  16.436  0.00  0.00    +0.000 C 
ATOM     18  C   UNL     1       7.664   4.509  17.192  0.00  0.00    +0.000 C 
BRANCH  17  23
ATOM     19  C   UNL     1       5.975   3.559  12.693  0.00  0.00    +0.000 A 
ATOM     20  C   UNL     1       7.007   4.337  12.162  0.00  0.00    +0.000 A 
ATOM     21  C   UNL     1       7.770   5.154  12.990  0.00  0.00    +0.000 A 
ATOM     22  C   UNL     1       7.523   5.168  14.362  0.00  0.00    +0.000 A 
ATOM     23  C   UNL     1       6.487   4.403  14.923  0.00  0.00    +0.000 A 
ATOM     24  C   UNL     1       5.682   3.634  14.062  0.00  0.00    +0.000 A 
BRANCH  19  26
ATOM     25  C   UNL     1       4.123   3.146  11.256  0.00  0.00    +0.000 C 
ATOM     26  O   UNL     1       5.376   2.731  11.780  0.00  0.00    +0.000 OA
ENDBRANCH  19  26
ENDBRANCH  17  23
ENDBRANCH  13  17
ENDBRANCH   1  14
BRANCH   6  27
ATOM     27  N   UNL     1       2.989   5.097  20.608  0.00  0.00    +0.000 N 
ATOM     28  H   UNL     1       3.453   5.508  21.425  0.00  0.00    +0.000 HD
BRANCH  27  29
ATOM     29  C   UNL     1       1.739   4.435  21.032  0.00  0.00    +0.000 C 
BRANCH  29  30
ATOM     30  C   UNL     1       1.715   2.941  20.702  0.00  0.00    +0.000 C 
BRANCH  30  31
ATOM     31  C   UNL     1       0.852   2.731  19.449  0.00  0.00    +0.000 C 
BRANCH  31  32
ATOM     32  C   UNL     1       1.665   2.504  18.179  0.00  0.00    +0.000 C 
BRANCH  32  33
ATOM     33  N   UNL     1       2.736   1.549  18.456  0.00  0.00    +0.000 NA
ATOM     34  H   UNL     1       2.680   1.236  19.424  0.00  0.00    +0.000 HD
ATOM     35  H   UNL     1       3.640   2.013  18.362  0.00  0.00    +0.000 HD
ENDBRANCH  32  33
ENDBRANCH  31  32
ENDBRANCH  30  31
ENDBRANCH  29  30
ENDBRANCH  27  29
ENDBRANCH   6  27
TORSDOF 11
ENDMDL
MODEL 2
REMARK VINA RESULT:      -7.7      1.038      1.152
REMARK  Name = 
REMARK  13 active torsions:
REMARK  status: ('A' for Active; 'I' for Inactive)
REMARK    1  A    between atoms: C_1  and  O_2
REMARK    2  A    between atoms: O_2  and  C_3
REMARK    3  A    between atoms: C_7  and  C_8
REMARK    4  A    between atoms: C_8  and  C_9
REMARK    5  A    between atoms: C_8  and  N_10
REMARK    6  A    between atoms: C_11  and  C_13
REMARK    7  A    between atoms: C_16  and  C_17
REMARK    8  A    between atoms: C_24  and  N_25
REMARK    9  A    between atoms: N_25  and  C_26
REMARK   10  A    between atoms: C_26  and  C_27
REMARK   11  A    between atoms: C_27  and  C_28
REMARK   12  A    between atoms: C_28  and  C_29
REMARK   13  A    between atoms: C_29  and  N_30
REMARK                            x       y       z     vdW  Elec       q    Type
REMARK                         _______ _______ _______ _____ _____    ______ ____
ROOT
ATOM      1  C   UNL     1       3.212   6.480  18.257  0.00  0.00    +0.000 A 
ATOM      2  C   UNL     1       3.104   7.598  17.401  0.00  0.00    +0.000 A 
ATOM      3  C   UNL     1       2.378   8.731  17.766  0.00  0.00    +0.000 A 
ATOM      4  C   UNL     1       1.734   8.796  19.005  0.00  0.00    +0.000 A 
ATOM      5  C   UNL     1       1.857   7.674  19.854  0.00  0.00    +0.000 A 
ATOM      6  C   UNL     1       2.553   6.491  19.509  0.00  0.00    +0.000 A 
ENDROOT
BRANCH   4   7
ATOM      7  C   UNL     1       0.976   9.992  19.428  0.00  0.00    +0.000 A 
ATOM      8  C   UNL     1       1.024  11.192  18.734  0.00  0.00    +0.000 A 
ATOM      9  C   UNL     1       0.298  12.232  19.254  0.00  0.00    +0.000 A 
ATOM     10  N   UNL     1      -0.442  12.136  20.370  0.00  0.00    +0.000 NA
ATOM     11  C   UNL     1      -0.439  10.935  20.962  0.00  0.00    +0.000 A 
ATOM     12  N   UNL     1       0.231   9.850  20.546  0.00  0.00    +0.000 NA
ENDBRANCH   4   7
BRANCH   1  14
ATOM     13  N   UNL     1       5.361   5.633  17.395  0.00  0.00    +0.000 N 
ATOM     14  C   UNL     1       4.044   5.364  17.712  0.00  0.00    +0.000 C 
ATOM     15  O   UNL     1       3.556   4.245  17.601  0.00  0.00    +0.000 OA
ATOM     16  H   UNL     1       5.679   6.595  17.478  0.00  0.00    +0.000 HD
BRANCH  13  17
ATOM     17  C   UNL     1       6.249   4.584  16.911  0.00  0.00    +0.000 C 
ATOM     18  C   UNL     1       7.596   4.591  17.644  0.00  0.00    +0.000 C 
BRANCH  17  23
ATOM     19  C   UNL     1       5.669   3.940  13.163  0.00  0.00    +0.000 A 
ATOM     20  C   UNL     1       6.822   4.517  12.623  0.00  0.00    +0.000 A 
ATOM     21  C   UNL     1       7.742   5.155  13.448  0.00  0.00    +0.000 A 
ATOM     22  C   UNL     1       7.528   5.188  14.825  0.00  0.00    +0.000 A 
ATOM     23  C   UNL     1       6.375   4.624  15.396  0.00  0.00    +0.000 A 
ATOM     24  C   UNL     1       5.422   4.041  14.540  0.00  0.00    +0.000 A 
BRANCH  19  26
ATOM     25  C   UNL     1       5.541   2.218  11.525  0.00  0.00    +0.000 C 
ATOM     26  O   UNL     1       4.906   3.261  12.250  0.00  0.00    +0.000 OA
ENDBRANCH  19  26
ENDBRANCH  17  23
ENDBRANCH  13  17
ENDBRANCH   1  14
BRANCH   6  27
ATOM     27  N   UNL     1       2.658   5.406  20.428  0.00  0.00    +0.000 N 
ATOM     28  H   UNL     1       3.005   5.790  21.314  0.00  0.00    +0.000 HD
BRANCH  27  29
ATOM     29  C   UNL     1       1.420   4.640  20.673  0.00  0.00    +0.000 C 
BRANCH  29  30
ATOM     30  C   UNL     1       1.606   3.133  20.491  0.00  0.00    +0.000 C 
BRANCH  30  31
ATOM     31  C   UNL     1       2.992   2.742  21.026  0.00  0.00    +0.000 C 
BRANCH  31  32
ATOM     32  C   UNL     1       3.838   1.968  20.022  0.00  0.00    +0.000 C 
BRANCH  32  33
ATOM     33  N   UNL     1       5.088   2.687  19.786  0.00  0.00    +0.000 NA
ATOM     34  H   UNL     1       5.547   2.321  18.953  0.00  0.00    +0.000 HD
ATOM     35  H   UNL     1       5.731   2.517  20.560  0.00  0.00    +0.000 HD
ENDBRANCH  32  33
ENDBRANCH  31  32
ENDBRANCH  30  31
ENDBRANCH  29  30
ENDBRANCH  27  29
ENDBRANCH   6  27
TORSDOF 11
ENDMDL
MODEL 3
REMARK VINA RESULT:      -7.6      0.906      1.103
REMARK  Name = 
REMARK  13 active torsions:
REMARK  status: ('A' for Active; 'I' for Inactive)
REMARK    1  A    between atoms: C_1  and  O_2
REMARK    2  A    between atoms: O_2  and  C_3
REMARK    3  A    between atoms: C_7  and  C_8
REMARK    4  A    between atoms: C_8  and  C_9
REMARK    5  A    between atoms: C_8  and  N_10
REMARK    6  A    between atoms: C_11  and  C_13
REMARK    7  A    between atoms: C_16  and  C_17
REMARK    8  A    between atoms: C_24  and  N_25
REMARK    9  A    between atoms: N_25  and  C_26
REMARK   10  A    between atoms: C_26  and  C_27
REMARK   11  A    between atoms: C_27  and  C_28
REMARK   12  A    between atoms: C_28  and  C_29
REMARK   13  A    between atoms: C_29  and  N_30
REMARK                            x       y       z     vdW  Elec       q    Type
REMARK                         _______ _______ _______ _____ _____    ______ ____
ROOT
ATOM      1  C   UNL     1       3.438   6.459  18.291  0.00  0.00    +0.000 A 
ATOM      2  C   UNL     1       3.364   7.502  17.343  0.00  0.00    +0.000 A 
ATOM      3  C   UNL     1       2.548   8.615  17.542  0.00  0.00    +0.000 A 
ATOM      4  C   UNL     1       1.777   8.734  18.702  0.00  0.00    +0.000 A 
ATOM      5  C   UNL     1       1.868   7.687  19.646  0.00  0.00    +0.000 A 
ATOM      6  C   UNL     1       2.654   6.525  19.467  0.00  0.00    +0.000 A 
ENDROOT
BRANCH   4   7
ATOM      7  C   UNL     1       0.920   9.913  18.952  0.00  0.00    +0.000 A 
ATOM      8  C   UNL     1       1.303  10.951  19.788  0.00  0.00    +0.000 A 
ATOM      9  C   UNL     1       0.400  11.969  19.957  0.00  0.00    +0.000 A 
ATOM     10  N   UNL     1      -0.801  12.003  19.357  0.00  0.00    +0.000 NA
ATOM     11  C   UNL     1      -1.074  10.964  18.557  0.00  0.00    +0.000 A 
ATOM     12  N   UNL     1      -0.272   9.917  18.317  0.00  0.00    +0.000 NA
ENDBRANCH   4   7
BRANCH   1  14
ATOM     13  N   UNL     1       5.177   5.530  16.811  0.00  0.00    +0.000 N 
ATOM     14  C   UNL     1       4.377   5.355  17.922  0.00  0.00    +0.000 C 
ATOM     15  O   UNL     1       4.442   4.356  18.629  0.00  0.00    +0.000 OA
ATOM     16  H   UNL     1       5.036   6.370  16.255  0.00  0.00    +0.000 HD
BRANCH  13  17
ATOM     17  C   UNL     1       6.156   4.523  16.421  0.00  0.00    +0.000 C 
ATOM     18  C   UNL     1       7.466   4.664  17.206  0.00  0.00    +0.000 C 
BRANCH  17  23
ATOM     19  C   UNL     1       5.856   3.580  12.704  0.00  0.00    +0.000 A 
ATOM     20  C   UNL     1       6.932   4.295  12.171  0.00  0.00    +0.000 A 
ATOM     21  C   UNL     1       7.706   5.115  12.987  0.00  0.00    +0.000 A 
ATOM     22  C   UNL     1       7.425   5.194  14.350  0.00  0.00    +0.000 A 
ATOM     23  C   UNL     1       6.345   4.493  14.912  0.00  0.00    +0.000 A 
ATOM     24  C   UNL     1       5.532   3.723  14.060  0.00  0.00    +0.000 A 
BRANCH  19  26
ATOM     25  C   UNL     1       5.992   1.611  11.373  0.00  0.00    +0.000 C 
ATOM     26  O   UNL     1       5.248   2.741  11.809  0.00  0.00    +0.000 OA
ENDBRANCH  19  26
ENDBRANCH  17  23
ENDBRANCH  13  17
ENDBRANCH   1  14
BRANCH   6  27
ATOM     27  N   UNL     1       2.718   5.518  20.476  0.00  0.00    +0.000 N 
ATOM     28  H   UNL     1       3.225   5.919  21.273  0.00  0.00    +0.000 HD
BRANCH  27  29
ATOM     29  C   UNL     1       1.424   4.977  20.936  0.00  0.00    +0.000 C 
BRANCH  29  30
ATOM     30  C   UNL     1       0.847   3.925  19.987  0.00  0.00    +0.000 C 
BRANCH  30  31
ATOM     31  C   UNL     1       1.385   2.546  20.400  0.00  0.00    +0.000 C 
BRANCH  31  32
ATOM     32  C   UNL     1       2.164   1.840  19.296  0.00  0.00    +0.000 C 
BRANCH  32  33
ATOM     33  N   UNL     1       1.485   2.045  18.018  0.00  0.00    +0.000 NA
ATOM     34  H   UNL     1       2.171   2.101  17.266  0.00  0.00    +0.000 HD
ATOM     35  H   UNL     1       1.004   2.945  18.027  0.00  0.00    +0.000 HD
ENDBRANCH  32  33
ENDBRANCH  31  32
ENDBRANCH  30  31
ENDBRANCH  29  30
ENDBRANCH  27  29
ENDBRANCH   6  27
TORSDOF 11
ENDMDL
MODEL 4
REMARK VINA RESULT:      -7.5      2.506      8.336
REMARK  Name = 
REMARK  13 active torsions:
REMARK  status: ('A' for Active; 'I' for Inactive)
REMARK    1  A    between atoms: C_1  and  O_2
REMARK    2  A    between atoms: O_2  and  C_3
REMARK    3  A    between atoms: C_7  and  C_8
REMARK    4  A    between atoms: C_8  and  C_9
REMARK    5  A    between atoms: C_8  and  N_10
REMARK    6  A    between atoms: C_11  and  C_13
REMARK    7  A    between atoms: C_16  and  C_17
REMARK    8  A    between atoms: C_24  and  N_25
REMARK    9  A    between atoms: N_25  and  C_26
REMARK   10  A    between atoms: C_26  and  C_27
REMARK   11  A    between atoms: C_27  and  C_28
REMARK   12  A    between atoms: C_28  and  C_29
REMARK   13  A    between atoms: C_29  and  N_30
REMARK                            x       y       z     vdW  Elec       q    Type
REMARK                         _______ _______ _______ _____ _____    ______ ____
ROOT
ATOM      1  C   UNL     1       4.019   5.599  18.026  0.00  0.00    +0.000 A 
ATOM      2  C   UNL     1       4.586   6.613  17.225  0.00  0.00    +0.000 A 
ATOM      3  C   UNL     1       5.232   6.321  16.024  0.00  0.00    +0.000 A 
ATOM      4  C   UNL     1       5.331   5.002  15.570  0.00  0.00    +0.000 A 
ATOM      5  C   UNL     1       4.752   3.999  16.379  0.00  0.00    +0.000 A 
ATOM      6  C   UNL     1       4.120   4.246  17.620  0.00  0.00    +0.000 A 
ENDROOT
BRANCH   4   7
ATOM      7  C   UNL     1       5.989   4.665  14.291  0.00  0.00    +0.000 A 
ATOM      8  C   UNL     1       5.485   3.709  13.421  0.00  0.00    +0.000 A 
ATOM      9  C   UNL     1       6.211   3.470  12.283  0.00  0.00    +0.000 A 
ATOM     10  N   UNL     1       7.353   4.110  11.982  0.00  0.00    +0.000 NA
ATOM     11  C   UNL     1       7.751   5.026  12.875  0.00  0.00    +0.000 A 
ATOM     12  N   UNL     1       7.125   5.342  14.017  0.00  0.00    +0.000 NA
ENDBRANCH   4   7
BRANCH   1  14
ATOM     13  N   UNL     1       2.584   7.239  19.178  0.00  0.00    +0.000 N 
ATOM     14  C   UNL     1       3.351   6.095  19.269  0.00  0.00    +0.000 C 
ATOM     15  O   UNL     1       3.466   5.460  20.311  0.00  0.00    +0.000 OA
ATOM     16  H   UNL     1       2.570   7.729  18.287  0.00  0.00    +0.000 HD
BRANCH  13  17
ATOM     17  C   UNL     1       1.858   7.752  20.333  0.00  0.00    +0.000 C 
ATOM     18  C   UNL     1       0.949   6.686  20.958  0.00  0.00    +0.000 C 
BRANCH  17  23
ATOM     19  C   UNL     1      -0.277  10.940  20.611  0.00  0.00    +0.000 A 
ATOM     20  C   UNL     1      -0.387  11.293  19.264  0.00  0.00    +0.000 A 
ATOM     21  C   UNL     1       0.265  10.549  18.286  0.00  0.00    +0.000 A 
ATOM     22  C   UNL     1       1.004   9.425  18.652  0.00  0.00    +0.000 A 
ATOM     23  C   UNL     1       1.140   9.051  19.999  0.00  0.00    +0.000 A 
ATOM     24  C   UNL     1       0.529   9.854  20.981  0.00  0.00    +0.000 A 
BRANCH  19  26
ATOM     25  C   UNL     1      -2.143  12.394  20.870  0.00  0.00    +0.000 C 
ATOM     26  O   UNL     1      -1.049  11.698  21.450  0.00  0.00    +0.000 OA
ENDBRANCH  19  26
ENDBRANCH  17  23
ENDBRANCH  13  17
ENDBRANCH   1  14
BRANCH   6  27
ATOM     27  N   UNL     1       3.533   3.186  18.371  0.00  0.00    +0.000 N 
ATOM     28  H   UNL     1       3.305   3.560  19.299  0.00  0.00    +0.000 HD
BRANCH  27  29
ATOM     29  C   UNL     1       2.332   2.562  17.783  0.00  0.00    +0.000 C 
BRANCH  29  30
ATOM     30  C   UNL     1       1.351   2.046  18.837  0.00  0.00    +0.000 C 
BRANCH  30  31
ATOM     31  C   UNL     1       1.106   3.161  19.864  0.00  0.00    +0.000 C 
BRANCH  31  32
ATOM     32  C   UNL     1       1.377   2.736  21.303  0.00  0.00    +0.000 C 
BRANCH  32  33
ATOM     33  N   UNL     1       2.819   2.733  21.543  0.00  0.00    +0.000 NA
ATOM     34  H   UNL     1       3.092   1.866  22.005  0.00  0.00    +0.000 HD
ATOM     35  H   UNL     1       3.059   3.485  22.190  0.00  0.00    +0.000 HD
ENDBRANCH  32  33
ENDBRANCH  31  32
ENDBRANCH  30  31
ENDBRANCH  29  30
ENDBRANCH  27  29
ENDBRANCH   6  27
TORSDOF 11
ENDMDL
MODEL 5
REMARK VINA RESULT:      -7.5      2.909      8.718
REMARK  Name = 
REMARK  13 active torsions:
REMARK  status: ('A' for Active; 'I' for Inactive)
REMARK    1  A    between atoms: C_1  and  O_2
REMARK    2  A    between atoms: O_2  and  C_3
REMARK    3  A    between atoms: C_7  and  C_8
REMARK    4  A    between atoms: C_8  and  C_9
REMARK    5  A    between atoms: C_8  and  N_10
REMARK    6  A    between atoms: C_11  and  C_13
REMARK    7  A    between atoms: C_16  and  C_17
REMARK    8  A    between atoms: C_24  and  N_25
REMARK    9  A    between atoms: N_25  and  C_26
REMARK   10  A    between atoms: C_26  and  C_27
REMARK   11  A    between atoms: C_27  and  C_28
REMARK   12  A    between atoms: C_28  and  C_29
REMARK   13  A    between atoms: C_29  and  N_30
REMARK                            x       y       z     vdW  Elec       q    Type
REMARK                         _______ _______ _______ _____ _____    ______ ____
ROOT
ATOM      1  C   UNL     1       2.212   7.819  19.097  0.00  0.00    +0.000 A 
ATOM      2  C   UNL     1       2.852   8.334  17.950  0.00  0.00    +0.000 A 
ATOM      3  C   UNL     1       3.885   7.644  17.317  0.00  0.00    +0.000 A 
ATOM      4  C   UNL     1       4.317   6.406  17.801  0.00  0.00    +0.000 A 
ATOM      5  C   UNL     1       3.661   5.899  18.945  0.00  0.00    +0.000 A 
ATOM      6  C   UNL     1       2.635   6.581  19.639  0.00  0.00    +0.000 A 
ENDROOT
BRANCH   4   7
ATOM      7  C   UNL     1       5.394   5.640  17.138  0.00  0.00    +0.000 A 
ATOM      8  C   UNL     1       5.315   5.233  15.815  0.00  0.00    +0.000 A 
ATOM      9  C   UNL     1       6.370   4.502  15.333  0.00  0.00    +0.000 A 
ATOM     10  N   UNL     1       7.447   4.180  16.068  0.00  0.00    +0.000 NA
ATOM     11  C   UNL     1       7.439   4.631  17.329  0.00  0.00    +0.000 A 
ATOM     12  N   UNL     1       6.467   5.351  17.906  0.00  0.00    +0.000 NA
ENDBRANCH   4   7
BRANCH   1  14
ATOM     13  N   UNL     1       0.558   9.620  18.784  0.00  0.00    +0.000 N 
ATOM     14  C   UNL     1       1.114   8.683  19.631  0.00  0.00    +0.000 C 
ATOM     15  O   UNL     1       0.715   8.512  20.778  0.00  0.00    +0.000 OA
ATOM     16  H   UNL     1       0.971   9.727  17.861  0.00  0.00    +0.000 HD
BRANCH  13  17
ATOM     17  C   UNL     1      -0.552  10.460  19.216  0.00  0.00    +0.000 C 
ATOM     18  C   UNL     1      -1.756  10.347  18.272  0.00  0.00    +0.000 C 
BRANCH  17  23
ATOM     19  C   UNL     1       0.865  13.624  20.882  0.00  0.00    +0.000 A 
ATOM     20  C   UNL     1       0.471  14.597  19.959  0.00  0.00    +0.000 A 
ATOM     21  C   UNL     1      -0.190  14.232  18.791  0.00  0.00    +0.000 A 
ATOM     22  C   UNL     1      -0.490  12.891  18.557  0.00  0.00    +0.000 A 
ATOM     23  C   UNL     1      -0.098  11.890  19.462  0.00  0.00    +0.000 A 
ATOM     24  C   UNL     1       0.628  12.269  20.605  0.00  0.00    +0.000 A 
BRANCH  19  26
ATOM     25  C   UNL     1       2.389  15.155  21.880  0.00  0.00    +0.000 C 
ATOM     26  O   UNL     1       1.414  14.133  22.028  0.00  0.00    +0.000 OA
ENDBRANCH  19  26
ENDBRANCH  17  23
ENDBRANCH  13  17
ENDBRANCH   1  14
BRANCH   6  27
ATOM     27  N   UNL     1       1.999   5.997  20.773  0.00  0.00    +0.000 N 
ATOM     28  H   UNL     1       0.986   6.075  20.628  0.00  0.00    +0.000 HD
BRANCH  27  29
ATOM     29  C   UNL     1       2.348   4.591  21.060  0.00  0.00    +0.000 C 
BRANCH  29  30
ATOM     30  C   UNL     1       1.187   3.626  20.812  0.00  0.00    +0.000 C 
BRANCH  30  31
ATOM     31  C   UNL     1       1.572   2.683  19.662  0.00  0.00    +0.000 C 
BRANCH  31  32
ATOM     32  C   UNL     1       1.203   3.220  18.284  0.00  0.00    +0.000 C 
BRANCH  32  33
ATOM     33  N   UNL     1       2.303   2.966  17.356  0.00  0.00    +0.000 NA
ATOM     34  H   UNL     1       2.847   2.164  17.674  0.00  0.00    +0.000 HD
ATOM     35  H   UNL     1       2.944   3.760  17.360  0.00  0.00    +0.000 HD
ENDBRANCH  32  33
ENDBRANCH  31  32
ENDBRANCH  30  31
ENDBRANCH  29  30
ENDBRANCH  27  29
ENDBRANCH   6  27
TORSDOF 11
ENDMDL
MODEL 6
REMARK VINA RESULT:      -7.5      2.488      8.109
REMARK  Name = 
REMARK  13 active torsions:
REMARK  status: ('A' for Active; 'I' for Inactive)
REMARK    1  A    between atoms: C_1  and  O_2
REMARK    2  A    between atoms: O_2  and  C_3
REMARK    3  A    between atoms: C_7  and  C_8
REMARK    4  A    between atoms: C_8  and  C_9
REMARK    5  A    between atoms: C_8  and  N_10
REMARK    6  A    between atoms: C_11  and  C_13
REMARK    7  A    between atoms: C_16  and  C_17
REMARK    8  A    between atoms: C_24  and  N_25
REMARK    9  A    between atoms: N_25  and  C_26
REMARK   10  A    between atoms: C_26  and  C_27
REMARK   11  A    between atoms: C_27  and  C_28
REMARK   12  A    between atoms: C_28  and  C_29
REMARK   13  A    between atoms: C_29  and  N_30
REMARK                            x       y       z     vdW  Elec       q    Type
REMARK                         _______ _______ _______ _____ _____    ______ ____
ROOT
ATOM      1  C   UNL     1       4.044   5.554  17.976  0.00  0.00    +0.000 A 
ATOM      2  C   UNL     1       4.579   6.582  17.172  0.00  0.00    +0.000 A 
ATOM      3  C   UNL     1       5.230   6.307  15.970  0.00  0.00    +0.000 A 
ATOM      4  C   UNL     1       5.366   4.991  15.519  0.00  0.00    +0.000 A 
ATOM      5  C   UNL     1       4.818   3.972  16.330  0.00  0.00    +0.000 A 
ATOM      6  C   UNL     1       4.182   4.204  17.572  0.00  0.00    +0.000 A 
ENDROOT
BRANCH   4   7
ATOM      7  C   UNL     1       6.031   4.669  14.238  0.00  0.00    +0.000 A 
ATOM      8  C   UNL     1       5.561   3.688  13.378  0.00  0.00    +0.000 A 
ATOM      9  C   UNL     1       6.290   3.469  12.238  0.00  0.00    +0.000 A 
ATOM     10  N   UNL     1       7.403   4.152  11.926  0.00  0.00    +0.000 NA
ATOM     11  C   UNL     1       7.770   5.090  12.810  0.00  0.00    +0.000 A 
ATOM     12  N   UNL     1       7.137   5.390  13.954  0.00  0.00    +0.000 NA
ENDBRANCH   4   7
BRANCH   1  14
ATOM     13  N   UNL     1       2.583   7.168  19.134  0.00  0.00    +0.000 N 
ATOM     14  C   UNL     1       3.364   6.033  19.220  0.00  0.00    +0.000 C 
ATOM     15  O   UNL     1       3.483   5.392  20.258  0.00  0.00    +0.000 OA
ATOM     16  H   UNL     1       2.567   7.664  18.246  0.00  0.00    +0.000 HD
BRANCH  13  17
ATOM     17  C   UNL     1       1.846   7.664  20.289  0.00  0.00    +0.000 C 
ATOM     18  C   UNL     1       0.884   6.610  20.850  0.00  0.00    +0.000 C 
BRANCH  17  23
ATOM     19  C   UNL     1       1.139  11.173  18.882  0.00  0.00    +0.000 A 
ATOM     20  C   UNL     1       0.059  11.557  19.682  0.00  0.00    +0.000 A 
ATOM     21  C   UNL     1      -0.469  10.676  20.620  0.00  0.00    +0.000 A 
ATOM     22  C   UNL     1       0.105   9.417  20.785  0.00  0.00    +0.000 A 
ATOM     23  C   UNL     1       1.185   9.000  19.988  0.00  0.00    +0.000 A 
ATOM     24  C   UNL     1       1.663   9.878  18.999  0.00  0.00    +0.000 A 
BRANCH  19  26
ATOM     25  C   UNL     1       2.492  13.120  18.671  0.00  0.00    +0.000 C 
ATOM     26  O   UNL     1       1.617  12.172  18.076  0.00  0.00    +0.000 OA
ENDBRANCH  19  26
ENDBRANCH  17  23
ENDBRANCH  13  17
ENDBRANCH   1  14
BRANCH   6  27
ATOM     27  N   UNL     1       3.628   3.129  18.327  0.00  0.00    +0.000 N 
ATOM     28  H   UNL     1       3.437   3.485  19.270  0.00  0.00    +0.000 HD
BRANCH  27  29
ATOM     29  C   UNL     1       2.404   2.513  17.776  0.00  0.00    +0.000 C 
BRANCH  29  30
ATOM     30  C   UNL     1       1.502   1.910  18.855  0.00  0.00    +0.000 C 
BRANCH  30  31
ATOM     31  C   UNL     1       0.969   3.048  19.738  0.00  0.00    +0.000 C 
BRANCH  31  32
ATOM     32  C   UNL     1       1.294   2.875  21.217  0.00  0.00    +0.000 C 
BRANCH  32  33
ATOM     33  N   UNL     1       2.729   2.647  21.374  0.00  0.00    +0.000 NA
ATOM     34  H   UNL     1       2.888   1.865  22.009  0.00  0.00    +0.000 HD
ATOM     35  H   UNL     1       3.158   3.460  21.816  0.00  0.00    +0.000 HD
ENDBRANCH  32  33
ENDBRANCH  31  32
ENDBRANCH  30  31
ENDBRANCH  29  30
ENDBRANCH  27  29
ENDBRANCH   6  27
TORSDOF 11
ENDMDL
MODEL 7
REMARK VINA RESULT:      -7.4      2.965      8.918
REMARK  Name = 
REMARK  13 active torsions:
REMARK  status: ('A' for Active; 'I' for Inactive)
REMARK    1  A    between atoms: C_1  and  O_2
REMARK    2  A    between atoms: O_2  and  C_3
REMARK    3  A    between atoms: C_7  and  C_8
REMARK    4  A    between atoms: C_8  and  C_9
REMARK    5  A    between atoms: C_8  and  N_10
REMARK    6  A    between atoms: C_11  and  C_13
REMARK    7  A    between atoms: C_16  and  C_17
REMARK    8  A    between atoms: C_24  and  N_25
REMARK    9  A    between atoms: N_25  and  C_26
REMARK   10  A    between atoms: C_26  and  C_27
REMARK   11  A    between atoms: C_27  and  C_28
REMARK   12  A    between atoms: C_28  and  C_29
REMARK   13  A    between atoms: C_29  and  N_30
REMARK                            x       y       z     vdW  Elec       q    Type
REMARK                         _______ _______ _______ _____ _____    ______ ____
ROOT
ATOM      1  C   UNL     1       2.159   7.875  19.149  0.00  0.00    +0.000 A 
ATOM      2  C   UNL     1       2.727   8.394  17.966  0.00  0.00    +0.000 A 
ATOM      3  C   UNL     1       3.748   7.726  17.290  0.00  0.00    +0.000 A 
ATOM      4  C   UNL     1       4.238   6.506  17.766  0.00  0.00    +0.000 A 
ATOM      5  C   UNL     1       3.654   5.995  18.947  0.00  0.00    +0.000 A 
ATOM      6  C   UNL     1       2.643   6.656  19.682  0.00  0.00    +0.000 A 
ENDROOT
BRANCH   4   7
ATOM      7  C   UNL     1       5.303   5.764  17.060  0.00  0.00    +0.000 A 
ATOM      8  C   UNL     1       6.331   5.114  17.727  0.00  0.00    +0.000 A 
ATOM      9  C   UNL     1       7.272   4.490  16.950  0.00  0.00    +0.000 A 
ATOM     10  N   UNL     1       7.234   4.476  15.607  0.00  0.00    +0.000 NA
ATOM     11  C   UNL     1       6.196   5.116  15.054  0.00  0.00    +0.000 A 
ATOM     12  N   UNL     1       5.220   5.759  15.712  0.00  0.00    +0.000 NA
ENDBRANCH   4   7
BRANCH   1  14
ATOM     13  N   UNL     1       0.483   9.667  18.916  0.00  0.00    +0.000 N 
ATOM     14  C   UNL     1       1.064   8.713  19.727  0.00  0.00    +0.000 C 
ATOM     15  O   UNL     1       0.689   8.508  20.876  0.00  0.00    +0.000 OA
ATOM     16  H   UNL     1       0.877   9.803  17.989  0.00  0.00    +0.000 HD
BRANCH  13  17
ATOM     17  C   UNL     1      -0.626  10.485  19.392  0.00  0.00    +0.000 C 
ATOM     18  C   UNL     1      -1.772  10.543  18.373  0.00  0.00    +0.000 C 
BRANCH  17  23
ATOM     19  C   UNL     1       0.063  13.598  21.543  0.00  0.00    +0.000 A 
ATOM     20  C   UNL     1       0.523  14.486  20.567  0.00  0.00    +0.000 A 
ATOM     21  C   UNL     1       0.665  14.071  19.248  0.00  0.00    +0.000 A 
ATOM     22  C   UNL     1       0.312  12.770  18.892  0.00  0.00    +0.000 A 
ATOM     23  C   UNL     1      -0.145  11.852  19.853  0.00  0.00    +0.000 A 
ATOM     24  C   UNL     1      -0.219  12.269  21.194  0.00  0.00    +0.000 A 
BRANCH  19  26
ATOM     25  C   UNL     1      -1.309  13.827  23.474  0.00  0.00    +0.000 C 
ATOM     26  O   UNL     1      -0.122  14.169  22.774  0.00  0.00    +0.000 OA
ENDBRANCH  19  26
ENDBRANCH  17  23
ENDBRANCH  13  17
ENDBRANCH   1  14
BRANCH   6  27
ATOM     27  N   UNL     1       2.080   6.067  20.853  0.00  0.00    +0.000 N 
ATOM     28  H   UNL     1       1.110   6.393  20.920  0.00  0.00    +0.000 HD
BRANCH  27  29
ATOM     29  C   UNL     1       2.111   4.593  20.916  0.00  0.00    +0.000 C 
BRANCH  29  30
ATOM     30  C   UNL     1       0.922   3.941  20.207  0.00  0.00    +0.000 C 
BRANCH  30  31
ATOM     31  C   UNL     1       1.380   2.598  19.618  0.00  0.00    +0.000 C 
BRANCH  31  32
ATOM     32  C   UNL     1       1.868   2.699  18.178  0.00  0.00    +0.000 C 
BRANCH  32  33
ATOM     33  N   UNL     1       1.233   3.844  17.531  0.00  0.00    +0.000 NA
ATOM     34  H   UNL     1       0.542   3.521  16.854  0.00  0.00    +0.000 HD
ATOM     35  H   UNL     1       1.930   4.363  16.995  0.00  0.00    +0.000 HD
ENDBRANCH  32  33
ENDBRANCH  31  32
ENDBRANCH  30  31
ENDBRANCH  29  30
ENDBRANCH  27  29
ENDBRANCH   6  27
TORSDOF 11
ENDMDL
MODEL 8
REMARK VINA RESULT:      -7.3      1.456      1.955
REMARK  Name = 
REMARK  13 active torsions:
REMARK  status: ('A' for Active; 'I' for Inactive)
REMARK    1  A    between atoms: C_1  and  O_2
REMARK    2  A    between atoms: O_2  and  C_3
REMARK    3  A    between atoms: C_7  and  C_8
REMARK    4  A    between atoms: C_8  and  C_9
REMARK    5  A    between atoms: C_8  and  N_10
REMARK    6  A    between atoms: C_11  and  C_13
REMARK    7  A    between atoms: C_16  and  C_17
REMARK    8  A    between atoms: C_24  and  N_25
REMARK    9  A    between atoms: N_25  and  C_26
REMARK   10  A    between atoms: C_26  and  C_27
REMARK   11  A    between atoms: C_27  and  C_28
REMARK   12  A    between atoms: C_28  and  C_29
REMARK   13  A    between atoms: C_29  and  N_30
REMARK                            x       y       z     vdW  Elec       q    Type
REMARK                         _______ _______ _______ _____ _____    ______ ____
ROOT
ATOM      1  C   UNL     1       3.002   6.961  18.702  0.00  0.00    +0.000 A 
ATOM      2  C   UNL     1       2.958   7.927  17.675  0.00  0.00    +0.000 A 
ATOM      3  C   UNL     1       2.132   9.048  17.760  0.00  0.00    +0.000 A 
ATOM      4  C   UNL     1       1.321   9.251  18.880  0.00  0.00    +0.000 A 
ATOM      5  C   UNL     1       1.382   8.280  19.904  0.00  0.00    +0.000 A 
ATOM      6  C   UNL     1       2.177   7.112  19.842  0.00  0.00    +0.000 A 
ENDROOT
BRANCH   4   7
ATOM      7  C   UNL     1       0.452  10.440  19.009  0.00  0.00    +0.000 A 
ATOM      8  C   UNL     1      -0.737  10.578  18.308  0.00  0.00    +0.000 A 
ATOM      9  C   UNL     1      -1.430  11.745  18.496  0.00  0.00    +0.000 A 
ATOM     10  N   UNL     1      -1.020  12.728  19.313  0.00  0.00    +0.000 NA
ATOM     11  C   UNL     1       0.131  12.498  19.958  0.00  0.00    +0.000 A 
ATOM     12  N   UNL     1       0.891  11.399  19.853  0.00  0.00    +0.000 NA
ENDBRANCH   4   7
BRANCH   1  14
ATOM     13  N   UNL     1       5.289   6.150  18.263  0.00  0.00    +0.000 N 
ATOM     14  C   UNL     1       3.957   5.837  18.452  0.00  0.00    +0.000 C 
ATOM     15  O   UNL     1       3.547   4.682  18.460  0.00  0.00    +0.000 OA
ATOM     16  H   UNL     1       5.543   7.134  18.231  0.00  0.00    +0.000 HD
BRANCH  13  17
ATOM     17  C   UNL     1       6.287   5.106  18.068  0.00  0.00    +0.000 C 
ATOM     18  C   UNL     1       7.619   5.454  18.744  0.00  0.00    +0.000 C 
BRANCH  17  23
ATOM     19  C   UNL     1       7.372   5.084  14.378  0.00  0.00    +0.000 A 
ATOM     20  C   UNL     1       6.431   4.202  13.840  0.00  0.00    +0.000 A 
ATOM     21  C   UNL     1       5.498   3.580  14.663  0.00  0.00    +0.000 A 
ATOM     22  C   UNL     1       5.482   3.865  16.027  0.00  0.00    +0.000 A 
ATOM     23  C   UNL     1       6.422   4.740  16.598  0.00  0.00    +0.000 A 
ATOM     24  C   UNL     1       7.400   5.309  15.762  0.00  0.00    +0.000 A 
BRANCH  19  26
ATOM     25  C   UNL     1       7.842   5.465  12.077  0.00  0.00    +0.000 C 
ATOM     26  O   UNL     1       8.160   5.698  13.441  0.00  0.00    +0.000 OA
ENDBRANCH  19  26
ENDBRANCH  17  23
ENDBRANCH  13  17
ENDBRANCH   1  14
BRANCH   6  27
ATOM     27  N   UNL     1       2.210   6.186  20.926  0.00  0.00    +0.000 N 
ATOM     28  H   UNL     1       1.923   6.695  21.770  0.00  0.00    +0.000 HD
BRANCH  27  29
ATOM     29  C   UNL     1       1.376   4.978  20.773  0.00  0.00    +0.000 C 
BRANCH  29  30
ATOM     30  C   UNL     1       2.034   3.722  21.347  0.00  0.00    +0.000 C 
BRANCH  30  31
ATOM     31  C   UNL     1       1.241   2.494  20.876  0.00  0.00    +0.000 C 
BRANCH  31  32
ATOM     32  C   UNL     1       1.445   2.166  19.401  0.00  0.00    +0.000 C 
BRANCH  32  33
ATOM     33  N   UNL     1       2.873   2.018  19.131  0.00  0.00    +0.000 NA
ATOM     34  H   UNL     1       3.409   2.242  19.969  0.00  0.00    +0.000 HD
ATOM     35  H   UNL     1       3.159   2.696  18.424  0.00  0.00    +0.000 HD
ENDBRANCH  32  33
ENDBRANCH  31  32
ENDBRANCH  30  31
ENDBRANCH  29  30
ENDBRANCH  27  29
ENDBRANCH   6  27
TORSDOF 11
ENDMDL
MODEL 9
REMARK VINA RESULT:      -7.3      2.588      8.320
REMARK  Name = 
REMARK  13 active torsions:
REMARK  status: ('A' for Active; 'I' for Inactive)
REMARK    1  A    between atoms: C_1  and  O_2
REMARK    2  A    between atoms: O_2  and  C_3
REMARK    3  A    between atoms: C_7  and  C_8
REMARK    4  A    between atoms: C_8  and  C_9
REMARK    5  A    between atoms: C_8  and  N_10
REMARK    6  A    between atoms: C_11  and  C_13
REMARK    7  A    between atoms: C_16  and  C_17
REMARK    8  A    between atoms: C_24  and  N_25
REMARK    9  A    between atoms: N_25  and  C_26
REMARK   10  A    between atoms: C_26  and  C_27
REMARK   11  A    between atoms: C_27  and  C_28
REMARK   12  A    between atoms: C_28  and  C_29
REMARK   13  A    between atoms: C_29  and  N_30
REMARK                            x       y       z     vdW  Elec       q    Type
REMARK                         _______ _______ _______ _____ _____    ______ ____
ROOT
ATOM      1  C   UNL     1       4.490   5.410  18.044  0.00  0.00    +0.000 A 
ATOM      2  C   UNL     1       4.446   6.378  17.018  0.00  0.00    +0.000 A 
ATOM      3  C   UNL     1       5.032   6.152  15.773  0.00  0.00    +0.000 A 
ATOM      4  C   UNL     1       5.682   4.945  15.500  0.00  0.00    +0.000 A 
ATOM      5  C   UNL     1       5.710   3.982  16.534  0.00  0.00    +0.000 A 
ATOM      6  C   UNL     1       5.161   4.184  17.822  0.00  0.00    +0.000 A 
ENDROOT
BRANCH   4   7
ATOM      7  C   UNL     1       6.292   4.667  14.184  0.00  0.00    +0.000 A 
ATOM      8  C   UNL     1       5.806   3.693  13.324  0.00  0.00    +0.000 A 
ATOM      9  C   UNL     1       6.485   3.516  12.147  0.00  0.00    +0.000 A 
ATOM     10  N   UNL     1       7.567   4.233  11.800  0.00  0.00    +0.000 NA
ATOM     11  C   UNL     1       7.952   5.160  12.686  0.00  0.00    +0.000 A 
ATOM     12  N   UNL     1       7.367   5.420  13.864  0.00  0.00    +0.000 NA
ENDBRANCH   4   7
BRANCH   1  14
ATOM     13  N   UNL     1       2.828   6.798  19.223  0.00  0.00    +0.000 N 
ATOM     14  C   UNL     1       3.793   5.814  19.304  0.00  0.00    +0.000 C 
ATOM     15  O   UNL     1       4.064   5.242  20.354  0.00  0.00    +0.000 OA
ATOM     16  H   UNL     1       2.690   7.251  18.324  0.00  0.00    +0.000 HD
BRANCH  13  17
ATOM     17  C   UNL     1       2.068   7.206  20.398  0.00  0.00    +0.000 C 
ATOM     18  C   UNL     1       1.109   6.106  20.870  0.00  0.00    +0.000 C 
BRANCH  17  23
ATOM     19  C   UNL     1      -0.050  10.375  20.912  0.00  0.00    +0.000 A 
ATOM     20  C   UNL     1      -0.036  10.905  19.619  0.00  0.00    +0.000 A 
ATOM     21  C   UNL     1       0.693  10.282  18.611  0.00  0.00    +0.000 A 
ATOM     22  C   UNL     1       1.385   9.103  18.887  0.00  0.00    +0.000 A 
ATOM     23  C   UNL     1       1.396   8.553  20.180  0.00  0.00    +0.000 A 
ATOM     24  C   UNL     1       0.709   9.232  21.202  0.00  0.00    +0.000 A 
BRANCH  19  26
ATOM     25  C   UNL     1      -0.982  10.525  23.097  0.00  0.00    +0.000 C 
ATOM     26  O   UNL     1      -0.886  11.034  21.774  0.00  0.00    +0.000 OA
ENDBRANCH  19  26
ENDBRANCH  17  23
ENDBRANCH  13  17
ENDBRANCH   1  14
BRANCH   6  27
ATOM     27  N   UNL     1       5.203   3.156  18.809  0.00  0.00    +0.000 N 
ATOM     28  H   UNL     1       4.944   3.584  19.705  0.00  0.00    +0.000 HD
BRANCH  27  29
ATOM     29  C   UNL     1       4.348   1.979  18.558  0.00  0.00    +0.000 C 
BRANCH  29  30
ATOM     30  C   UNL     1       2.994   2.065  19.266  0.00  0.00    +0.000 C 
BRANCH  30  31
ATOM     31  C   UNL     1       1.900   2.264  18.207  0.00  0.00    +0.000 C 
BRANCH  31  32
ATOM     32  C   UNL     1       1.013   3.476  18.466  0.00  0.00    +0.000 C 
BRANCH  32  33
ATOM     33  N   UNL     1       1.160   4.428  17.367  0.00  0.00    +0.000 NA
ATOM     34  H   UNL     1       1.349   3.928  16.499  0.00  0.00    +0.000 HD
ATOM     35  H   UNL     1       1.976   5.019  17.534  0.00  0.00    +0.000 HD
ENDBRANCH  32  33
ENDBRANCH  31  32
ENDBRANCH  30  31
ENDBRANCH  29  30
ENDBRANCH  27  29
ENDBRANCH   6  27
TORSDOF 11
ENDMDL
