MODEL 1
REMARK VINA RESULT:      -7.5      0.000      0.000
REMARK  Name = 
REMARK  6 active torsions:
REMARK  status: ('A' for Active; 'I' for Inactive)
REMARK    1  A    between atoms: C_2  and  C_3
REMARK    2  A    between atoms: C_3  and  O_4
REMARK    3  A    between atoms: O_4  and  C_5
REMARK    4  A    between atoms: N_15  and  C_16
REMARK    5  A    between atoms: C_16  and  C_17
REMARK    6  A    between atoms: C_17  and  C_18
REMARK                            x       y       z     vdW  Elec       q    Type
REMARK                         _______ _______ _______ _____ _____    ______ ____
ROOT
ATOM      1  O   UNL     1       1.021   4.436  20.651  0.00  0.00    +0.000 OA
ATOM      2  C   UNL     1       1.865   5.265  20.304  0.00  0.00    +0.000 C 
ATOM      3  N   UNL     1       2.726   5.011  19.255  0.00  0.00    +0.000 N 
ATOM      4  C   UNL     1       3.808   5.892  18.799  0.00  0.00    +0.000 C 
ATOM      5  C   UNL     1       5.146   5.128  18.759  0.00  0.00    +0.000 C 
ATOM      6  N   UNL     1       5.115   3.878  17.961  0.00  0.00    +0.000 NA
ATOM      7  C   UNL     1       4.011   3.029  18.483  0.00  0.00    +0.000 C 
ATOM      8  C   UNL     1       2.638   3.730  18.543  0.00  0.00    +0.000 C 
ENDROOT
BRANCH   2   9
ATOM      9  C   UNL     1       1.952   6.600  21.042  0.00  0.00    +0.000 C 
BRANCH   9  10
ATOM     10  O   UNL     1       1.608   7.657  20.159  0.00  0.00    +0.000 OA
BRANCH  10  11
ATOM     11  C   UNL     1       0.959   8.761  20.649  0.00  0.00    +0.000 A 
ATOM     12  C   UNL     1       0.854   8.727  22.053  0.00  0.00    +0.000 A 
ATOM     13  C   UNL     1       0.215   9.747  22.765  0.00  0.00    +0.000 A 
ATOM     14  C   UNL     1      -0.341  10.819  22.082  0.00  0.00    +0.000 A 
ATOM     15  C   UNL     1      -0.267  10.860  20.690  0.00  0.00    +0.000 A 
ATOM     16  C   UNL     1       0.372   9.838  19.969  0.00  0.00    +0.000 A 
ATOM     17 CL   UNL     1       0.294  10.022  18.252  0.00  0.00    +0.000 Cl
ENDBRANCH  10  11
ENDBRANCH   9  10
ENDBRANCH   2   9
BRANCH   6  18
ATOM     18  C   UNL     1       4.946   4.117  16.511  0.00  0.00    +0.000 C 
BRANCH  18  19
ATOM     19  C   UNL     1       5.881   5.194  15.948  0.00  0.00    +0.000 C 
BRANCH  19  20
ATOM     20  C   UNL     1       6.365   4.827  14.573  0.00  0.00    +0.000 A 
ATOM     21  C   UNL     1       5.692   3.873  13.813  0.00  0.00    +0.000 A 
ATOM     22  C   UNL     1       6.180   3.561  12.548  0.00  0.00    +0.000 A 
ATOM     23  C   UNL     1       7.311   4.213  12.073  0.00  0.00    +0.000 A 
ATOM     24  C   UNL     1       7.915   5.154  12.886  0.00  0.00    +0.000 A 
ATOM     25  N   UNL     1       7.464   5.481  14.117  0.00  0.00    +0.000 NA
ENDBRANCH  19  20
ENDBRANCH  18  19
ENDBRANCH   6  18
TORSDOF 6
ENDMDL
MODEL 2
REMARK VINA RESULT:      -7.3      4.172     10.375
REMARK  Name = 
REMARK  6 active torsions:
REMARK  status: ('A' for Active; 'I' for Inactive)
REMARK    1  A    between atoms: C_2  and  C_3
REMARK    2  A    between atoms: C_3  and  O_4
REMARK    3  A    between atoms: O_4  and  C_5
REMARK    4  A    between atoms: N_15  and  C_16
REMARK    5  A    between atoms: C_16  and  C_17
REMARK    6  A    between atoms: C_17  and  C_18
REMARK                            x       y       z     vdW  Elec       q    Type
REMARK                         _______ _______ _______ _____ _____    ______ ____
ROOT
ATOM      1  O   UNL     1       2.373   8.636  17.751  0.00  0.00    +0.000 OA
ATOM      2  C   UNL     1       2.051   8.198  18.858  0.00  0.00    +0.000 C 
ATOM      3  N   UNL     1       1.220   8.916  19.696  0.00  0.00    +0.000 N 
ATOM      4  C   UNL     1       0.825   8.526  21.054  0.00  0.00    +0.000 C 
ATOM      5  C   UNL     1       1.139   9.656  22.053  0.00  0.00    +0.000 C 
ATOM      6  N   UNL     1       0.557  10.972  21.695  0.00  0.00    +0.000 NA
ATOM      7  C   UNL     1       1.008  11.312  20.319  0.00  0.00    +0.000 C 
ATOM      8  C   UNL     1       0.716  10.225  19.263  0.00  0.00    +0.000 C 
ENDROOT
BRANCH   2   9
ATOM      9  C   UNL     1       2.570   6.832  19.304  0.00  0.00    +0.000 C 
BRANCH   9  10
ATOM     10  O   UNL     1       2.814   6.018  18.167  0.00  0.00    +0.000 OA
BRANCH  10  11
ATOM     11  C   UNL     1       2.537   4.677  18.225  0.00  0.00    +0.000 A 
ATOM     12  C   UNL     1       1.492   4.396  19.128  0.00  0.00    +0.000 A 
ATOM     13  C   UNL     1       1.053   3.089  19.356  0.00  0.00    +0.000 A 
ATOM     14  C   UNL     1       1.659   2.033  18.691  0.00  0.00    +0.000 A 
ATOM     15  C   UNL     1       2.710   2.288  17.810  0.00  0.00    +0.000 A 
ATOM     16  C   UNL     1       3.157   3.599  17.577  0.00  0.00    +0.000 A 
ATOM     17 CL   UNL     1       4.517   3.709  16.517  0.00  0.00    +0.000 Cl
ENDBRANCH  10  11
ENDBRANCH   9  10
ENDBRANCH   2   9
BRANCH   6  18
ATOM     18  C   UNL     1      -0.920  10.998  21.779  0.00  0.00    +0.000 C 
BRANCH  18  19
ATOM     19  C   UNL     1      -1.454  11.501  23.126  0.00  0.00    +0.000 C 
BRANCH  19  20
ATOM     20  C   UNL     1      -2.792  12.168  22.963  0.00  0.00    +0.000 A 
ATOM     21  C   UNL     1      -3.136  12.789  21.765  0.00  0.00    +0.000 A 
ATOM     22  C   UNL     1      -4.383  13.397  21.663  0.00  0.00    +0.000 A 
ATOM     23  C   UNL     1      -5.253  13.360  22.746  0.00  0.00    +0.000 A 
ATOM     24  C   UNL     1      -4.838  12.715  23.896  0.00  0.00    +0.000 A 
ATOM     25  N   UNL     1      -3.635  12.112  24.025  0.00  0.00    +0.000 NA
ENDBRANCH  19  20
ENDBRANCH  18  19
ENDBRANCH   6  18
TORSDOF 6
ENDMDL
MODEL 3
REMARK VINA RESULT:      -7.2      5.022      7.260
REMARK  Name = 
REMARK  6 active torsions:
REMARK  status: ('A' for Active; 'I' for Inactive)
REMARK    1  A    between atoms: C_2  and  C_3
REMARK    2  A    between atoms: C_3  and  O_4
REMARK    3  A    between atoms: O_4  and  C_5
REMARK    4  A    between atoms: N_15  and  C_16
REMARK    5  A    between atoms: C_16  and  C_17
REMARK    6  A    between atoms: C_17  and  C_18
REMARK                            x       y       z     vdW  Elec       q    Type
REMARK                         _______ _______ _______ _____ _____    ______ ____
ROOT
ATOM      1  O   UNL     1       8.504   7.169  18.804  0.00  0.00    +0.000 OA
ATOM      2  C   UNL     1       7.584   7.578  18.092  0.00  0.00    +0.000 C 
ATOM      3  N   UNL     1       6.544   6.747  17.724  0.00  0.00    +0.000 N 
ATOM      4  C   UNL     1       5.435   7.104  16.831  0.00  0.00    +0.000 C 
ATOM      5  C   UNL     1       5.321   6.087  15.679  0.00  0.00    +0.000 C 
ATOM      6  N   UNL     1       5.209   4.675  16.116  0.00  0.00    +0.000 NA
ATOM      7  C   UNL     1       6.367   4.377  17.001  0.00  0.00    +0.000 C 
ATOM      8  C   UNL     1       6.536   5.353  18.183  0.00  0.00    +0.000 C 
ENDROOT
BRANCH   2   9
ATOM      9  C   UNL     1       7.590   9.031  17.620  0.00  0.00    +0.000 C 
BRANCH   9  10
ATOM     10  O   UNL     1       8.888   9.582  17.785  0.00  0.00    +0.000 OA
BRANCH  10  11
ATOM     11  C   UNL     1       9.049  10.715  18.539  0.00  0.00    +0.000 A 
ATOM     12  C   UNL     1       9.684  10.443  19.767  0.00  0.00    +0.000 A 
ATOM     13  C   UNL     1       9.937  11.452  20.701  0.00  0.00    +0.000 A 
ATOM     14  C   UNL     1       9.549  12.755  20.428  0.00  0.00    +0.000 A 
ATOM     15  C   UNL     1       8.899  13.043  19.227  0.00  0.00    +0.000 A 
ATOM     16  C   UNL     1       8.641  12.033  18.285  0.00  0.00    +0.000 A 
ATOM     17 CL   UNL     1       7.759  12.564  16.897  0.00  0.00    +0.000 Cl
ENDBRANCH  10  11
ENDBRANCH   9  10
ENDBRANCH   2   9
BRANCH   6  18
ATOM     18  C   UNL     1       3.936   4.378  16.808  0.00  0.00    +0.000 C 
BRANCH  18  19
ATOM     19  C   UNL     1       3.988   3.121  17.685  0.00  0.00    +0.000 C 
BRANCH  19  20
ATOM     20  C   UNL     1       3.098   3.264  18.889  0.00  0.00    +0.000 A 
ATOM     21  C   UNL     1       2.190   2.262  19.225  0.00  0.00    +0.000 A 
ATOM     22  C   UNL     1       1.384   2.440  20.345  0.00  0.00    +0.000 A 
ATOM     23  C   UNL     1       1.512   3.598  21.102  0.00  0.00    +0.000 A 
ATOM     24  C   UNL     1       2.444   4.540  20.706  0.00  0.00    +0.000 A 
ATOM     25  N   UNL     1       3.243   4.394  19.626  0.00  0.00    +0.000 NA
ENDBRANCH  19  20
ENDBRANCH  18  19
ENDBRANCH   6  18
TORSDOF 6
ENDMDL
MODEL 4
REMARK VINA RESULT:      -7.2      4.580     10.111
REMARK  Name = 
REMARK  6 active torsions:
REMARK  status: ('A' for Active; 'I' for Inactive)
REMARK    1  A    between atoms: C_2  and  C_3
REMARK    2  A    between atoms: C_3  and  O_4
REMARK    3  A    between atoms: O_4  and  C_5
REMARK    4  A    between atoms: N_15  and  C_16
REMARK    5  A    between atoms: C_16  and  C_17
REMARK    6  A    between atoms: C_17  and  C_18
REMARK                            x       y       z     vdW  Elec       q    Type
REMARK                         _______ _______ _______ _____ _____    ______ ____
ROOT
ATOM      1  O   UNL     1       2.460   8.631  17.363  0.00  0.00    +0.000 OA
ATOM      2  C   UNL     1       2.244   8.228  18.508  0.00  0.00    +0.000 C 
ATOM      3  N   UNL     1       1.417   8.925  19.367  0.00  0.00    +0.000 N 
ATOM      4  C   UNL     1       1.141   8.577  20.765  0.00  0.00    +0.000 C 
ATOM      5  C   UNL     1       1.433   9.776  21.688  0.00  0.00    +0.000 C 
ATOM      6  N   UNL     1       0.731  11.026  21.311  0.00  0.00    +0.000 NA
ATOM      7  C   UNL     1       1.066  11.328  19.893  0.00  0.00    +0.000 C 
ATOM      8  C   UNL     1       0.789  10.171  18.910  0.00  0.00    +0.000 C 
ENDROOT
BRANCH   2   9
ATOM      9  C   UNL     1       2.893   6.927  18.980  0.00  0.00    +0.000 C 
BRANCH   9  10
ATOM     10  O   UNL     1       2.312   5.827  18.295  0.00  0.00    +0.000 OA
BRANCH  10  11
ATOM     11  C   UNL     1       2.089   4.655  18.970  0.00  0.00    +0.000 A 
ATOM     12  C   UNL     1       1.782   4.880  20.326  0.00  0.00    +0.000 A 
ATOM     13  C   UNL     1       1.532   3.824  21.207  0.00  0.00    +0.000 A 
ATOM     14  C   UNL     1       1.594   2.516  20.748  0.00  0.00    +0.000 A 
ATOM     15  C   UNL     1       1.918   2.270  19.413  0.00  0.00    +0.000 A 
ATOM     16  C   UNL     1       2.172   3.328  18.524  0.00  0.00    +0.000 A 
ATOM     17 CL   UNL     1       2.633   2.827  16.935  0.00  0.00    +0.000 Cl
ENDBRANCH  10  11
ENDBRANCH   9  10
ENDBRANCH   2   9
BRANCH   6  18
ATOM     18  C   UNL     1      -0.735  10.950  21.494  0.00  0.00    +0.000 C 
BRANCH  18  19
ATOM     19  C   UNL     1      -1.177  10.968  22.962  0.00  0.00    +0.000 C 
BRANCH  19  20
ATOM     20  C   UNL     1      -1.740  12.310  23.342  0.00  0.00    +0.000 A 
ATOM     21  C   UNL     1      -3.094  12.457  23.632  0.00  0.00    +0.000 A 
ATOM     22  C   UNL     1      -3.571  13.719  23.973  0.00  0.00    +0.000 A 
ATOM     23  C   UNL     1      -2.689  14.791  24.027  0.00  0.00    +0.000 A 
ATOM     24  C   UNL     1      -1.357  14.559  23.733  0.00  0.00    +0.000 A 
ATOM     25  N   UNL     1      -0.864  13.346  23.402  0.00  0.00    +0.000 NA
ENDBRANCH  19  20
ENDBRANCH  18  19
ENDBRANCH   6  18
TORSDOF 6
ENDMDL
MODEL 5
REMARK VINA RESULT:      -7.1      3.913     10.469
REMARK  Name = 
REMARK  6 active torsions:
REMARK  status: ('A' for Active; 'I' for Inactive)
REMARK    1  A    between atoms: C_2  and  C_3
REMARK    2  A    between atoms: C_3  and  O_4
REMARK    3  A    between atoms: O_4  and  C_5
REMARK    4  A    between atoms: N_15  and  C_16
REMARK    5  A    between atoms: C_16  and  C_17
REMARK    6  A    between atoms: C_17  and  C_18
REMARK                            x       y       z     vdW  Elec       q    Type
REMARK                         _______ _______ _______ _____ _____    ______ ____
ROOT
ATOM      1  O   UNL     1       2.308   8.683  17.847  0.00  0.00    +0.000 OA
ATOM      2  C   UNL     1       2.070   8.146  18.931  0.00  0.00    +0.000 C 
ATOM      3  N   UNL     1       1.286   8.771  19.880  0.00  0.00    +0.000 N 
ATOM      4  C   UNL     1       0.992   8.259  21.224  0.00  0.00    +0.000 C 
ATOM      5  C   UNL     1       1.353   9.308  22.293  0.00  0.00    +0.000 C 
ATOM      6  N   UNL     1       0.724  10.635  22.088  0.00  0.00    +0.000 NA
ATOM      7  C   UNL     1       1.074  11.101  20.719  0.00  0.00    +0.000 C 
ATOM      8  C   UNL     1       0.730  10.100  19.596  0.00  0.00    +0.000 C 
ENDROOT
BRANCH   2   9
ATOM      9  C   UNL     1       2.643   6.760  19.223  0.00  0.00    +0.000 C 
BRANCH   9  10
ATOM     10  O   UNL     1       2.292   5.867  18.176  0.00  0.00    +0.000 OA
BRANCH  10  11
ATOM     11  C   UNL     1       2.519   4.524  18.331  0.00  0.00    +0.000 A 
ATOM     12  C   UNL     1       3.448   4.037  17.390  0.00  0.00    +0.000 A 
ATOM     13  C   UNL     1       3.818   2.690  17.356  0.00  0.00    +0.000 A 
ATOM     14  C   UNL     1       3.259   1.799  18.260  0.00  0.00    +0.000 A 
ATOM     15  C   UNL     1       2.321   2.256  19.186  0.00  0.00    +0.000 A 
ATOM     16  C   UNL     1       1.943   3.609  19.225  0.00  0.00    +0.000 A 
ATOM     17 CL   UNL     1       0.714   3.972  20.384  0.00  0.00    +0.000 Cl
ENDBRANCH  10  11
ENDBRANCH   9  10
ENDBRANCH   2   9
BRANCH   6  18
ATOM     18  C   UNL     1      -0.743  10.619  22.272  0.00  0.00    +0.000 C 
BRANCH  18  19
ATOM     19  C   UNL     1      -1.447  11.872  21.737  0.00  0.00    +0.000 C 
BRANCH  19  20
ATOM     20  C   UNL     1      -2.176  12.596  22.836  0.00  0.00    +0.000 A 
ATOM     21  C   UNL     1      -1.701  13.811  23.323  0.00  0.00    +0.000 A 
ATOM     22  C   UNL     1      -2.405  14.442  24.344  0.00  0.00    +0.000 A 
ATOM     23  C   UNL     1      -3.562  13.854  24.840  0.00  0.00    +0.000 A 
ATOM     24  C   UNL     1      -3.970  12.650  24.295  0.00  0.00    +0.000 A 
ATOM     25  N   UNL     1      -3.311  12.015  23.302  0.00  0.00    +0.000 NA
ENDBRANCH  19  20
ENDBRANCH  18  19
ENDBRANCH   6  18
TORSDOF 6
ENDMDL
MODEL 6
REMARK VINA RESULT:      -7.1      5.485      7.696
REMARK  Name = 
REMARK  6 active torsions:
REMARK  status: ('A' for Active; 'I' for Inactive)
REMARK    1  A    between atoms: C_2  and  C_3
REMARK    2  A    between atoms: C_3  and  O_4
REMARK    3  A    between atoms: O_4  and  C_5
REMARK    4  A    between atoms: N_15  and  C_16
REMARK    5  A    between atoms: C_16  and  C_17
REMARK    6  A    between atoms: C_17  and  C_18
REMARK                            x       y       z     vdW  Elec       q    Type
REMARK                         _______ _______ _______ _____ _____    ______ ____
ROOT
ATOM      1  O   UNL     1       7.344   9.551  17.130  0.00  0.00    +0.000 OA
ATOM      2  C   UNL     1       7.816   8.662  17.842  0.00  0.00    +0.000 C 
ATOM      3  N   UNL     1       7.314   7.376  17.805  0.00  0.00    +0.000 N 
ATOM      4  C   UNL     1       7.751   6.259  18.650  0.00  0.00    +0.000 C 
ATOM      5  C   UNL     1       6.547   5.628  19.377  0.00  0.00    +0.000 C 
ATOM      6  N   UNL     1       5.441   5.208  18.483  0.00  0.00    +0.000 NA
ATOM      7  C   UNL     1       5.038   6.387  17.669  0.00  0.00    +0.000 C 
ATOM      8  C   UNL     1       6.196   7.063  16.906  0.00  0.00    +0.000 C 
ENDROOT
BRANCH   2   9
ATOM      9  C   UNL     1       8.983   8.987  18.772  0.00  0.00    +0.000 C 
BRANCH   9  10
ATOM     10  O   UNL     1       8.885  10.335  19.210  0.00  0.00    +0.000 OA
BRANCH  10  11
ATOM     11  C   UNL     1       9.705  11.284  18.657  0.00  0.00    +0.000 A 
ATOM     12  C   UNL     1      11.035  11.153  19.104  0.00  0.00    +0.000 A 
ATOM     13  C   UNL     1      12.040  12.025  18.679  0.00  0.00    +0.000 A 
ATOM     14  C   UNL     1      11.733  13.056  17.803  0.00  0.00    +0.000 A 
ATOM     15  C   UNL     1      10.418  13.216  17.365  0.00  0.00    +0.000 A 
ATOM     16  C   UNL     1       9.402  12.344  17.790  0.00  0.00    +0.000 A 
ATOM     17 CL   UNL     1       7.826  12.747  17.206  0.00  0.00    +0.000 Cl
ENDBRANCH  10  11
ENDBRANCH   9  10
ENDBRANCH   2   9
BRANCH   6  18
ATOM     18  C   UNL     1       5.800   4.071  17.608  0.00  0.00    +0.000 C 
BRANCH  18  19
ATOM     19  C   UNL     1       4.655   3.604  16.700  0.00  0.00    +0.000 C 
BRANCH  19  20
ATOM     20  C   UNL     1       3.440   3.235  17.507  0.00  0.00    +0.000 A 
ATOM     21  C   UNL     1       3.431   2.085  18.293  0.00  0.00    +0.000 A 
ATOM     22  C   UNL     1       2.283   1.781  19.018  0.00  0.00    +0.000 A 
ATOM     23  C   UNL     1       1.187   2.632  18.950  0.00  0.00    +0.000 A 
ATOM     24  C   UNL     1       1.281   3.759  18.154  0.00  0.00    +0.000 A 
ATOM     25  N   UNL     1       2.382   4.082  17.441  0.00  0.00    +0.000 NA
ENDBRANCH  19  20
ENDBRANCH  18  19
ENDBRANCH   6  18
TORSDOF 6
ENDMDL
MODEL 7
REMARK VINA RESULT:      -7.0      4.007     10.442
REMARK  Name = 
REMARK  6 active torsions:
REMARK  status: ('A' for Active; 'I' for Inactive)
REMARK    1  A    between atoms: C_2  and  C_3
REMARK    2  A    between atoms: C_3  and  O_4
REMARK    3  A    between atoms: O_4  and  C_5
REMARK    4  A    between atoms: N_15  and  C_16
REMARK    5  A    between atoms: C_16  and  C_17
REMARK    6  A    between atoms: C_17  and  C_18
REMARK                            x       y       z     vdW  Elec       q    Type
REMARK                         _______ _______ _______ _____ _____    ______ ____
ROOT
ATOM      1  O   UNL     1       2.376   8.925  17.488  0.00  0.00    +0.000 OA
ATOM      2  C   UNL     1       2.009   8.422  18.553  0.00  0.00    +0.000 C 
ATOM      3  N   UNL     1       1.200   9.119  19.430  0.00  0.00    +0.000 N 
ATOM      4  C   UNL     1       0.758   8.649  20.747  0.00  0.00    +0.000 C 
ATOM      5  C   UNL     1       1.111   9.682  21.835  0.00  0.00    +0.000 C 
ATOM      6  N   UNL     1       0.606  11.050  21.570  0.00  0.00    +0.000 NA
ATOM      7  C   UNL     1       1.102  11.469  20.231  0.00  0.00    +0.000 C 
ATOM      8  C   UNL     1       0.775  10.482  19.090  0.00  0.00    +0.000 C 
ENDROOT
BRANCH   2   9
ATOM      9  C   UNL     1       2.446   7.001  18.901  0.00  0.00    +0.000 C 
BRANCH   9  10
ATOM     10  O   UNL     1       2.061   6.113  17.862  0.00  0.00    +0.000 OA
BRANCH  10  11
ATOM     11  C   UNL     1       2.421   4.793  17.935  0.00  0.00    +0.000 A 
ATOM     12  C   UNL     1       1.479   4.031  18.655  0.00  0.00    +0.000 A 
ATOM     13  C   UNL     1       1.651   2.660  18.866  0.00  0.00    +0.000 A 
ATOM     14  C   UNL     1       2.778   2.024  18.367  0.00  0.00    +0.000 A 
ATOM     15  C   UNL     1       3.734   2.763  17.671  0.00  0.00    +0.000 A 
ATOM     16  C   UNL     1       3.568   4.142  17.457  0.00  0.00    +0.000 A 
ATOM     17 CL   UNL     1       4.891   4.902  16.645  0.00  0.00    +0.000 Cl
ENDBRANCH  10  11
ENDBRANCH   9  10
ENDBRANCH   2   9
BRANCH   6  18
ATOM     18  C   UNL     1      -0.869  11.150  21.631  0.00  0.00    +0.000 C 
BRANCH  18  19
ATOM     19  C   UNL     1      -1.421  11.268  23.057  0.00  0.00    +0.000 C 
BRANCH  19  20
ATOM     20  C   UNL     1      -2.487  12.326  23.139  0.00  0.00    +0.000 A 
ATOM     21  C   UNL     1      -3.546  12.200  24.035  0.00  0.00    +0.000 A 
ATOM     22  C   UNL     1      -4.511  13.202  24.073  0.00  0.00    +0.000 A 
ATOM     23  C   UNL     1      -4.390  14.299  23.230  0.00  0.00    +0.000 A 
ATOM     24  C   UNL     1      -3.303  14.352  22.376  0.00  0.00    +0.000 A 
ATOM     25  N   UNL     1      -2.348  13.398  22.319  0.00  0.00    +0.000 NA
ENDBRANCH  19  20
ENDBRANCH  18  19
ENDBRANCH   6  18
TORSDOF 6
ENDMDL
MODEL 8
REMARK VINA RESULT:      -7.0      5.172      7.540
REMARK  Name = 
REMARK  6 active torsions:
REMARK  status: ('A' for Active; 'I' for Inactive)
REMARK    1  A    between atoms: C_2  and  C_3
REMARK    2  A    between atoms: C_3  and  O_4
REMARK    3  A    between atoms: O_4  and  C_5
REMARK    4  A    between atoms: N_15  and  C_16
REMARK    5  A    between atoms: C_16  and  C_17
REMARK    6  A    between atoms: C_17  and  C_18
REMARK                            x       y       z     vdW  Elec       q    Type
REMARK                         _______ _______ _______ _____ _____    ______ ____
ROOT
ATOM      1  O   UNL     1       8.710   6.538  19.250  0.00  0.00    +0.000 OA
ATOM      2  C   UNL     1       7.930   7.151  18.517  0.00  0.00    +0.000 C 
ATOM      3  N   UNL     1       6.779   6.555  18.042  0.00  0.00    +0.000 N 
ATOM      4  C   UNL     1       5.817   7.163  17.115  0.00  0.00    +0.000 C 
ATOM      5  C   UNL     1       5.588   6.248  15.897  0.00  0.00    +0.000 C 
ATOM      6  N   UNL     1       5.185   4.862  16.237  0.00  0.00    +0.000 NA
ATOM      7  C   UNL     1       6.208   4.302  17.162  0.00  0.00    +0.000 C 
ATOM      8  C   UNL     1       6.480   5.166  18.411  0.00  0.00    +0.000 C 
ENDROOT
BRANCH   2   9
ATOM      9  C   UNL     1       8.239   8.599  18.139  0.00  0.00    +0.000 C 
BRANCH   9  10
ATOM     10  O   UNL     1       9.010   9.207  19.164  0.00  0.00    +0.000 OA
BRANCH  10  11
ATOM     11  C   UNL     1       9.292  10.547  19.091  0.00  0.00    +0.000 A 
ATOM     12  C   UNL     1       9.727  10.922  17.804  0.00  0.00    +0.000 A 
ATOM     13  C   UNL     1      10.082  12.241  17.506  0.00  0.00    +0.000 A 
ATOM     14  C   UNL     1      10.018  13.211  18.495  0.00  0.00    +0.000 A 
ATOM     15  C   UNL     1       9.610  12.856  19.781  0.00  0.00    +0.000 A 
ATOM     16  C   UNL     1       9.253  11.533  20.088  0.00  0.00    +0.000 A 
ATOM     17 CL   UNL     1       8.852  11.269  21.748  0.00  0.00    +0.000 Cl
ENDBRANCH  10  11
ENDBRANCH   9  10
ENDBRANCH   2   9
BRANCH   6  18
ATOM     18  C   UNL     1       3.838   4.778  16.840  0.00  0.00    +0.000 C 
BRANCH  18  19
ATOM     19  C   UNL     1       3.475   3.378  17.352  0.00  0.00    +0.000 C 
BRANCH  19  20
ATOM     20  C   UNL     1       2.737   3.454  18.660  0.00  0.00    +0.000 A 
ATOM     21  C   UNL     1       1.741   2.531  18.969  0.00  0.00    +0.000 A 
ATOM     22  C   UNL     1       1.082   2.643  20.188  0.00  0.00    +0.000 A 
ATOM     23  C   UNL     1       1.438   3.659  21.067  0.00  0.00    +0.000 A 
ATOM     24  C   UNL     1       2.444   4.529  20.688  0.00  0.00    +0.000 A 
ATOM     25  N   UNL     1       3.104   4.444  19.513  0.00  0.00    +0.000 NA
ENDBRANCH  19  20
ENDBRANCH  18  19
ENDBRANCH   6  18
TORSDOF 6
ENDMDL
MODEL 9
REMARK VINA RESULT:      -7.0      2.475      3.510
REMARK  Name = 
REMARK  6 active torsions:
REMARK  status: ('A' for Active; 'I' for Inactive)
REMARK    1  A    between atoms: C_2  and  C_3
REMARK    2  A    between atoms: C_3  and  O_4
REMARK    3  A    between atoms: O_4  and  C_5
REMARK    4  A    between atoms: N_15  and  C_16
REMARK    5  A    between atoms: C_16  and  C_17
REMARK    6  A    between atoms: C_17  and  C_18
REMARK                            x       y       z     vdW  Elec       q    Type
REMARK                         _______ _______ _______ _____ _____    ______ ____
ROOT
ATOM      1  O   UNL     1       1.722   8.795  19.087  0.00  0.00    +0.000 OA
ATOM      2  C   UNL     1       1.655   7.948  19.981  0.00  0.00    +0.000 C 
ATOM      3  N   UNL     1       2.104   6.658  19.778  0.00  0.00    +0.000 N 
ATOM      4  C   UNL     1       2.014   5.556  20.743  0.00  0.00    +0.000 C 
ATOM      5  C   UNL     1       1.316   4.338  20.107  0.00  0.00    +0.000 C 
ATOM      6  N   UNL     1       1.925   3.875  18.837  0.00  0.00    +0.000 NA
ATOM      7  C   UNL     1       1.971   5.032  17.903  0.00  0.00    +0.000 C 
ATOM      8  C   UNL     1       2.665   6.287  18.473  0.00  0.00    +0.000 C 
ENDROOT
BRANCH   2   9
ATOM      9  C   UNL     1       1.077   8.338  21.340  0.00  0.00    +0.000 C 
BRANCH   9  10
ATOM     10  O   UNL     1       1.427   9.681  21.642  0.00  0.00    +0.000 OA
BRANCH  10  11
ATOM     11  C   UNL     1       0.437  10.612  21.823  0.00  0.00    +0.000 A 
ATOM     12  C   UNL     1      -0.437  10.252  22.867  0.00  0.00    +0.000 A 
ATOM     13  C   UNL     1      -1.529  11.051  23.216  0.00  0.00    +0.000 A 
ATOM     14  C   UNL     1      -1.774  12.225  22.519  0.00  0.00    +0.000 A 
ATOM     15  C   UNL     1      -0.934  12.588  21.467  0.00  0.00    +0.000 A 
ATOM     16  C   UNL     1       0.165  11.789  21.110  0.00  0.00    +0.000 A 
ATOM     17 CL   UNL     1       1.044  12.359  19.735  0.00  0.00    +0.000 Cl
ENDBRANCH  10  11
ENDBRANCH   9  10
ENDBRANCH   2   9
BRANCH   6  18
ATOM     18  C   UNL     1       3.275   3.297  19.014  0.00  0.00    +0.000 C 
BRANCH  18  19
ATOM     19  C   UNL     1       4.126   3.311  17.738  0.00  0.00    +0.000 C 
BRANCH  19  20
ATOM     20  C   UNL     1       5.372   4.132  17.928  0.00  0.00    +0.000 A 
ATOM     21  C   UNL     1       5.648   4.733  19.153  0.00  0.00    +0.000 A 
ATOM     22  C   UNL     1       6.811   5.487  19.280  0.00  0.00    +0.000 A 
ATOM     23  C   UNL     1       7.667   5.611  18.193  0.00  0.00    +0.000 A 
ATOM     24  C   UNL     1       7.324   4.974  17.014  0.00  0.00    +0.000 A 
ATOM     25  N   UNL     1       6.205   4.233  16.860  0.00  0.00    +0.000 NA
ENDBRANCH  19  20
ENDBRANCH  18  19
ENDBRANCH   6  18
TORSDOF 6
ENDMDL
