MODEL 1
REMARK VINA RESULT:      -9.2      0.000      0.000
REMARK  Name = 
REMARK  5 active torsions:
REMARK  status: ('A' for Active; 'I' for Inactive)
REMARK    1  A    between atoms: C_1  and  C_2
REMARK    2  A    between atoms: C_2  and  C_3
REMARK    3  A    between atoms: C_3  and  O_4
REMARK    4  A    between atoms: C_22  and  C_23
REMARK    5  A    between atoms: C_23  and  O_25
REMARK                            x       y       z     vdW  Elec       q    Type
REMARK                         _______ _______ _______ _____ _____    ______ ____
ROOT
ATOM      1  C   UNL     1       5.501   4.867  15.313  0.00  0.00    +0.000 C 
ATOM      2  C   UNL     1       7.083   4.886  15.444  0.00  0.00    +0.000 C 
ATOM      3  O   UNL     1       7.871   5.506  14.743  0.00  0.00    +0.000 OA
ATOM      4  O   UNL     1       7.476   4.347  16.618  0.00  0.00    +0.000 OA
ATOM      5  C   UNL     1       7.355   5.438  17.496  0.00  0.00    +0.000 C 
ATOM      6  C   UNL     1       5.942   5.949  17.494  0.00  0.00    +0.000 A 
ATOM      7  C   UNL     1       5.107   6.035  16.391  0.00  0.00    +0.000 A 
ATOM      8  C   UNL     1       3.823   6.861  16.720  0.00  0.00    +0.000 A 
ATOM      9  C   UNL     1       3.369   6.985  18.019  0.00  0.00    +0.000 A 
ATOM     10  N   UNL     1       3.988   6.106  18.895  0.00  0.00    +0.000 N 
ATOM     11  C   UNL     1       5.233   5.605  18.755  0.00  0.00    +0.000 A 
ATOM     12  O   UNL     1       5.758   4.886  19.602  0.00  0.00    +0.000 OA
ATOM     13  C   UNL     1       3.196   5.764  20.046  0.00  0.00    +0.000 C 
ATOM     14  C   UNL     1       2.208   6.860  20.066  0.00  0.00    +0.000 A 
ATOM     15  C   UNL     1       1.389   7.127  21.140  0.00  0.00    +0.000 A 
ATOM     16  C   UNL     1       0.751   8.346  21.199  0.00  0.00    +0.000 A 
ATOM     17  C   UNL     1      -0.040   8.584  22.344  0.00  0.00    +0.000 A 
ATOM     18  C   UNL     1      -0.612   9.811  22.574  0.00  0.00    +0.000 A 
ATOM     19  C   UNL     1      -0.309  10.851  21.702  0.00  0.00    +0.000 A 
ATOM     20  C   UNL     1       0.485  10.594  20.530  0.00  0.00    +0.000 A 
ATOM     21  C   UNL     1       1.021   9.307  20.186  0.00  0.00    +0.000 A 
ATOM     22  N   UNL     1       1.780   8.949  19.027  0.00  0.00    +0.000 NA
ATOM     23  C   UNL     1       2.315   7.689  18.952  0.00  0.00    +0.000 A 
ENDROOT
BRANCH   1  25
ATOM     24  C   UNL     1       6.297   3.443  13.041  0.00  0.00    +0.000 C 
ATOM     25  C   UNL     1       5.338   4.406  13.781  0.00  0.00    +0.000 C 
ENDBRANCH   1  25
BRANCH   1  26
ATOM     26  O   UNL     1       4.802   3.774  15.990  0.00  0.00    +0.000 OA
ATOM     27  H   UNL     1       5.209   3.599  16.854  0.00  0.00    +0.000 HD
ENDBRANCH   1  26
BRANCH  19  28
ATOM     28  C   UNL     1      -0.812  12.190  22.156  0.00  0.00    +0.000 C 
ATOM     29  O   UNL     1      -1.060  12.437  23.331  0.00  0.00    +0.000 OA
BRANCH  28  30
ATOM     30  O   UNL     1      -1.023  13.085  21.175  0.00  0.00    +0.000 OA
ATOM     31  H   UNL     1      -0.238  13.365  20.678  0.00  0.00    +0.000 HD
ENDBRANCH  28  30
ENDBRANCH  19  28
TORSDOF 4
ENDMDL
MODEL 2
REMARK VINA RESULT:      -8.3      2.337      9.873
REMARK  Name = 
REMARK  5 active torsions:
REMARK  status: ('A' for Active; 'I' for Inactive)
REMARK    1  A    between atoms: C_1  and  C_2
REMARK    2  A    between atoms: C_2  and  C_3
REMARK    3  A    between atoms: C_3  and  O_4
REMARK    4  A    between atoms: C_22  and  C_23
REMARK    5  A    between atoms: C_23  and  O_25
REMARK                            x       y       z     vdW  Elec       q    Type
REMARK                         _______ _______ _______ _____ _____    ______ ____
ROOT
ATOM      1  C   UNL     1      -2.051  12.902  22.214  0.00  0.00    +0.000 C 
ATOM      2  C   UNL     1      -1.393  14.197  22.855  0.00  0.00    +0.000 C 
ATOM      3  O   UNL     1      -1.289  14.454  24.047  0.00  0.00    +0.000 OA
ATOM      4  O   UNL     1      -0.687  14.885  21.933  0.00  0.00    +0.000 OA
ATOM      5  C   UNL     1       0.547  14.210  21.943  0.00  0.00    +0.000 C 
ATOM      6  C   UNL     1       0.344  12.759  21.608  0.00  0.00    +0.000 A 
ATOM      7  C   UNL     1      -0.720  11.970  22.013  0.00  0.00    +0.000 A 
ATOM      8  C   UNL     1      -0.452  10.462  21.704  0.00  0.00    +0.000 A 
ATOM      9  C   UNL     1       0.429  10.085  20.709  0.00  0.00    +0.000 A 
ATOM     10  N   UNL     1       0.798  11.139  19.885  0.00  0.00    +0.000 N 
ATOM     11  C   UNL     1       0.842  12.438  20.244  0.00  0.00    +0.000 A 
ATOM     12  O   UNL     1       1.248  13.321  19.493  0.00  0.00    +0.000 OA
ATOM     13  C   UNL     1       1.187  10.741  18.558  0.00  0.00    +0.000 C 
ATOM     14  C   UNL     1       1.481   9.308  18.749  0.00  0.00    +0.000 A 
ATOM     15  C   UNL     1       2.149   8.539  17.822  0.00  0.00    +0.000 A 
ATOM     16  C   UNL     1       2.664   7.324  18.219  0.00  0.00    +0.000 A 
ATOM     17  C   UNL     1       3.378   6.598  17.240  0.00  0.00    +0.000 A 
ATOM     18  C   UNL     1       4.048   5.442  17.558  0.00  0.00    +0.000 A 
ATOM     19  C   UNL     1       4.094   5.054  18.893  0.00  0.00    +0.000 A 
ATOM     20  C   UNL     1       3.350   5.792  19.878  0.00  0.00    +0.000 A 
ATOM     21  C   UNL     1       2.549   6.947  19.585  0.00  0.00    +0.000 A 
ATOM     22  N   UNL     1       1.745   7.715  20.486  0.00  0.00    +0.000 NA
ATOM     23  C   UNL     1       1.159   8.867  20.030  0.00  0.00    +0.000 A 
ENDROOT
BRANCH   1  25
ATOM     24  C   UNL     1      -3.904  12.247  24.204  0.00  0.00    +0.000 C 
ATOM     25  C   UNL     1      -3.512  12.953  22.884  0.00  0.00    +0.000 C 
ENDBRANCH   1  25
BRANCH   1  26
ATOM     26  O   UNL     1      -2.410  12.985  20.798  0.00  0.00    +0.000 OA
ATOM     27  H   UNL     1      -2.877  13.816  20.617  0.00  0.00    +0.000 HD
ENDBRANCH   1  26
BRANCH  19  28
ATOM     28  C   UNL     1       5.018   3.903  19.159  0.00  0.00    +0.000 C 
ATOM     29  O   UNL     1       4.684   2.930  19.826  0.00  0.00    +0.000 OA
BRANCH  28  30
ATOM     30  O   UNL     1       6.259   4.037  18.658  0.00  0.00    +0.000 OA
ATOM     31  H   UNL     1       6.920   3.406  18.983  0.00  0.00    +0.000 HD
ENDBRANCH  28  30
ENDBRANCH  19  28
TORSDOF 4
ENDMDL
MODEL 3
REMARK VINA RESULT:      -8.1      2.670      9.567
REMARK  Name = 
REMARK  5 active torsions:
REMARK  status: ('A' for Active; 'I' for Inactive)
REMARK    1  A    between atoms: C_1  and  C_2
REMARK    2  A    between atoms: C_2  and  C_3
REMARK    3  A    between atoms: C_3  and  O_4
REMARK    4  A    between atoms: C_22  and  C_23
REMARK    5  A    between atoms: C_23  and  O_25
REMARK                            x       y       z     vdW  Elec       q    Type
REMARK                         _______ _______ _______ _____ _____    ______ ____
ROOT
ATOM      1  C   UNL     1      -1.551  13.534  21.037  0.00  0.00    +0.000 C 
ATOM      2  C   UNL     1      -0.813  14.736  21.766  0.00  0.00    +0.000 C 
ATOM      3  O   UNL     1      -0.903  15.046  22.947  0.00  0.00    +0.000 OA
ATOM      4  O   UNL     1       0.172  15.238  20.991  0.00  0.00    +0.000 OA
ATOM      5  C   UNL     1       1.239  14.367  21.272  0.00  0.00    +0.000 C 
ATOM      6  C   UNL     1       0.852  12.953  20.940  0.00  0.00    +0.000 A 
ATOM      7  C   UNL     1      -0.394  12.380  21.138  0.00  0.00    +0.000 A 
ATOM      8  C   UNL     1      -0.343  10.833  20.930  0.00  0.00    +0.000 A 
ATOM      9  C   UNL     1       0.637  10.252  20.147  0.00  0.00    +0.000 A 
ATOM     10  N   UNL     1       1.342  11.176  19.389  0.00  0.00    +0.000 N 
ATOM     11  C   UNL     1       1.544  12.469  19.716  0.00  0.00    +0.000 A 
ATOM     12  O   UNL     1       2.241  13.223  19.041  0.00  0.00    +0.000 OA
ATOM     13  C   UNL     1       1.908  10.637  18.181  0.00  0.00    +0.000 C 
ATOM     14  C   UNL     1       1.900   9.190  18.465  0.00  0.00    +0.000 A 
ATOM     15  C   UNL     1       2.590   8.264  17.715  0.00  0.00    +0.000 A 
ATOM     16  C   UNL     1       2.792   7.006  18.240  0.00  0.00    +0.000 A 
ATOM     17  C   UNL     1       3.545   6.111  17.448  0.00  0.00    +0.000 A 
ATOM     18  C   UNL     1       3.923   4.881  17.927  0.00  0.00    +0.000 A 
ATOM     19  C   UNL     1       3.635   4.574  19.252  0.00  0.00    +0.000 A 
ATOM     20  C   UNL     1       2.853   5.486  20.045  0.00  0.00    +0.000 A 
ATOM     21  C   UNL     1       2.344   6.739  19.563  0.00  0.00    +0.000 A 
ATOM     22  N   UNL     1       1.528   7.685  20.261  0.00  0.00    +0.000 NA
ATOM     23  C   UNL     1       1.258   8.889  19.664  0.00  0.00    +0.000 A 
ENDROOT
BRANCH   1  25
ATOM     24  C   UNL     1      -4.191  12.816  21.621  0.00  0.00    +0.000 C 
ATOM     25  C   UNL     1      -3.083  13.872  21.392  0.00  0.00    +0.000 C 
ENDBRANCH   1  25
BRANCH   1  26
ATOM     26  O   UNL     1      -1.603  13.590  19.576  0.00  0.00    +0.000 OA
ATOM     27  H   UNL     1      -1.830  12.718  19.214  0.00  0.00    +0.000 HD
ENDBRANCH   1  26
BRANCH  19  28
ATOM     28  C   UNL     1       4.269   3.301  19.732  0.00  0.00    +0.000 C 
ATOM     29  O   UNL     1       3.765   2.602  20.604  0.00  0.00    +0.000 OA
BRANCH  28  30
ATOM     30  O   UNL     1       5.457   3.009  19.175  0.00  0.00    +0.000 OA
ATOM     31  H   UNL     1       5.444   2.347  18.466  0.00  0.00    +0.000 HD
ENDBRANCH  28  30
ENDBRANCH  19  28
TORSDOF 4
ENDMDL
MODEL 4
REMARK VINA RESULT:      -7.9      2.931      9.324
REMARK  Name = 
REMARK  5 active torsions:
REMARK  status: ('A' for Active; 'I' for Inactive)
REMARK    1  A    between atoms: C_1  and  C_2
REMARK    2  A    between atoms: C_2  and  C_3
REMARK    3  A    between atoms: C_3  and  O_4
REMARK    4  A    between atoms: C_22  and  C_23
REMARK    5  A    between atoms: C_23  and  O_25
REMARK                            x       y       z     vdW  Elec       q    Type
REMARK                         _______ _______ _______ _____ _____    ______ ____
ROOT
ATOM      1  C   UNL     1      -1.044  12.802  21.254  0.00  0.00    +0.000 C 
ATOM      2  C   UNL     1      -0.173  14.055  21.692  0.00  0.00    +0.000 C 
ATOM      3  O   UNL     1      -0.023  14.484  22.829  0.00  0.00    +0.000 OA
ATOM      4  O   UNL     1       0.637  14.454  20.689  0.00  0.00    +0.000 OA
ATOM      5  C   UNL     1       1.737  13.592  20.839  0.00  0.00    +0.000 C 
ATOM      6  C   UNL     1       1.290  12.161  20.739  0.00  0.00    +0.000 A 
ATOM      7  C   UNL     1       0.108  11.639  21.241  0.00  0.00    +0.000 A 
ATOM      8  C   UNL     1       0.115  10.077  21.188  0.00  0.00    +0.000 A 
ATOM      9  C   UNL     1       0.916   9.399  20.289  0.00  0.00    +0.000 A 
ATOM     10  N   UNL     1       1.456  10.225  19.315  0.00  0.00    +0.000 N 
ATOM     11  C   UNL     1       1.722  11.540  19.459  0.00  0.00    +0.000 A 
ATOM     12  O   UNL     1       2.270  12.207  18.584  0.00  0.00    +0.000 OA
ATOM     13  C   UNL     1       1.768   9.555  18.080  0.00  0.00    +0.000 C 
ATOM     14  C   UNL     1       1.814   8.145  18.508  0.00  0.00    +0.000 A 
ATOM     15  C   UNL     1       2.338   7.132  17.736  0.00  0.00    +0.000 A 
ATOM     16  C   UNL     1       2.641   5.930  18.338  0.00  0.00    +0.000 A 
ATOM     17  C   UNL     1       3.217   4.943  17.509  0.00  0.00    +0.000 A 
ATOM     18  C   UNL     1       3.682   3.759  18.027  0.00  0.00    +0.000 A 
ATOM     19  C   UNL     1       3.666   3.594  19.408  0.00  0.00    +0.000 A 
ATOM     20  C   UNL     1       3.060   4.599  20.241  0.00  0.00    +0.000 A 
ATOM     21  C   UNL     1       2.467   5.808  19.744  0.00  0.00    +0.000 A 
ATOM     22  N   UNL     1       1.809   6.837  20.488  0.00  0.00    +0.000 NA
ATOM     23  C   UNL     1       1.426   7.981  19.836  0.00  0.00    +0.000 A 
ENDROOT
BRANCH   1  25
ATOM     24  C   UNL     1      -3.127  12.537  23.102  0.00  0.00    +0.000 C 
ATOM     25  C   UNL     1      -2.473  13.208  21.870  0.00  0.00    +0.000 C 
ENDBRANCH   1  25
BRANCH   1  26
ATOM     26  O   UNL     1      -1.388  12.710  19.834  0.00  0.00    +0.000 OA
ATOM     27  H   UNL     1      -0.606  12.887  19.287  0.00  0.00    +0.000 HD
ENDBRANCH   1  26
BRANCH  19  28
ATOM     28  C   UNL     1       4.381   2.363  19.880  0.00  0.00    +0.000 C 
ATOM     29  O   UNL     1       4.899   2.286  20.989  0.00  0.00    +0.000 OA
BRANCH  28  30
ATOM     30  O   UNL     1       4.461   1.366  18.981  0.00  0.00    +0.000 OA
ATOM     31  H   UNL     1       3.905   1.460  18.192  0.00  0.00    +0.000 HD
ENDBRANCH  28  30
ENDBRANCH  19  28
TORSDOF 4
ENDMDL
MODEL 5
REMARK VINA RESULT:      -7.8      2.788     10.406
REMARK  Name = 
REMARK  5 active torsions:
REMARK  status: ('A' for Active; 'I' for Inactive)
REMARK    1  A    between atoms: C_1  and  C_2
REMARK    2  A    between atoms: C_2  and  C_3
REMARK    3  A    between atoms: C_3  and  O_4
REMARK    4  A    between atoms: C_22  and  C_23
REMARK    5  A    between atoms: C_23  and  O_25
REMARK                            x       y       z     vdW  Elec       q    Type
REMARK                         _______ _______ _______ _____ _____    ______ ____
ROOT
ATOM      1  C   UNL     1      -2.820  13.363  23.091  0.00  0.00    +0.000 C 
ATOM      2  C   UNL     1      -2.195  14.634  23.808  0.00  0.00    +0.000 C 
ATOM      3  O   UNL     1      -2.071  14.810  25.013  0.00  0.00    +0.000 OA
ATOM      4  O   UNL     1      -1.538  15.412  22.923  0.00  0.00    +0.000 OA
ATOM      5  C   UNL     1      -0.281  14.786  22.858  0.00  0.00    +0.000 C 
ATOM      6  C   UNL     1      -0.438  13.356  22.424  0.00  0.00    +0.000 A 
ATOM      7  C   UNL     1      -1.462  12.499  22.795  0.00  0.00    +0.000 A 
ATOM      8  C   UNL     1      -1.146  11.028  22.373  0.00  0.00    +0.000 A 
ATOM      9  C   UNL     1      -0.277  10.757  21.334  0.00  0.00    +0.000 A 
ATOM     10  N   UNL     1       0.033  11.879  20.580  0.00  0.00    +0.000 N 
ATOM     11  C   UNL     1       0.038  13.150  21.030  0.00  0.00    +0.000 A 
ATOM     12  O   UNL     1       0.392  14.100  20.335  0.00  0.00    +0.000 OA
ATOM     13  C   UNL     1       0.403  11.591  19.220  0.00  0.00    +0.000 C 
ATOM     14  C   UNL     1       0.754  10.161  19.301  0.00  0.00    +0.000 A 
ATOM     15  C   UNL     1       1.427   9.485  18.307  0.00  0.00    +0.000 A 
ATOM     16  C   UNL     1       1.996   8.266  18.605  0.00  0.00    +0.000 A 
ATOM     17  C   UNL     1       2.712   7.639  17.561  0.00  0.00    +0.000 A 
ATOM     18  C   UNL     1       3.432   6.491  17.781  0.00  0.00    +0.000 A 
ATOM     19  C   UNL     1       3.525   6.011  19.084  0.00  0.00    +0.000 A 
ATOM     20  C   UNL     1       2.778   6.649  20.135  0.00  0.00    +0.000 A 
ATOM     21  C   UNL     1       1.928   7.790  19.942  0.00  0.00    +0.000 A 
ATOM     22  N   UNL     1       1.120   8.460  20.914  0.00  0.00    +0.000 NA
ATOM     23  C   UNL     1       0.480   9.619  20.554  0.00  0.00    +0.000 A 
ENDROOT
BRANCH   1  25
ATOM     24  C   UNL     1      -4.710  12.242  24.823  0.00  0.00    +0.000 C 
ATOM     25  C   UNL     1      -4.266  13.310  23.795  0.00  0.00    +0.000 C 
ENDBRANCH   1  25
BRANCH   1  26
ATOM     26  O   UNL     1      -3.217  13.532  21.692  0.00  0.00    +0.000 OA
ATOM     27  H   UNL     1      -3.021  14.435  21.394  0.00  0.00    +0.000 HD
ENDBRANCH   1  26
BRANCH  19  28
ATOM     28  C   UNL     1       4.497   4.880  19.246  0.00  0.00    +0.000 C 
ATOM     29  O   UNL     1       4.185   3.710  19.053  0.00  0.00    +0.000 OA
BRANCH  28  30
ATOM     30  O   UNL     1       5.723   5.235  19.670  0.00  0.00    +0.000 OA
ATOM     31  H   UNL     1       6.420   4.570  19.562  0.00  0.00    +0.000 HD
ENDBRANCH  28  30
ENDBRANCH  19  28
TORSDOF 4
ENDMDL
MODEL 6
REMARK VINA RESULT:      -7.6      1.842      2.416
REMARK  Name = 
REMARK  5 active torsions:
REMARK  status: ('A' for Active; 'I' for Inactive)
REMARK    1  A    between atoms: C_1  and  C_2
REMARK    2  A    between atoms: C_2  and  C_3
REMARK    3  A    between atoms: C_3  and  O_4
REMARK    4  A    between atoms: C_22  and  C_23
REMARK    5  A    between atoms: C_23  and  O_25
REMARK                            x       y       z     vdW  Elec       q    Type
REMARK                         _______ _______ _______ _____ _____    ______ ____
ROOT
ATOM      1  C   UNL     1       5.480   4.727  16.180  0.00  0.00    +0.000 C 
ATOM      2  C   UNL     1       6.757   4.275  17.008  0.00  0.00    +0.000 C 
ATOM      3  O   UNL     1       7.929   4.486  16.723  0.00  0.00    +0.000 OA
ATOM      4  O   UNL     1       6.408   3.858  18.243  0.00  0.00    +0.000 OA
ATOM      5  C   UNL     1       6.333   5.070  18.952  0.00  0.00    +0.000 C 
ATOM      6  C   UNL     1       5.333   5.987  18.304  0.00  0.00    +0.000 A 
ATOM      7  C   UNL     1       5.122   6.131  16.943  0.00  0.00    +0.000 A 
ATOM      8  C   UNL     1       4.206   7.360  16.642  0.00  0.00    +0.000 A 
ATOM      9  C   UNL     1       3.332   7.847  17.596  0.00  0.00    +0.000 A 
ATOM     10  N   UNL     1       3.174   6.988  18.674  0.00  0.00    +0.000 N 
ATOM     11  C   UNL     1       4.095   6.109  19.118  0.00  0.00    +0.000 A 
ATOM     12  O   UNL     1       3.928   5.424  20.125  0.00  0.00    +0.000 OA
ATOM     13  C   UNL     1       1.912   7.120  19.353  0.00  0.00    +0.000 C 
ATOM     14  C   UNL     1       1.469   8.454  18.905  0.00  0.00    +0.000 A 
ATOM     15  C   UNL     1       0.434   9.148  19.491  0.00  0.00    +0.000 A 
ATOM     16  C   UNL     1       0.311  10.495  19.232  0.00  0.00    +0.000 A 
ATOM     17  C   UNL     1      -0.740  11.166  19.895  0.00  0.00    +0.000 A 
ATOM     18  C   UNL     1      -0.875  12.530  19.819  0.00  0.00    +0.000 A 
ATOM     19  C   UNL     1       0.111  13.253  19.156  0.00  0.00    +0.000 A 
ATOM     20  C   UNL     1       1.168  12.558  18.471  0.00  0.00    +0.000 A 
ATOM     21  C   UNL     1       1.299  11.129  18.430  0.00  0.00    +0.000 A 
ATOM     22  N   UNL     1       2.287  10.354  17.744  0.00  0.00    +0.000 NA
ATOM     23  C   UNL     1       2.316   8.998  17.942  0.00  0.00    +0.000 A 
ENDROOT
BRANCH   1  25
ATOM     24  C   UNL     1       6.802   4.669  13.715  0.00  0.00    +0.000 C 
ATOM     25  C   UNL     1       5.813   4.076  14.747  0.00  0.00    +0.000 C 
ENDBRANCH   1  25
BRANCH   1  26
ATOM     26  O   UNL     1       4.224   4.044  16.492  0.00  0.00    +0.000 OA
ATOM     27  H   UNL     1       4.363   3.084  16.527  0.00  0.00    +0.000 HD
ENDBRANCH   1  26
BRANCH  19  28
ATOM     28  C   UNL     1      -0.020  14.740  19.309  0.00  0.00    +0.000 C 
ATOM     29  O   UNL     1       0.945  15.496  19.254  0.00  0.00    +0.000 OA
BRANCH  28  30
ATOM     30  O   UNL     1      -1.264  15.182  19.564  0.00  0.00    +0.000 OA
ATOM     31  H   UNL     1      -1.386  16.144  19.543  0.00  0.00    +0.000 HD
ENDBRANCH  28  30
ENDBRANCH  19  28
TORSDOF 4
ENDMDL
MODEL 7
REMARK VINA RESULT:      -7.4      3.317      9.525
REMARK  Name = 
REMARK  5 active torsions:
REMARK  status: ('A' for Active; 'I' for Inactive)
REMARK    1  A    between atoms: C_1  and  C_2
REMARK    2  A    between atoms: C_2  and  C_3
REMARK    3  A    between atoms: C_3  and  O_4
REMARK    4  A    between atoms: C_22  and  C_23
REMARK    5  A    between atoms: C_23  and  O_25
REMARK                            x       y       z     vdW  Elec       q    Type
REMARK                         _______ _______ _______ _____ _____    ______ ____
ROOT
ATOM      1  C   UNL     1      -1.177  13.987  21.027  0.00  0.00    +0.000 C 
ATOM      2  C   UNL     1      -0.269  15.166  21.582  0.00  0.00    +0.000 C 
ATOM      3  O   UNL     1      -0.260  15.610  22.723  0.00  0.00    +0.000 OA
ATOM      4  O   UNL     1       0.723  15.460  20.716  0.00  0.00    +0.000 OA
ATOM      5  C   UNL     1       1.698  14.505  21.050  0.00  0.00    +0.000 C 
ATOM      6  C   UNL     1       1.136  13.119  20.898  0.00  0.00    +0.000 A 
ATOM      7  C   UNL     1      -0.154  12.723  21.211  0.00  0.00    +0.000 A 
ATOM      8  C   UNL     1      -0.289  11.166  21.179  0.00  0.00    +0.000 A 
ATOM      9  C   UNL     1       0.575  10.392  20.428  0.00  0.00    +0.000 A 
ATOM     10  N   UNL     1       1.339  11.138  19.542  0.00  0.00    +0.000 N 
ATOM     11  C   UNL     1       1.703  12.426  19.710  0.00  0.00    +0.000 A 
ATOM     12  O   UNL     1       2.443  13.015  18.926  0.00  0.00    +0.000 OA
ATOM     13  C   UNL     1       1.775  10.409  18.381  0.00  0.00    +0.000 C 
ATOM     14  C   UNL     1       1.618   9.012  18.828  0.00  0.00    +0.000 A 
ATOM     15  C   UNL     1       2.157   7.934  18.162  0.00  0.00    +0.000 A 
ATOM     16  C   UNL     1       2.245   6.726  18.818  0.00  0.00    +0.000 A 
ATOM     17  C   UNL     1       2.847   5.668  18.104  0.00  0.00    +0.000 A 
ATOM     18  C   UNL     1       3.109   4.461  18.704  0.00  0.00    +0.000 A 
ATOM     19  C   UNL     1       2.860   4.336  20.066  0.00  0.00    +0.000 A 
ATOM     20  C   UNL     1       2.231   5.415  20.780  0.00  0.00    +0.000 A 
ATOM     21  C   UNL     1       1.841   6.659  20.180  0.00  0.00    +0.000 A 
ATOM     22  N   UNL     1       1.176   7.765  20.798  0.00  0.00    +0.000 NA
ATOM     23  C   UNL     1       1.012   8.921  20.079  0.00  0.00    +0.000 A 
ENDROOT
BRANCH   1  25
ATOM     24  C   UNL     1      -3.267  15.837  20.837  0.00  0.00    +0.000 C 
ATOM     25  C   UNL     1      -2.640  14.540  21.403  0.00  0.00    +0.000 C 
ENDBRANCH   1  25
BRANCH   1  26
ATOM     26  O   UNL     1      -1.300  13.889  19.572  0.00  0.00    +0.000 OA
ATOM     27  H   UNL     1      -2.044  14.430  19.260  0.00  0.00    +0.000 HD
ENDBRANCH   1  26
BRANCH  19  28
ATOM     28  C   UNL     1       3.371   3.057  20.662  0.00  0.00    +0.000 C 
ATOM     29  O   UNL     1       4.229   2.372  20.115  0.00  0.00    +0.000 OA
BRANCH  28  30
ATOM     30  O   UNL     1       2.784   2.687  21.814  0.00  0.00    +0.000 OA
ATOM     31  H   UNL     1       3.277   2.883  22.625  0.00  0.00    +0.000 HD
ENDBRANCH  28  30
ENDBRANCH  19  28
TORSDOF 4
ENDMDL
MODEL 8
REMARK VINA RESULT:      -7.3      3.330      9.035
REMARK  Name = 
REMARK  5 active torsions:
REMARK  status: ('A' for Active; 'I' for Inactive)
REMARK    1  A    between atoms: C_1  and  C_2
REMARK    2  A    between atoms: C_2  and  C_3
REMARK    3  A    between atoms: C_3  and  O_4
REMARK    4  A    between atoms: C_22  and  C_23
REMARK    5  A    between atoms: C_23  and  O_25
REMARK                            x       y       z     vdW  Elec       q    Type
REMARK                         _______ _______ _______ _____ _____    ______ ____
ROOT
ATOM      1  C   UNL     1       1.324  14.502  19.504  0.00  0.00    +0.000 C 
ATOM      2  C   UNL     1      -0.081  15.200  19.256  0.00  0.00    +0.000 C 
ATOM      3  O   UNL     1      -0.447  15.772  18.238  0.00  0.00    +0.000 OA
ATOM      4  O   UNL     1      -0.967  14.851  20.213  0.00  0.00    +0.000 OA
ATOM      5  C   UNL     1      -1.452  13.623  19.730  0.00  0.00    +0.000 C 
ATOM      6  C   UNL     1      -0.318  12.652  19.557  0.00  0.00    +0.000 A 
ATOM      7  C   UNL     1       0.955  12.958  19.104  0.00  0.00    +0.000 A 
ATOM      8  C   UNL     1       1.771  11.661  18.797  0.00  0.00    +0.000 A 
ATOM      9  C   UNL     1       1.457  10.462  19.408  0.00  0.00    +0.000 A 
ATOM     10  N   UNL     1       0.575  10.609  20.468  0.00  0.00    +0.000 N 
ATOM     11  C   UNL     1      -0.343  11.589  20.595  0.00  0.00    +0.000 A 
ATOM     12  O   UNL     1      -1.149  11.627  21.522  0.00  0.00    +0.000 OA
ATOM     13  C   UNL     1       0.677   9.578  21.467  0.00  0.00    +0.000 C 
ATOM     14  C   UNL     1       1.373   8.511  20.725  0.00  0.00    +0.000 A 
ATOM     15  C   UNL     1       1.469   7.211  21.172  0.00  0.00    +0.000 A 
ATOM     16  C   UNL     1       1.836   6.229  20.279  0.00  0.00    +0.000 A 
ATOM     17  C   UNL     1       1.874   4.910  20.780  0.00  0.00    +0.000 A 
ATOM     18  C   UNL     1       2.094   3.838  19.950  0.00  0.00    +0.000 A 
ATOM     19  C   UNL     1       2.178   4.072  18.582  0.00  0.00    +0.000 A 
ATOM     20  C   UNL     1       2.155   5.422  18.084  0.00  0.00    +0.000 A 
ATOM     21  C   UNL     1       2.031   6.585  18.916  0.00  0.00    +0.000 A 
ATOM     22  N   UNL     1       2.041   7.959  18.516  0.00  0.00    +0.000 NA
ATOM     23  C   UNL     1       1.774   8.921  19.456  0.00  0.00    +0.000 A 
ENDROOT
BRANCH   1  25
ATOM     24  C   UNL     1       3.101  15.905  17.860  0.00  0.00    +0.000 C 
ATOM     25  C   UNL     1       2.319  15.725  19.184  0.00  0.00    +0.000 C 
ENDBRANCH   1  25
BRANCH   1  26
ATOM     26  O   UNL     1       1.682  14.232  20.897  0.00  0.00    +0.000 OA
ATOM     27  H   UNL     1       1.413  14.972  21.463  0.00  0.00    +0.000 HD
ENDBRANCH   1  26
BRANCH  19  28
ATOM     28  C   UNL     1       2.210   2.822  17.753  0.00  0.00    +0.000 C 
ATOM     29  O   UNL     1       2.482   2.830  16.558  0.00  0.00    +0.000 OA
BRANCH  28  30
ATOM     30  O   UNL     1       1.868   1.695  18.403  0.00  0.00    +0.000 OA
ATOM     31  H   UNL     1       1.596   0.949  17.846  0.00  0.00    +0.000 HD
ENDBRANCH  28  30
ENDBRANCH  19  28
TORSDOF 4
ENDMDL
MODEL 9
REMARK VINA RESULT:      -7.3      3.636      9.503
REMARK  Name = 
REMARK  5 active torsions:
REMARK  status: ('A' for Active; 'I' for Inactive)
REMARK    1  A    between atoms: C_1  and  C_2
REMARK    2  A    between atoms: C_2  and  C_3
REMARK    3  A    between atoms: C_3  and  O_4
REMARK    4  A    between atoms: C_22  and  C_23
REMARK    5  A    between atoms: C_23  and  O_25
REMARK                            x       y       z     vdW  Elec       q    Type
REMARK                         _______ _______ _______ _____ _____    ______ ____
ROOT
ATOM      1  C   UNL     1      -0.372  15.358  20.027  0.00  0.00    +0.000 C 
ATOM      2  C   UNL     1       0.663  16.447  20.542  0.00  0.00    +0.000 C 
ATOM      3  O   UNL     1       0.681  16.979  21.644  0.00  0.00    +0.000 OA
ATOM      4  O   UNL     1       1.724  16.535  19.712  0.00  0.00    +0.000 OA
ATOM      5  C   UNL     1       2.543  15.488  20.172  0.00  0.00    +0.000 C 
ATOM      6  C   UNL     1       1.804  14.182  20.094  0.00  0.00    +0.000 A 
ATOM      7  C   UNL     1       0.459  13.988  20.364  0.00  0.00    +0.000 A 
ATOM      8  C   UNL     1       0.113  12.467  20.443  0.00  0.00    +0.000 A 
ATOM      9  C   UNL     1       0.896  11.525  19.802  0.00  0.00    +0.000 A 
ATOM     10  N   UNL     1       1.793  12.087  18.906  0.00  0.00    +0.000 N 
ATOM     11  C   UNL     1       2.323  13.324  18.996  0.00  0.00    +0.000 A 
ATOM     12  O   UNL     1       3.171  13.742  18.212  0.00  0.00    +0.000 OA
ATOM     13  C   UNL     1       2.177  11.212  17.830  0.00  0.00    +0.000 C 
ATOM     14  C   UNL     1       1.810   9.890  18.373  0.00  0.00    +0.000 A 
ATOM     15  C   UNL     1       2.227   8.699  17.821  0.00  0.00    +0.000 A 
ATOM     16  C   UNL     1       2.118   7.549  18.571  0.00  0.00    +0.000 A 
ATOM     17  C   UNL     1       2.601   6.364  17.974  0.00  0.00    +0.000 A 
ATOM     18  C   UNL     1       2.668   5.187  18.678  0.00  0.00    +0.000 A 
ATOM     19  C   UNL     1       2.343   5.209  20.030  0.00  0.00    +0.000 A 
ATOM     20  C   UNL     1       1.836   6.418  20.624  0.00  0.00    +0.000 A 
ATOM     21  C   UNL     1       1.648   7.649  19.910  0.00  0.00    +0.000 A 
ATOM     22  N   UNL     1       1.114   8.881  20.403  0.00  0.00    +0.000 NA
ATOM     23  C   UNL     1       1.142   9.985  19.591  0.00  0.00    +0.000 A 
ENDROOT
BRANCH   1  25
ATOM     24  C   UNL     1      -2.174  17.452  19.587  0.00  0.00    +0.000 C 
ATOM     25  C   UNL     1      -1.760  16.130  20.278  0.00  0.00    +0.000 C 
ENDBRANCH   1  25
BRANCH   1  26
ATOM     26  O   UNL     1      -0.442  15.157  18.579  0.00  0.00    +0.000 OA
ATOM     27  H   UNL     1      -0.670  15.990  18.135  0.00  0.00    +0.000 HD
ENDBRANCH   1  26
BRANCH  19  28
ATOM     28  C   UNL     1       2.647   3.928  20.748  0.00  0.00    +0.000 C 
ATOM     29  O   UNL     1       2.131   3.636  21.822  0.00  0.00    +0.000 OA
BRANCH  28  30
ATOM     30  O   UNL     1       3.566   3.144  20.158  0.00  0.00    +0.000 OA
ATOM     31  H   UNL     1       3.255   2.277  19.855  0.00  0.00    +0.000 HD
ENDBRANCH  28  30
ENDBRANCH  19  28
TORSDOF 4
ENDMDL
