MODEL 1
REMARK VINA RESULT:      -6.9      0.000      0.000
REMARK  Name = 
REMARK  3 active torsions:
REMARK  status: ('A' for Active; 'I' for Inactive)
REMARK    1  A    between atoms: C_1  and  C_2
REMARK    2  A    between atoms: C_7  and  C_9
REMARK    3  A    between atoms: C_15  and  O_16
REMARK                            x       y       z     vdW  Elec       q    Type
REMARK                         _______ _______ _______ _____ _____    ______ ____
ROOT
ATOM      1  C   UNL     1       0.728   2.801  19.366  0.00  0.00    +0.000 C 
ATOM      2  C   UNL     1       2.064   3.352  19.022  0.00  0.00    +0.000 A 
ATOM      3  C   UNL     1       2.994   3.850  19.911  0.00  0.00    +0.000 A 
ATOM      4  S   UNL     1       4.411   4.307  19.074  0.00  0.00    +0.000 S 
ATOM      5  C   UNL     1       3.699   3.813  17.603  0.00  0.00    +0.000 A 
ATOM      6  N   UNL     1       4.354   3.910  16.400  0.00  0.00    +0.000 N 
ATOM      7  C   UNL     1       5.700   4.137  16.218  0.00  0.00    +0.000 C 
ATOM      8  O   UNL     1       6.539   4.241  17.107  0.00  0.00    +0.000 OA
ATOM      9  N   UNL     1       2.462   3.377  17.690  0.00  0.00    +0.000 NA
ATOM     10  H   UNL     1       3.776   3.723  15.588  0.00  0.00    +0.000 HD
ENDROOT
BRANCH   7  11
ATOM     11  C   UNL     1       6.182   4.231  14.800  0.00  0.00    +0.000 A 
ATOM     12  C   UNL     1       5.529   3.412  13.859  0.00  0.00    +0.000 A 
ATOM     13  C   UNL     1       5.926   3.406  12.525  0.00  0.00    +0.000 A 
ATOM     14 CL   UNL     1       5.117   2.391  11.397  0.00  0.00    +0.000 Cl
ATOM     15  C   UNL     1       6.976   4.213  12.100  0.00  0.00    +0.000 A 
ATOM     16  C   UNL     1       7.630   5.040  13.015  0.00  0.00    +0.000 A 
ATOM     17  C   UNL     1       7.234   5.049  14.359  0.00  0.00    +0.000 A 
BRANCH  17  18
ATOM     18  O   UNL     1       7.892   5.874  15.232  0.00  0.00    +0.000 OA
ATOM     19  H   UNL     1       7.793   6.798  14.935  0.00  0.00    +0.000 HD
ENDBRANCH  17  18
ENDBRANCH   7  11
TORSDOF 2
ENDMDL
MODEL 2
REMARK VINA RESULT:      -6.6      3.354      6.806
REMARK  Name = 
REMARK  3 active torsions:
REMARK  status: ('A' for Active; 'I' for Inactive)
REMARK    1  A    between atoms: C_1  and  C_2
REMARK    2  A    between atoms: C_7  and  C_9
REMARK    3  A    between atoms: C_15  and  O_16
REMARK                            x       y       z     vdW  Elec       q    Type
REMARK                         _______ _______ _______ _____ _____    ______ ____
ROOT
ATOM      1  C   UNL     1       6.017   3.594  12.275  0.00  0.00    +0.000 C 
ATOM      2  C   UNL     1       6.231   4.018  13.682  0.00  0.00    +0.000 A 
ATOM      3  C   UNL     1       7.299   4.748  14.161  0.00  0.00    +0.000 A 
ATOM      4  S   UNL     1       7.088   5.063  15.826  0.00  0.00    +0.000 S 
ATOM      5  C   UNL     1       5.604   4.219  15.796  0.00  0.00    +0.000 A 
ATOM      6  N   UNL     1       4.822   4.068  16.914  0.00  0.00    +0.000 N 
ATOM      7  C   UNL     1       4.943   4.762  18.097  0.00  0.00    +0.000 C 
ATOM      8  O   UNL     1       5.745   5.663  18.324  0.00  0.00    +0.000 OA
ATOM      9  N   UNL     1       5.283   3.679  14.641  0.00  0.00    +0.000 NA
ATOM     10  H   UNL     1       4.044   3.427  16.801  0.00  0.00    +0.000 HD
ENDROOT
BRANCH   7  11
ATOM     11  C   UNL     1       3.983   4.401  19.192  0.00  0.00    +0.000 A 
ATOM     12  C   UNL     1       3.086   5.407  19.597  0.00  0.00    +0.000 A 
ATOM     13  C   UNL     1       2.178   5.177  20.628  0.00  0.00    +0.000 A 
ATOM     14 CL   UNL     1       1.097   6.425  21.110  0.00  0.00    +0.000 Cl
ATOM     15  C   UNL     1       2.142   3.945  21.272  0.00  0.00    +0.000 A 
ATOM     16  C   UNL     1       3.017   2.931  20.878  0.00  0.00    +0.000 A 
ATOM     17  C   UNL     1       3.932   3.158  19.841  0.00  0.00    +0.000 A 
BRANCH  17  18
ATOM     18  O   UNL     1       4.774   2.142  19.475  0.00  0.00    +0.000 OA
ATOM     19  H   UNL     1       4.445   1.303  19.849  0.00  0.00    +0.000 HD
ENDBRANCH  17  18
ENDBRANCH   7  11
TORSDOF 2
ENDMDL
MODEL 3
REMARK VINA RESULT:      -6.5      4.735      5.729
REMARK  Name = 
REMARK  3 active torsions:
REMARK  status: ('A' for Active; 'I' for Inactive)
REMARK    1  A    between atoms: C_1  and  C_2
REMARK    2  A    between atoms: C_7  and  C_9
REMARK    3  A    between atoms: C_15  and  O_16
REMARK                            x       y       z     vdW  Elec       q    Type
REMARK                         _______ _______ _______ _____ _____    ______ ____
ROOT
ATOM      1  C   UNL     1      -0.013   9.630  23.112  0.00  0.00    +0.000 C 
ATOM      2  C   UNL     1       0.434   9.436  21.710  0.00  0.00    +0.000 A 
ATOM      3  C   UNL     1       0.314  10.348  20.682  0.00  0.00    +0.000 A 
ATOM      4  S   UNL     1       1.031   9.722  19.263  0.00  0.00    +0.000 S 
ATOM      5  C   UNL     1       1.451   8.298  20.105  0.00  0.00    +0.000 A 
ATOM      6  N   UNL     1       2.118   7.259  19.506  0.00  0.00    +0.000 N 
ATOM      7  C   UNL     1       2.769   7.297  18.293  0.00  0.00    +0.000 C 
ATOM      8  O   UNL     1       2.897   8.283  17.575  0.00  0.00    +0.000 OA
ATOM      9  N   UNL     1       1.050   8.241  21.356  0.00  0.00    +0.000 NA
ATOM     10  H   UNL     1       2.179   6.417  20.067  0.00  0.00    +0.000 HD
ENDROOT
BRANCH   7  11
ATOM     11  C   UNL     1       3.406   6.020  17.830  0.00  0.00    +0.000 A 
ATOM     12  C   UNL     1       2.645   4.846  17.985  0.00  0.00    +0.000 A 
ATOM     13  C   UNL     1       3.164   3.608  17.614  0.00  0.00    +0.000 A 
ATOM     14 CL   UNL     1       2.217   2.187  17.821  0.00  0.00    +0.000 Cl
ATOM     15  C   UNL     1       4.445   3.513  17.081  0.00  0.00    +0.000 A 
ATOM     16  C   UNL     1       5.212   4.667  16.909  0.00  0.00    +0.000 A 
ATOM     17  C   UNL     1       4.694   5.915  17.281  0.00  0.00    +0.000 A 
BRANCH  17  18
ATOM     18  O   UNL     1       5.469   7.029  17.097  0.00  0.00    +0.000 OA
ATOM     19  H   UNL     1       5.713   7.097  16.154  0.00  0.00    +0.000 HD
ENDBRANCH  17  18
ENDBRANCH   7  11
TORSDOF 2
ENDMDL
MODEL 4
REMARK VINA RESULT:      -6.5      1.883      2.080
REMARK  Name = 
REMARK  3 active torsions:
REMARK  status: ('A' for Active; 'I' for Inactive)
REMARK    1  A    between atoms: C_1  and  C_2
REMARK    2  A    between atoms: C_7  and  C_9
REMARK    3  A    between atoms: C_15  and  O_16
REMARK                            x       y       z     vdW  Elec       q    Type
REMARK                         _______ _______ _______ _____ _____    ______ ____
ROOT
ATOM      1  C   UNL     1       1.788   8.089  19.759  0.00  0.00    +0.000 C 
ATOM      2  C   UNL     1       2.603   6.928  19.321  0.00  0.00    +0.000 A 
ATOM      3  C   UNL     1       2.777   5.746  20.011  0.00  0.00    +0.000 A 
ATOM      4  S   UNL     1       3.736   4.672  19.092  0.00  0.00    +0.000 S 
ATOM      5  C   UNL     1       3.851   5.838  17.851  0.00  0.00    +0.000 A 
ATOM      6  N   UNL     1       4.552   5.612  16.693  0.00  0.00    +0.000 N 
ATOM      7  C   UNL     1       5.010   4.396  16.237  0.00  0.00    +0.000 C 
ATOM      8  O   UNL     1       4.821   3.309  16.775  0.00  0.00    +0.000 OA
ATOM      9  N   UNL     1       3.263   6.988  18.098  0.00  0.00    +0.000 NA
ATOM     10  H   UNL     1       4.667   6.429  16.103  0.00  0.00    +0.000 HD
ENDROOT
BRANCH   7  11
ATOM     11  C   UNL     1       5.779   4.404  14.950  0.00  0.00    +0.000 A 
ATOM     12  C   UNL     1       5.262   3.616  13.904  0.00  0.00    +0.000 A 
ATOM     13  C   UNL     1       5.923   3.534  12.681  0.00  0.00    +0.000 A 
ATOM     14 CL   UNL     1       5.276   2.558  11.423  0.00  0.00    +0.000 Cl
ATOM     15  C   UNL     1       7.106   4.235  12.473  0.00  0.00    +0.000 A 
ATOM     16  C   UNL     1       7.629   5.031  13.494  0.00  0.00    +0.000 A 
ATOM     17  C   UNL     1       6.968   5.116  14.726  0.00  0.00    +0.000 A 
BRANCH  17  18
ATOM     18  O   UNL     1       7.504   5.908  15.707  0.00  0.00    +0.000 OA
ATOM     19  H   UNL     1       7.448   6.842  15.429  0.00  0.00    +0.000 HD
ENDBRANCH  17  18
ENDBRANCH   7  11
TORSDOF 2
ENDMDL
MODEL 5
REMARK VINA RESULT:      -6.4      4.838      5.954
REMARK  Name = 
REMARK  3 active torsions:
REMARK  status: ('A' for Active; 'I' for Inactive)
REMARK    1  A    between atoms: C_1  and  C_2
REMARK    2  A    between atoms: C_7  and  C_9
REMARK    3  A    between atoms: C_15  and  O_16
REMARK                            x       y       z     vdW  Elec       q    Type
REMARK                         _______ _______ _______ _____ _____    ______ ____
ROOT
ATOM      1  C   UNL     1       0.001   9.609  23.240  0.00  0.00    +0.000 C 
ATOM      2  C   UNL     1       0.397   9.440  21.819  0.00  0.00    +0.000 A 
ATOM      3  C   UNL     1       0.165  10.335  20.795  0.00  0.00    +0.000 A 
ATOM      4  S   UNL     1       0.860   9.755  19.347  0.00  0.00    +0.000 S 
ATOM      5  C   UNL     1       1.420   8.370  20.172  0.00  0.00    +0.000 A 
ATOM      6  N   UNL     1       2.133   7.379  19.545  0.00  0.00    +0.000 N 
ATOM      7  C   UNL     1       2.724   7.456  18.303  0.00  0.00    +0.000 C 
ATOM      8  O   UNL     1       2.748   8.446  17.578  0.00  0.00    +0.000 OA
ATOM      9  N   UNL     1       1.082   8.290  21.440  0.00  0.00    +0.000 NA
ATOM     10  H   UNL     1       2.280   6.546  20.105  0.00  0.00    +0.000 HD
ENDROOT
BRANCH   7  11
ATOM     11  C   UNL     1       3.431   6.227  17.815  0.00  0.00    +0.000 A 
ATOM     12  C   UNL     1       4.725   6.411  17.293  0.00  0.00    +0.000 A 
ATOM     13  C   UNL     1       5.448   5.334  16.787  0.00  0.00    +0.000 A 
ATOM     14 CL   UNL     1       7.025   5.587  16.148  0.00  0.00    +0.000 Cl
ATOM     15  C   UNL     1       4.901   4.056  16.791  0.00  0.00    +0.000 A 
ATOM     16  C   UNL     1       3.623   3.850  17.313  0.00  0.00    +0.000 A 
ATOM     17  C   UNL     1       2.892   4.930  17.824  0.00  0.00    +0.000 A 
BRANCH  17  18
ATOM     18  O   UNL     1       1.642   4.696  18.333  0.00  0.00    +0.000 OA
ATOM     19  H   UNL     1       1.389   3.773  18.146  0.00  0.00    +0.000 HD
ENDBRANCH  17  18
ENDBRANCH   7  11
TORSDOF 2
ENDMDL
MODEL 6
REMARK VINA RESULT:      -6.3      5.999      8.029
REMARK  Name = 
REMARK  3 active torsions:
REMARK  status: ('A' for Active; 'I' for Inactive)
REMARK    1  A    between atoms: C_1  and  C_2
REMARK    2  A    between atoms: C_7  and  C_9
REMARK    3  A    between atoms: C_15  and  O_16
REMARK                            x       y       z     vdW  Elec       q    Type
REMARK                         _______ _______ _______ _____ _____    ______ ____
ROOT
ATOM      1  C   UNL     1       4.331   2.167  20.015  0.00  0.00    +0.000 C 
ATOM      2  C   UNL     1       4.284   3.555  19.492  0.00  0.00    +0.000 A 
ATOM      3  C   UNL     1       5.075   4.076  18.488  0.00  0.00    +0.000 A 
ATOM      4  S   UNL     1       4.621   5.692  18.171  0.00  0.00    +0.000 S 
ATOM      5  C   UNL     1       3.414   5.588  19.374  0.00  0.00    +0.000 A 
ATOM      6  N   UNL     1       2.586   6.640  19.677  0.00  0.00    +0.000 N 
ATOM      7  C   UNL     1       2.405   7.781  18.928  0.00  0.00    +0.000 C 
ATOM      8  O   UNL     1       2.921   8.017  17.840  0.00  0.00    +0.000 OA
ATOM      9  N   UNL     1       3.361   4.448  20.026  0.00  0.00    +0.000 NA
ATOM     10  H   UNL     1       2.015   6.503  20.504  0.00  0.00    +0.000 HD
ENDROOT
BRANCH   7  11
ATOM     11  C   UNL     1       1.463   8.809  19.481  0.00  0.00    +0.000 A 
ATOM     12  C   UNL     1       1.120   8.680  20.840  0.00  0.00    +0.000 A 
ATOM     13  C   UNL     1       0.228   9.567  21.436  0.00  0.00    +0.000 A 
ATOM     14 CL   UNL     1      -0.180   9.384  23.097  0.00  0.00    +0.000 Cl
ATOM     15  C   UNL     1      -0.338  10.599  20.695  0.00  0.00    +0.000 A 
ATOM     16  C   UNL     1      -0.004  10.750  19.348  0.00  0.00    +0.000 A 
ATOM     17  C   UNL     1       0.894   9.860  18.745  0.00  0.00    +0.000 A 
BRANCH  17  18
ATOM     18  O   UNL     1       1.205  10.036  17.423  0.00  0.00    +0.000 OA
ATOM     19  H   UNL     1       1.616   9.220  17.080  0.00  0.00    +0.000 HD
ENDBRANCH  17  18
ENDBRANCH   7  11
TORSDOF 2
ENDMDL
MODEL 7
REMARK VINA RESULT:      -6.3      3.397      6.682
REMARK  Name = 
REMARK  3 active torsions:
REMARK  status: ('A' for Active; 'I' for Inactive)
REMARK    1  A    between atoms: C_1  and  C_2
REMARK    2  A    between atoms: C_7  and  C_9
REMARK    3  A    between atoms: C_15  and  O_16
REMARK                            x       y       z     vdW  Elec       q    Type
REMARK                         _______ _______ _______ _____ _____    ______ ____
ROOT
ATOM      1  C   UNL     1       5.842   3.346  12.352  0.00  0.00    +0.000 C 
ATOM      2  C   UNL     1       6.038   3.973  13.683  0.00  0.00    +0.000 A 
ATOM      3  C   UNL     1       7.152   4.674  14.098  0.00  0.00    +0.000 A 
ATOM      4  S   UNL     1       6.905   5.274  15.678  0.00  0.00    +0.000 S 
ATOM      5  C   UNL     1       5.349   4.572  15.700  0.00  0.00    +0.000 A 
ATOM      6  N   UNL     1       4.511   4.677  16.782  0.00  0.00    +0.000 N 
ATOM      7  C   UNL     1       4.651   5.541  17.845  0.00  0.00    +0.000 C 
ATOM      8  O   UNL     1       5.527   6.392  17.970  0.00  0.00    +0.000 OA
ATOM      9  N   UNL     1       5.024   3.882  14.629  0.00  0.00    +0.000 NA
ATOM     10  H   UNL     1       3.680   4.098  16.729  0.00  0.00    +0.000 HD
ENDROOT
BRANCH   7  11
ATOM     11  C   UNL     1       3.617   5.451  18.928  0.00  0.00    +0.000 A 
ATOM     12  C   UNL     1       3.557   4.239  19.640  0.00  0.00    +0.000 A 
ATOM     13  C   UNL     1       2.609   4.049  20.643  0.00  0.00    +0.000 A 
ATOM     14 CL   UNL     1       2.551   2.555  21.493  0.00  0.00    +0.000 Cl
ATOM     15  C   UNL     1       1.706   5.059  20.957  0.00  0.00    +0.000 A 
ATOM     16  C   UNL     1       1.756   6.273  20.269  0.00  0.00    +0.000 A 
ATOM     17  C   UNL     1       2.708   6.468  19.260  0.00  0.00    +0.000 A 
BRANCH  17  18
ATOM     18  O   UNL     1       2.735   7.671  18.606  0.00  0.00    +0.000 OA
ATOM     19  H   UNL     1       1.819   7.984  18.475  0.00  0.00    +0.000 HD
ENDBRANCH  17  18
ENDBRANCH   7  11
TORSDOF 2
ENDMDL
MODEL 8
REMARK VINA RESULT:      -6.3      5.577      7.338
REMARK  Name = 
REMARK  3 active torsions:
REMARK  status: ('A' for Active; 'I' for Inactive)
REMARK    1  A    between atoms: C_1  and  C_2
REMARK    2  A    between atoms: C_7  and  C_9
REMARK    3  A    between atoms: C_15  and  O_16
REMARK                            x       y       z     vdW  Elec       q    Type
REMARK                         _______ _______ _______ _____ _____    ______ ____
ROOT
ATOM      1  C   UNL     1      -0.565  11.231  22.666  0.00  0.00    +0.000 C 
ATOM      2  C   UNL     1       0.027  10.472  21.536  0.00  0.00    +0.000 A 
ATOM      3  C   UNL     1       0.189  10.926  20.244  0.00  0.00    +0.000 A 
ATOM      4  S   UNL     1       0.977   9.737  19.304  0.00  0.00    +0.000 S 
ATOM      5  C   UNL     1       1.052   8.712  20.667  0.00  0.00    +0.000 A 
ATOM      6  N   UNL     1       1.620   7.463  20.617  0.00  0.00    +0.000 N 
ATOM      7  C   UNL     1       2.422   6.969  19.613  0.00  0.00    +0.000 C 
ATOM      8  O   UNL     1       2.798   7.587  18.622  0.00  0.00    +0.000 OA
ATOM      9  N   UNL     1       0.487   9.179  21.759  0.00  0.00    +0.000 NA
ATOM     10  H   UNL     1       1.472   6.899  21.447  0.00  0.00    +0.000 HD
ENDROOT
BRANCH   7  11
ATOM     11  C   UNL     1       2.904   5.557  19.769  0.00  0.00    +0.000 A 
ATOM     12  C   UNL     1       2.114   4.707  20.566  0.00  0.00    +0.000 A 
ATOM     13  C   UNL     1       2.496   3.388  20.795  0.00  0.00    +0.000 A 
ATOM     14 CL   UNL     1       1.517   2.373  21.778  0.00  0.00    +0.000 Cl
ATOM     15  C   UNL     1       3.667   2.888  20.236  0.00  0.00    +0.000 A 
ATOM     16  C   UNL     1       4.460   3.712  19.435  0.00  0.00    +0.000 A 
ATOM     17  C   UNL     1       4.079   5.039  19.201  0.00  0.00    +0.000 A 
BRANCH  17  18
ATOM     18  O   UNL     1       4.876   5.822  18.408  0.00  0.00    +0.000 OA
ATOM     19  H   UNL     1       4.676   5.635  17.471  0.00  0.00    +0.000 HD
ENDBRANCH  17  18
ENDBRANCH   7  11
TORSDOF 2
ENDMDL
MODEL 9
REMARK VINA RESULT:      -6.3      1.649      1.788
REMARK  Name = 
REMARK  3 active torsions:
REMARK  status: ('A' for Active; 'I' for Inactive)
REMARK    1  A    between atoms: C_1  and  C_2
REMARK    2  A    between atoms: C_7  and  C_9
REMARK    3  A    between atoms: C_15  and  O_16
REMARK                            x       y       z     vdW  Elec       q    Type
REMARK                         _______ _______ _______ _____ _____    ______ ____
ROOT
ATOM      1  C   UNL     1       2.136   3.217  21.637  0.00  0.00    +0.000 C 
ATOM      2  C   UNL     1       2.432   4.153  20.524  0.00  0.00    +0.000 A 
ATOM      3  C   UNL     1       1.995   5.458  20.417  0.00  0.00    +0.000 A 
ATOM      4  S   UNL     1       2.640   6.173  19.006  0.00  0.00    +0.000 S 
ATOM      5  C   UNL     1       3.451   4.716  18.640  0.00  0.00    +0.000 A 
ATOM      6  N   UNL     1       4.238   4.573  17.524  0.00  0.00    +0.000 N 
ATOM      7  C   UNL     1       4.707   5.587  16.719  0.00  0.00    +0.000 C 
ATOM      8  O   UNL     1       4.535   6.788  16.900  0.00  0.00    +0.000 OA
ATOM      9  N   UNL     1       3.233   3.722  19.472  0.00  0.00    +0.000 NA
ATOM     10  H   UNL     1       4.543   3.623  17.342  0.00  0.00    +0.000 HD
ENDROOT
BRANCH   7  11
ATOM     11  C   UNL     1       5.532   5.179  15.534  0.00  0.00    +0.000 A 
ATOM     12  C   UNL     1       4.861   4.482  14.512  0.00  0.00    +0.000 A 
ATOM     13  C   UNL     1       5.548   4.035  13.386  0.00  0.00    +0.000 A 
ATOM     14 CL   UNL     1       4.707   3.178  12.155  0.00  0.00    +0.000 Cl
ATOM     15  C   UNL     1       6.912   4.273  13.254  0.00  0.00    +0.000 A 
ATOM     16  C   UNL     1       7.594   4.972  14.252  0.00  0.00    +0.000 A 
ATOM     17  C   UNL     1       6.906   5.424  15.386  0.00  0.00    +0.000 A 
BRANCH  17  18
ATOM     18  O   UNL     1       7.601   6.110  16.346  0.00  0.00    +0.000 OA
ATOM     19  H   UNL     1       8.187   6.760  15.914  0.00  0.00    +0.000 HD
ENDBRANCH  17  18
ENDBRANCH   7  11
TORSDOF 2
ENDMDL
