MODEL 1
REMARK VINA RESULT:      -6.3      0.000      0.000
REMARK  Name = 
REMARK  22 active torsions:
REMARK  status: ('A' for Active; 'I' for Inactive)
REMARK    1  A    between atoms: C_1  and  C_2
REMARK    2  A    between atoms: C_2  and  C_3
REMARK    3  A    between atoms: C_2  and  C_4
REMARK    4  A    between atoms: C_2  and  C_5
REMARK    5  A    between atoms: C_7  and  C_8
REMARK    6  A    between atoms: C_8  and  C_9
REMARK    7  A    between atoms: C_8  and  C_12
REMARK    8  A    between atoms: C_9  and  O_11
REMARK    9  A    between atoms: C_14  and  C_15
REMARK   10  A    between atoms: C_15  and  C_16
REMARK   11  A    between atoms: C_15  and  C_17
REMARK   12  A    between atoms: C_15  and  C_18
REMARK   13  A    between atoms: C_19  and  O_20
REMARK   14  A    between atoms: C_21  and  C_22
REMARK   15  A    between atoms: C_22  and  C_23
REMARK   16  A    between atoms: C_22  and  C_24
REMARK   17  A    between atoms: C_22  and  C_25
REMARK   18  A    between atoms: C_28  and  C_29
REMARK   19  A    between atoms: C_29  and  C_30
REMARK   20  A    between atoms: C_29  and  C_31
REMARK   21  A    between atoms: C_29  and  C_32
REMARK   22  A    between atoms: C_33  and  O_34
REMARK                            x       y       z     vdW  Elec       q    Type
REMARK                         _______ _______ _______ _____ _____    ______ ____
ROOT
ATOM      1  C   UNL     1      -1.174  12.516  19.583  0.00  0.00    +0.000 C 
ENDROOT
BRANCH   1   4
ATOM      2  C   UNL     1      -3.960  13.124  22.191  0.00  0.00    +0.000 A 
ATOM      3  C   UNL     1      -2.705  13.072  21.545  0.00  0.00    +0.000 A 
ATOM      4  C   UNL     1      -2.564  12.610  20.236  0.00  0.00    +0.000 A 
ATOM      5  C   UNL     1      -3.714  12.245  19.519  0.00  0.00    +0.000 A 
ATOM      6  C   UNL     1      -5.003  12.311  20.078  0.00  0.00    +0.000 A 
ATOM      7  C   UNL     1      -5.085  12.722  21.432  0.00  0.00    +0.000 A 
BRANCH   2   9
ATOM      8  C   UNL     1      -2.584  14.161  24.035  0.00  0.00    +0.000 C 
ATOM      9  C   UNL     1      -3.991  13.640  23.655  0.00  0.00    +0.000 C 
ATOM     10  C   UNL     1      -4.373  12.477  24.603  0.00  0.00    +0.000 C 
ATOM     11  C   UNL     1      -4.975  14.788  23.969  0.00  0.00    +0.000 C 
ENDBRANCH   2   9
BRANCH   6  12
ATOM     12  C   UNL     1      -6.240  11.948  19.213  0.00  0.00    +0.000 C 
ATOM     13  C   UNL     1      -7.070  10.770  19.794  0.00  0.00    +0.000 C 
ATOM     14  C   UNL     1      -7.211  13.141  19.099  0.00  0.00    +0.000 C 
ATOM     15  C   UNL     1      -5.821  11.484  17.798  0.00  0.00    +0.000 C 
ENDBRANCH   6  12
BRANCH   7  16
ATOM     16  O   UNL     1      -6.309  12.689  22.032  0.00  0.00    +0.000 OA
ATOM     17  H   UNL     1      -6.140  12.562  22.980  0.00  0.00    +0.000 HD
ENDBRANCH   7  16
ENDBRANCH   1   4
BRANCH   1  18
ATOM     18  C   UNL     1      -0.517  13.898  19.529  0.00  0.00    +0.000 A 
ATOM     19  C   UNL     1      -1.304  15.045  19.702  0.00  0.00    +0.000 A 
ATOM     20  C   UNL     1      -0.801  16.339  19.477  0.00  0.00    +0.000 A 
ATOM     21  C   UNL     1       0.544  16.429  19.034  0.00  0.00    +0.000 A 
ATOM     22  C   UNL     1       1.407  15.314  18.911  0.00  0.00    +0.000 A 
ATOM     23  C   UNL     1       0.835  14.059  19.192  0.00  0.00    +0.000 A 
BRANCH  20  24
ATOM     24  C   UNL     1      -1.687  17.586  19.733  0.00  0.00    +0.000 C 
ATOM     25  C   UNL     1      -3.104  17.236  20.259  0.00  0.00    +0.000 C 
ATOM     26  C   UNL     1      -1.054  18.495  20.815  0.00  0.00    +0.000 C 
ATOM     27  C   UNL     1      -1.899  18.401  18.439  0.00  0.00    +0.000 C 
ENDBRANCH  20  24
BRANCH  22  28
ATOM     28  C   UNL     1       2.917  15.379  18.560  0.00  0.00    +0.000 C 
ATOM     29  C   UNL     1       3.649  16.031  19.750  0.00  0.00    +0.000 C 
ATOM     30  C   UNL     1       3.543  13.972  18.339  0.00  0.00    +0.000 C 
ATOM     31  C   UNL     1       3.264  16.171  17.280  0.00  0.00    +0.000 C 
ENDBRANCH  22  28
BRANCH  21  32
ATOM     32  O   UNL     1       0.992  17.668  18.693  0.00  0.00    +0.000 OA
ATOM     33  H   UNL     1       0.555  18.287  19.300  0.00  0.00    +0.000 HD
ENDBRANCH  21  32
ENDBRANCH   1  18
BRANCH   1  34
ATOM     34  C   UNL     1      -1.185  11.744  18.253  0.00  0.00    +0.000 C 
ATOM     35  O   UNL     1      -1.090  10.526  18.148  0.00  0.00    +0.000 OA
BRANCH  34  36
ATOM     36  O   UNL     1      -1.398  12.507  17.149  0.00  0.00    +0.000 OA
ATOM     37  H   UNL     1      -1.709  12.019  16.361  0.00  0.00    +0.000 HD
ENDBRANCH  34  36
ENDBRANCH   1  34
TORSDOF 10
ENDMDL
MODEL 2
REMARK VINA RESULT:      -6.1      0.100      1.296
REMARK  Name = 
REMARK  22 active torsions:
REMARK  status: ('A' for Active; 'I' for Inactive)
REMARK    1  A    between atoms: C_1  and  C_2
REMARK    2  A    between atoms: C_2  and  C_3
REMARK    3  A    between atoms: C_2  and  C_4
REMARK    4  A    between atoms: C_2  and  C_5
REMARK    5  A    between atoms: C_7  and  C_8
REMARK    6  A    between atoms: C_8  and  C_9
REMARK    7  A    between atoms: C_8  and  C_12
REMARK    8  A    between atoms: C_9  and  O_11
REMARK    9  A    between atoms: C_14  and  C_15
REMARK   10  A    between atoms: C_15  and  C_16
REMARK   11  A    between atoms: C_15  and  C_17
REMARK   12  A    between atoms: C_15  and  C_18
REMARK   13  A    between atoms: C_19  and  O_20
REMARK   14  A    between atoms: C_21  and  C_22
REMARK   15  A    between atoms: C_22  and  C_23
REMARK   16  A    between atoms: C_22  and  C_24
REMARK   17  A    between atoms: C_22  and  C_25
REMARK   18  A    between atoms: C_28  and  C_29
REMARK   19  A    between atoms: C_29  and  C_30
REMARK   20  A    between atoms: C_29  and  C_31
REMARK   21  A    between atoms: C_29  and  C_32
REMARK   22  A    between atoms: C_33  and  O_34
REMARK                            x       y       z     vdW  Elec       q    Type
REMARK                         _______ _______ _______ _____ _____    ______ ____
ROOT
ATOM      1  C   UNL     1      -1.114  12.553  19.569  0.00  0.00    +0.000 C 
ENDROOT
BRANCH   1   4
ATOM      2  C   UNL     1      -3.895  13.149  22.186  0.00  0.00    +0.000 A 
ATOM      3  C   UNL     1      -2.641  13.098  21.538  0.00  0.00    +0.000 A 
ATOM      4  C   UNL     1      -2.503  12.645  20.224  0.00  0.00    +0.000 A 
ATOM      5  C   UNL     1      -3.656  12.289  19.507  0.00  0.00    +0.000 A 
ATOM      6  C   UNL     1      -4.943  12.353  20.068  0.00  0.00    +0.000 A 
ATOM      7  C   UNL     1      -5.022  12.755  21.425  0.00  0.00    +0.000 A 
BRANCH   2   9
ATOM      8  C   UNL     1      -2.511  14.159  24.039  0.00  0.00    +0.000 C 
ATOM      9  C   UNL     1      -3.923  13.654  23.653  0.00  0.00    +0.000 C 
ATOM     10  C   UNL     1      -4.317  12.488  24.593  0.00  0.00    +0.000 C 
ATOM     11  C   UNL     1      -4.896  14.810  23.974  0.00  0.00    +0.000 C 
ENDBRANCH   2   9
BRANCH   6  12
ATOM     12  C   UNL     1      -6.183  12.000  19.203  0.00  0.00    +0.000 C 
ATOM     13  C   UNL     1      -5.822  11.635  17.736  0.00  0.00    +0.000 C 
ATOM     14  C   UNL     1      -6.935  10.782  19.775  0.00  0.00    +0.000 C 
ATOM     15  C   UNL     1      -7.151  13.201  19.091  0.00  0.00    +0.000 C 
ENDBRANCH   6  12
BRANCH   7  16
ATOM     16  O   UNL     1      -6.245  12.721  22.027  0.00  0.00    +0.000 OA
ATOM     17  H   UNL     1      -6.777  13.407  21.591  0.00  0.00    +0.000 HD
ENDBRANCH   7  16
ENDBRANCH   1   4
BRANCH   1  18
ATOM     18  C   UNL     1      -0.462  13.937  19.507  0.00  0.00    +0.000 A 
ATOM     19  C   UNL     1      -1.255  15.083  19.659  0.00  0.00    +0.000 A 
ATOM     20  C   UNL     1      -0.754  16.375  19.427  0.00  0.00    +0.000 A 
ATOM     21  C   UNL     1       0.596  16.466  18.999  0.00  0.00    +0.000 A 
ATOM     22  C   UNL     1       1.464  15.352  18.897  0.00  0.00    +0.000 A 
ATOM     23  C   UNL     1       0.893  14.099  19.185  0.00  0.00    +0.000 A 
BRANCH  20  24
ATOM     24  C   UNL     1      -1.646  17.622  19.659  0.00  0.00    +0.000 C 
ATOM     25  C   UNL     1      -1.044  18.629  20.675  0.00  0.00    +0.000 C 
ATOM     26  C   UNL     1      -1.829  18.418  18.343  0.00  0.00    +0.000 C 
ATOM     27  C   UNL     1      -3.031  17.227  20.215  0.00  0.00    +0.000 C 
ENDBRANCH  20  24
BRANCH  22  28
ATOM     28  C   UNL     1       2.978  15.419  18.563  0.00  0.00    +0.000 C 
ATOM     29  C   UNL     1       3.135  16.210  17.248  0.00  0.00    +0.000 C 
ATOM     30  C   UNL     1       3.802  16.159  19.656  0.00  0.00    +0.000 C 
ATOM     31  C   UNL     1       3.679  14.053  18.397  0.00  0.00    +0.000 C 
ENDBRANCH  22  28
BRANCH  21  32
ATOM     32  O   UNL     1       1.044  17.703  18.650  0.00  0.00    +0.000 OA
ATOM     33  H   UNL     1       0.855  17.798  17.702  0.00  0.00    +0.000 HD
ENDBRANCH  21  32
ENDBRANCH   1  18
BRANCH   1  34
ATOM     34  C   UNL     1      -1.126  11.776  18.242  0.00  0.00    +0.000 C 
ATOM     35  O   UNL     1      -1.017  10.558  18.141  0.00  0.00    +0.000 OA
BRANCH  34  36
ATOM     36  O   UNL     1      -1.357  12.532  17.136  0.00  0.00    +0.000 OA
ATOM     37  H   UNL     1      -0.724  13.262  16.994  0.00  0.00    +0.000 HD
ENDBRANCH  34  36
ENDBRANCH   1  34
TORSDOF 10
ENDMDL
MODEL 3
REMARK VINA RESULT:      -6.1      0.235      4.484
REMARK  Name = 
REMARK  22 active torsions:
REMARK  status: ('A' for Active; 'I' for Inactive)
REMARK    1  A    between atoms: C_1  and  C_2
REMARK    2  A    between atoms: C_2  and  C_3
REMARK    3  A    between atoms: C_2  and  C_4
REMARK    4  A    between atoms: C_2  and  C_5
REMARK    5  A    between atoms: C_7  and  C_8
REMARK    6  A    between atoms: C_8  and  C_9
REMARK    7  A    between atoms: C_8  and  C_12
REMARK    8  A    between atoms: C_9  and  O_11
REMARK    9  A    between atoms: C_14  and  C_15
REMARK   10  A    between atoms: C_15  and  C_16
REMARK   11  A    between atoms: C_15  and  C_17
REMARK   12  A    between atoms: C_15  and  C_18
REMARK   13  A    between atoms: C_19  and  O_20
REMARK   14  A    between atoms: C_21  and  C_22
REMARK   15  A    between atoms: C_22  and  C_23
REMARK   16  A    between atoms: C_22  and  C_24
REMARK   17  A    between atoms: C_22  and  C_25
REMARK   18  A    between atoms: C_28  and  C_29
REMARK   19  A    between atoms: C_29  and  C_30
REMARK   20  A    between atoms: C_29  and  C_31
REMARK   21  A    between atoms: C_29  and  C_32
REMARK   22  A    between atoms: C_33  and  O_34
REMARK                            x       y       z     vdW  Elec       q    Type
REMARK                         _______ _______ _______ _____ _____    ______ ____
ROOT
ATOM      1  C   UNL     1      -1.197  12.499  19.440  0.00  0.00    +0.000 C 
ENDROOT
BRANCH   1   4
ATOM      2  C   UNL     1      -4.998  12.317  20.112  0.00  0.00    +0.000 A 
ATOM      3  C   UNL     1      -3.729  12.202  19.503  0.00  0.00    +0.000 A 
ATOM      4  C   UNL     1      -2.556  12.588  20.155  0.00  0.00    +0.000 A 
ATOM      5  C   UNL     1      -2.637  13.046  21.479  0.00  0.00    +0.000 A 
ATOM      6  C   UNL     1      -3.859  13.147  22.168  0.00  0.00    +0.000 A 
ATOM      7  C   UNL     1      -5.026  12.808  21.440  0.00  0.00    +0.000 A 
BRANCH   2   9
ATOM      8  C   UNL     1      -5.748  11.231  17.961  0.00  0.00    +0.000 C 
ATOM      9  C   UNL     1      -6.233  11.873  19.284  0.00  0.00    +0.000 C 
ATOM     10  C   UNL     1      -7.106  13.109  18.954  0.00  0.00    +0.000 C 
ATOM     11  C   UNL     1      -7.180  10.844  19.940  0.00  0.00    +0.000 C 
ENDBRANCH   2   9
BRANCH   6  12
ATOM     12  C   UNL     1      -3.874  13.606  23.652  0.00  0.00    +0.000 C 
ATOM     13  C   UNL     1      -4.361  12.501  24.630  0.00  0.00    +0.000 C 
ATOM     14  C   UNL     1      -2.463  14.007  24.127  0.00  0.00    +0.000 C 
ATOM     15  C   UNL     1      -4.849  14.788  23.864  0.00  0.00    +0.000 C 
ENDBRANCH   6  12
BRANCH   7  16
ATOM     16  O   UNL     1      -6.232  13.001  22.047  0.00  0.00    +0.000 OA
ATOM     17  H   UNL     1      -6.053  13.546  22.830  0.00  0.00    +0.000 HD
ENDBRANCH   7  16
ENDBRANCH   1   4
BRANCH   1  18
ATOM     18  C   UNL     1      -0.590  13.896  19.277  0.00  0.00    +0.000 A 
ATOM     19  C   UNL     1       0.778  14.028  19.000  0.00  0.00    +0.000 A 
ATOM     20  C   UNL     1       1.429  15.274  19.026  0.00  0.00    +0.000 A 
ATOM     21  C   UNL     1       0.637  16.398  19.377  0.00  0.00    +0.000 A 
ATOM     22  C   UNL     1      -0.760  16.336  19.596  0.00  0.00    +0.000 A 
ATOM     23  C   UNL     1      -1.340  15.057  19.514  0.00  0.00    +0.000 A 
BRANCH  20  24
ATOM     24  C   UNL     1       2.932  15.387  18.660  0.00  0.00    +0.000 C 
ATOM     25  C   UNL     1       3.209  16.380  17.499  0.00  0.00    +0.000 C 
ATOM     26  C   UNL     1       3.750  15.916  19.863  0.00  0.00    +0.000 C 
ATOM     27  C   UNL     1       3.505  14.027  18.207  0.00  0.00    +0.000 C 
ENDBRANCH  20  24
BRANCH  22  28
ATOM     28  C   UNL     1      -1.686  17.556  19.851  0.00  0.00    +0.000 C 
ATOM     29  C   UNL     1      -1.791  18.350  18.533  0.00  0.00    +0.000 C 
ATOM     30  C   UNL     1      -3.127  17.139  20.264  0.00  0.00    +0.000 C 
ATOM     31  C   UNL     1      -1.218  18.518  20.964  0.00  0.00    +0.000 C 
ENDBRANCH  22  28
BRANCH  21  32
ATOM     32  O   UNL     1       1.290  17.582  19.528  0.00  0.00    +0.000 OA
ATOM     33  H   UNL     1       1.829  17.489  20.330  0.00  0.00    +0.000 HD
ENDBRANCH  21  32
ENDBRANCH   1  18
BRANCH   1  34
ATOM     34  C   UNL     1      -1.245  11.653  18.158  0.00  0.00    +0.000 C 
ATOM     35  O   UNL     1      -1.129  10.432  18.118  0.00  0.00    +0.000 OA
BRANCH  34  36
ATOM     36  O   UNL     1      -1.519  12.347  17.022  0.00  0.00    +0.000 OA
ATOM     37  H   UNL     1      -2.395  12.168  16.628  0.00  0.00    +0.000 HD
ENDBRANCH  34  36
ENDBRANCH   1  34
TORSDOF 10
ENDMDL
MODEL 4
REMARK VINA RESULT:      -6.1      0.192      3.238
REMARK  Name = 
REMARK  22 active torsions:
REMARK  status: ('A' for Active; 'I' for Inactive)
REMARK    1  A    between atoms: C_1  and  C_2
REMARK    2  A    between atoms: C_2  and  C_3
REMARK    3  A    between atoms: C_2  and  C_4
REMARK    4  A    between atoms: C_2  and  C_5
REMARK    5  A    between atoms: C_7  and  C_8
REMARK    6  A    between atoms: C_8  and  C_9
REMARK    7  A    between atoms: C_8  and  C_12
REMARK    8  A    between atoms: C_9  and  O_11
REMARK    9  A    between atoms: C_14  and  C_15
REMARK   10  A    between atoms: C_15  and  C_16
REMARK   11  A    between atoms: C_15  and  C_17
REMARK   12  A    between atoms: C_15  and  C_18
REMARK   13  A    between atoms: C_19  and  O_20
REMARK   14  A    between atoms: C_21  and  C_22
REMARK   15  A    between atoms: C_22  and  C_23
REMARK   16  A    between atoms: C_22  and  C_24
REMARK   17  A    between atoms: C_22  and  C_25
REMARK   18  A    between atoms: C_28  and  C_29
REMARK   19  A    between atoms: C_29  and  C_30
REMARK   20  A    between atoms: C_29  and  C_31
REMARK   21  A    between atoms: C_29  and  C_32
REMARK   22  A    between atoms: C_33  and  O_34
REMARK                            x       y       z     vdW  Elec       q    Type
REMARK                         _______ _______ _______ _____ _____    ______ ____
ROOT
ATOM      1  C   UNL     1      -1.091  12.634  19.653  0.00  0.00    +0.000 C 
ENDROOT
BRANCH   1   4
ATOM      2  C   UNL     1      -4.922  12.416  20.119  0.00  0.00    +0.000 A 
ATOM      3  C   UNL     1      -3.621  12.316  19.578  0.00  0.00    +0.000 A 
ATOM      4  C   UNL     1      -2.488  12.707  20.295  0.00  0.00    +0.000 A 
ATOM      5  C   UNL     1      -2.644  13.154  21.616  0.00  0.00    +0.000 A 
ATOM      6  C   UNL     1      -3.901  13.241  22.239  0.00  0.00    +0.000 A 
ATOM      7  C   UNL     1      -5.025  12.897  21.447  0.00  0.00    +0.000 A 
BRANCH   2   9
ATOM      8  C   UNL     1      -7.000  13.196  18.920  0.00  0.00    +0.000 C 
ATOM      9  C   UNL     1      -6.106  11.968  19.223  0.00  0.00    +0.000 C 
ATOM     10  C   UNL     1      -6.947  10.905  19.972  0.00  0.00    +0.000 C 
ATOM     11  C   UNL     1      -5.750  11.347  17.855  0.00  0.00    +0.000 C 
ENDBRANCH   2   9
BRANCH   6  12
ATOM     12  C   UNL     1      -3.999  13.688  23.723  0.00  0.00    +0.000 C 
ATOM     13  C   UNL     1      -2.650  14.198  24.300  0.00  0.00    +0.000 C 
ATOM     14  C   UNL     1      -5.003  14.847  23.892  0.00  0.00    +0.000 C 
ATOM     15  C   UNL     1      -4.408  12.511  24.639  0.00  0.00    +0.000 C 
ENDBRANCH   6  12
BRANCH   7  16
ATOM     16  O   UNL     1      -6.263  13.076  21.990  0.00  0.00    +0.000 OA
ATOM     17  H   UNL     1      -6.895  12.741  21.334  0.00  0.00    +0.000 HD
ENDBRANCH   7  16
ENDBRANCH   1   4
BRANCH   1  18
ATOM     18  C   UNL     1      -0.472  14.032  19.569  0.00  0.00    +0.000 A 
ATOM     19  C   UNL     1      -1.292  15.161  19.695  0.00  0.00    +0.000 A 
ATOM     20  C   UNL     1      -0.821  16.461  19.441  0.00  0.00    +0.000 A 
ATOM     21  C   UNL     1       0.529  16.576  19.018  0.00  0.00    +0.000 A 
ATOM     22  C   UNL     1       1.424  15.482  18.942  0.00  0.00    +0.000 A 
ATOM     23  C   UNL     1       0.881  14.221  19.250  0.00  0.00    +0.000 A 
BRANCH  20  24
ATOM     24  C   UNL     1      -1.744  17.691  19.645  0.00  0.00    +0.000 C 
ATOM     25  C   UNL     1      -3.172  17.314  20.123  0.00  0.00    +0.000 C 
ATOM     26  C   UNL     1      -1.173  18.630  20.736  0.00  0.00    +0.000 C 
ATOM     27  C   UNL     1      -1.927  18.481  18.332  0.00  0.00    +0.000 C 
ENDBRANCH  20  24
BRANCH  22  28
ATOM     28  C   UNL     1       2.938  15.579  18.615  0.00  0.00    +0.000 C 
ATOM     29  C   UNL     1       3.500  14.144  18.561  0.00  0.00    +0.000 C 
ATOM     30  C   UNL     1       3.211  16.241  17.234  0.00  0.00    +0.000 C 
ATOM     31  C   UNL     1       3.780  16.396  19.618  0.00  0.00    +0.000 C 
ENDBRANCH  22  28
BRANCH  21  32
ATOM     32  O   UNL     1       0.950  17.817  18.648  0.00  0.00    +0.000 OA
ATOM     33  H   UNL     1       1.895  17.855  18.868  0.00  0.00    +0.000 HD
ENDBRANCH  21  32
ENDBRANCH   1  18
BRANCH   1  34
ATOM     34  C   UNL     1      -1.071  11.830  18.343  0.00  0.00    +0.000 C 
ATOM     35  O   UNL     1      -0.932  10.614  18.268  0.00  0.00    +0.000 OA
BRANCH  34  36
ATOM     36  O   UNL     1      -1.311  12.557  17.220  0.00  0.00    +0.000 OA
ATOM     37  H   UNL     1      -2.054  12.239  16.671  0.00  0.00    +0.000 HD
ENDBRANCH  34  36
ENDBRANCH   1  34
TORSDOF 10
ENDMDL
MODEL 5
REMARK VINA RESULT:      -6.1      0.263      3.374
REMARK  Name = 
REMARK  22 active torsions:
REMARK  status: ('A' for Active; 'I' for Inactive)
REMARK    1  A    between atoms: C_1  and  C_2
REMARK    2  A    between atoms: C_2  and  C_3
REMARK    3  A    between atoms: C_2  and  C_4
REMARK    4  A    between atoms: C_2  and  C_5
REMARK    5  A    between atoms: C_7  and  C_8
REMARK    6  A    between atoms: C_8  and  C_9
REMARK    7  A    between atoms: C_8  and  C_12
REMARK    8  A    between atoms: C_9  and  O_11
REMARK    9  A    between atoms: C_14  and  C_15
REMARK   10  A    between atoms: C_15  and  C_16
REMARK   11  A    between atoms: C_15  and  C_17
REMARK   12  A    between atoms: C_15  and  C_18
REMARK   13  A    between atoms: C_19  and  O_20
REMARK   14  A    between atoms: C_21  and  C_22
REMARK   15  A    between atoms: C_22  and  C_23
REMARK   16  A    between atoms: C_22  and  C_24
REMARK   17  A    between atoms: C_22  and  C_25
REMARK   18  A    between atoms: C_28  and  C_29
REMARK   19  A    between atoms: C_29  and  C_30
REMARK   20  A    between atoms: C_29  and  C_31
REMARK   21  A    between atoms: C_29  and  C_32
REMARK   22  A    between atoms: C_33  and  O_34
REMARK                            x       y       z     vdW  Elec       q    Type
REMARK                         _______ _______ _______ _____ _____    ______ ____
ROOT
ATOM      1  C   UNL     1      -0.989  12.615  19.564  0.00  0.00    +0.000 C 
ENDROOT
BRANCH   1   4
ATOM      2  C   UNL     1      -4.808  12.364  20.105  0.00  0.00    +0.000 A 
ATOM      3  C   UNL     1      -3.517  12.273  19.540  0.00  0.00    +0.000 A 
ATOM      4  C   UNL     1      -2.374  12.678  20.232  0.00  0.00    +0.000 A 
ATOM      5  C   UNL     1      -2.508  13.133  21.553  0.00  0.00    +0.000 A 
ATOM      6  C   UNL     1      -3.754  13.212  22.200  0.00  0.00    +0.000 A 
ATOM      7  C   UNL     1      -4.890  12.853  21.431  0.00  0.00    +0.000 A 
BRANCH   2   9
ATOM      8  C   UNL     1      -5.464  11.162  17.986  0.00  0.00    +0.000 C 
ATOM      9  C   UNL     1      -6.005  11.899  19.235  0.00  0.00    +0.000 C 
ATOM     10  C   UNL     1      -6.822  13.134  18.779  0.00  0.00    +0.000 C 
ATOM     11  C   UNL     1      -7.017  10.938  19.897  0.00  0.00    +0.000 C 
ENDBRANCH   2   9
BRANCH   6  12
ATOM     12  C   UNL     1      -3.828  13.669  23.682  0.00  0.00    +0.000 C 
ATOM     13  C   UNL     1      -4.808  14.852  23.910  0.00  0.00    +0.000 C 
ATOM     14  C   UNL     1      -4.316  12.526  24.595  0.00  0.00    +0.000 C 
ATOM     15  C   UNL     1      -2.457  14.182  24.181  0.00  0.00    +0.000 C 
ENDBRANCH   6  12
BRANCH   7  16
ATOM     16  O   UNL     1      -6.119  13.025  21.997  0.00  0.00    +0.000 OA
ATOM     17  H   UNL     1      -6.127  13.928  22.352  0.00  0.00    +0.000 HD
ENDBRANCH   7  16
ENDBRANCH   1   4
BRANCH   1  18
ATOM     18  C   UNL     1      -0.362  14.011  19.507  0.00  0.00    +0.000 A 
ATOM     19  C   UNL     1      -1.174  15.141  19.670  0.00  0.00    +0.000 A 
ATOM     20  C   UNL     1      -0.697  16.444  19.442  0.00  0.00    +0.000 A 
ATOM     21  C   UNL     1       0.649  16.561  19.006  0.00  0.00    +0.000 A 
ATOM     22  C   UNL     1       1.535  15.463  18.893  0.00  0.00    +0.000 A 
ATOM     23  C   UNL     1       0.988  14.199  19.177  0.00  0.00    +0.000 A 
BRANCH  20  24
ATOM     24  C   UNL     1      -1.610  17.674  19.687  0.00  0.00    +0.000 C 
ATOM     25  C   UNL     1      -1.849  18.525  18.411  0.00  0.00    +0.000 C 
ATOM     26  C   UNL     1      -3.015  17.227  20.160  0.00  0.00    +0.000 C 
ATOM     27  C   UNL     1      -0.997  18.630  20.732  0.00  0.00    +0.000 C 
ENDBRANCH  20  24
BRANCH  22  28
ATOM     28  C   UNL     1       3.046  15.559  18.550  0.00  0.00    +0.000 C 
ATOM     29  C   UNL     1       3.168  16.084  17.105  0.00  0.00    +0.000 C 
ATOM     30  C   UNL     1       3.810  16.549  19.475  0.00  0.00    +0.000 C 
ATOM     31  C   UNL     1       3.832  14.234  18.655  0.00  0.00    +0.000 C 
ENDBRANCH  22  28
BRANCH  21  32
ATOM     32  O   UNL     1       1.073  17.807  18.662  0.00  0.00    +0.000 OA
ATOM     33  H   UNL     1       0.791  17.941  17.742  0.00  0.00    +0.000 HD
ENDBRANCH  21  32
ENDBRANCH   1  18
BRANCH   1  34
ATOM     34  C   UNL     1      -0.998  11.846  18.232  0.00  0.00    +0.000 C 
ATOM     35  O   UNL     1      -0.879  10.631  18.123  0.00  0.00    +0.000 OA
BRANCH  34  36
ATOM     36  O   UNL     1      -1.239  12.608  17.132  0.00  0.00    +0.000 OA
ATOM     37  H   UNL     1      -2.174  12.644  16.851  0.00  0.00    +0.000 HD
ENDBRANCH  34  36
ENDBRANCH   1  34
TORSDOF 10
ENDMDL
MODEL 6
REMARK VINA RESULT:      -6.1      0.210      3.322
REMARK  Name = 
REMARK  22 active torsions:
REMARK  status: ('A' for Active; 'I' for Inactive)
REMARK    1  A    between atoms: C_1  and  C_2
REMARK    2  A    between atoms: C_2  and  C_3
REMARK    3  A    between atoms: C_2  and  C_4
REMARK    4  A    between atoms: C_2  and  C_5
REMARK    5  A    between atoms: C_7  and  C_8
REMARK    6  A    between atoms: C_8  and  C_9
REMARK    7  A    between atoms: C_8  and  C_12
REMARK    8  A    between atoms: C_9  and  O_11
REMARK    9  A    between atoms: C_14  and  C_15
REMARK   10  A    between atoms: C_15  and  C_16
REMARK   11  A    between atoms: C_15  and  C_17
REMARK   12  A    between atoms: C_15  and  C_18
REMARK   13  A    between atoms: C_19  and  O_20
REMARK   14  A    between atoms: C_21  and  C_22
REMARK   15  A    between atoms: C_22  and  C_23
REMARK   16  A    between atoms: C_22  and  C_24
REMARK   17  A    between atoms: C_22  and  C_25
REMARK   18  A    between atoms: C_28  and  C_29
REMARK   19  A    between atoms: C_29  and  C_30
REMARK   20  A    between atoms: C_29  and  C_31
REMARK   21  A    between atoms: C_29  and  C_32
REMARK   22  A    between atoms: C_33  and  O_34
REMARK                            x       y       z     vdW  Elec       q    Type
REMARK                         _______ _______ _______ _____ _____    ______ ____
ROOT
ATOM      1  C   UNL     1      -1.205  12.491  19.492  0.00  0.00    +0.000 C 
ENDROOT
BRANCH   1   4
ATOM      2  C   UNL     1      -3.916  13.108  22.176  0.00  0.00    +0.000 A 
ATOM      3  C   UNL     1      -2.679  13.050  21.496  0.00  0.00    +0.000 A 
ATOM      4  C   UNL     1      -2.576  12.592  20.182  0.00  0.00    +0.000 A 
ATOM      5  C   UNL     1      -3.748  12.237  19.495  0.00  0.00    +0.000 A 
ATOM      6  C   UNL     1      -5.021  12.308  20.088  0.00  0.00    +0.000 A 
ATOM      7  C   UNL     1      -5.064  12.715  21.445  0.00  0.00    +0.000 A 
BRANCH   2   9
ATOM      8  C   UNL     1      -4.345  12.467  24.579  0.00  0.00    +0.000 C 
ATOM      9  C   UNL     1      -3.906  13.618  23.641  0.00  0.00    +0.000 C 
ATOM     10  C   UNL     1      -4.903  14.794  23.785  0.00  0.00    +0.000 C 
ATOM     11  C   UNL     1      -2.557  14.131  24.191  0.00  0.00    +0.000 C 
ENDBRANCH   2   9
BRANCH   6  12
ATOM     12  C   UNL     1      -6.283  11.956  19.256  0.00  0.00    +0.000 C 
ATOM     13  C   UNL     1      -7.266  13.149  19.099  0.00  0.00    +0.000 C 
ATOM     14  C   UNL     1      -5.906  11.522  17.825  0.00  0.00    +0.000 C 
ATOM     15  C   UNL     1      -7.111  10.840  19.935  0.00  0.00    +0.000 C 
ENDBRANCH   6  12
BRANCH   7  16
ATOM     16  O   UNL     1      -6.272  12.688  22.078  0.00  0.00    +0.000 OA
ATOM     17  H   UNL     1      -6.081  12.779  23.025  0.00  0.00    +0.000 HD
ENDBRANCH   7  16
ENDBRANCH   1   4
BRANCH   1  18
ATOM     18  C   UNL     1      -0.605  13.887  19.296  0.00  0.00    +0.000 A 
ATOM     19  C   UNL     1       0.758  14.019  18.999  0.00  0.00    +0.000 A 
ATOM     20  C   UNL     1       1.406  15.267  18.995  0.00  0.00    +0.000 A 
ATOM     21  C   UNL     1       0.615  16.394  19.338  0.00  0.00    +0.000 A 
ATOM     22  C   UNL     1      -0.779  16.332  19.576  0.00  0.00    +0.000 A 
ATOM     23  C   UNL     1      -1.356  15.050  19.523  0.00  0.00    +0.000 A 
BRANCH  20  24
ATOM     24  C   UNL     1       2.903  15.378  18.607  0.00  0.00    +0.000 C 
ATOM     25  C   UNL     1       3.804  15.871  19.771  0.00  0.00    +0.000 C 
ATOM     26  C   UNL     1       3.468  13.995  18.200  0.00  0.00    +0.000 C 
ATOM     27  C   UNL     1       3.112  16.379  17.450  0.00  0.00    +0.000 C 
ENDBRANCH  20  24
BRANCH  22  28
ATOM     28  C   UNL     1      -1.705  17.553  19.823  0.00  0.00    +0.000 C 
ATOM     29  C   UNL     1      -3.080  17.018  20.273  0.00  0.00    +0.000 C 
ATOM     30  C   UNL     1      -1.176  18.490  20.946  0.00  0.00    +0.000 C 
ATOM     31  C   UNL     1      -1.916  18.478  18.604  0.00  0.00    +0.000 C 
ENDBRANCH  22  28
BRANCH  21  32
ATOM     32  O   UNL     1       1.266  17.583  19.460  0.00  0.00    +0.000 OA
ATOM     33  H   UNL     1       0.680  18.250  19.067  0.00  0.00    +0.000 HD
ENDBRANCH  21  32
ENDBRANCH   1  18
BRANCH   1  34
ATOM     34  C   UNL     1      -1.227  11.607  18.234  0.00  0.00    +0.000 C 
ATOM     35  O   UNL     1      -1.058  10.392  18.228  0.00  0.00    +0.000 OA
BRANCH  34  36
ATOM     36  O   UNL     1      -1.542  12.256  17.082  0.00  0.00    +0.000 OA
ATOM     37  H   UNL     1      -1.577  11.691  16.285  0.00  0.00    +0.000 HD
ENDBRANCH  34  36
ENDBRANCH   1  34
TORSDOF 10
ENDMDL
MODEL 7
REMARK VINA RESULT:      -6.1      0.245      4.469
REMARK  Name = 
REMARK  22 active torsions:
REMARK  status: ('A' for Active; 'I' for Inactive)
REMARK    1  A    between atoms: C_1  and  C_2
REMARK    2  A    between atoms: C_2  and  C_3
REMARK    3  A    between atoms: C_2  and  C_4
REMARK    4  A    between atoms: C_2  and  C_5
REMARK    5  A    between atoms: C_7  and  C_8
REMARK    6  A    between atoms: C_8  and  C_9
REMARK    7  A    between atoms: C_8  and  C_12
REMARK    8  A    between atoms: C_9  and  O_11
REMARK    9  A    between atoms: C_14  and  C_15
REMARK   10  A    between atoms: C_15  and  C_16
REMARK   11  A    between atoms: C_15  and  C_17
REMARK   12  A    between atoms: C_15  and  C_18
REMARK   13  A    between atoms: C_19  and  O_20
REMARK   14  A    between atoms: C_21  and  C_22
REMARK   15  A    between atoms: C_22  and  C_23
REMARK   16  A    between atoms: C_22  and  C_24
REMARK   17  A    between atoms: C_22  and  C_25
REMARK   18  A    between atoms: C_28  and  C_29
REMARK   19  A    between atoms: C_29  and  C_30
REMARK   20  A    between atoms: C_29  and  C_31
REMARK   21  A    between atoms: C_29  and  C_32
REMARK   22  A    between atoms: C_33  and  O_34
REMARK                            x       y       z     vdW  Elec       q    Type
REMARK                         _______ _______ _______ _____ _____    ______ ____
ROOT
ATOM      1  C   UNL     1      -1.209  12.526  19.483  0.00  0.00    +0.000 C 
ENDROOT
BRANCH   1   4
ATOM      2  C   UNL     1      -5.012  12.367  20.158  0.00  0.00    +0.000 A 
ATOM      3  C   UNL     1      -3.744  12.244  19.548  0.00  0.00    +0.000 A 
ATOM      4  C   UNL     1      -2.568  12.624  20.198  0.00  0.00    +0.000 A 
ATOM      5  C   UNL     1      -2.645  13.085  21.522  0.00  0.00    +0.000 A 
ATOM      6  C   UNL     1      -3.866  13.195  22.212  0.00  0.00    +0.000 A 
ATOM      7  C   UNL     1      -5.036  12.861  21.485  0.00  0.00    +0.000 A 
BRANCH   2   9
ATOM      8  C   UNL     1      -7.163  13.158  19.102  0.00  0.00    +0.000 C 
ATOM      9  C   UNL     1      -6.250  11.929  19.332  0.00  0.00    +0.000 C 
ATOM     10  C   UNL     1      -7.040  10.853  20.117  0.00  0.00    +0.000 C 
ATOM     11  C   UNL     1      -5.979  11.327  17.935  0.00  0.00    +0.000 C 
ENDBRANCH   2   9
BRANCH   6  12
ATOM     12  C   UNL     1      -3.877  13.656  23.694  0.00  0.00    +0.000 C 
ATOM     13  C   UNL     1      -4.832  14.853  23.956  0.00  0.00    +0.000 C 
ATOM     14  C   UNL     1      -4.344  12.523  24.629  0.00  0.00    +0.000 C 
ATOM     15  C   UNL     1      -2.481  14.153  24.139  0.00  0.00    +0.000 C 
ENDBRANCH   6  12
BRANCH   7  16
ATOM     16  O   UNL     1      -6.239  13.063  22.093  0.00  0.00    +0.000 OA
ATOM     17  H   UNL     1      -6.330  12.355  22.751  0.00  0.00    +0.000 HD
ENDBRANCH   7  16
ENDBRANCH   1   4
BRANCH   1  18
ATOM     18  C   UNL     1      -0.597  13.919  19.312  0.00  0.00    +0.000 A 
ATOM     19  C   UNL     1       0.771  14.044  19.033  0.00  0.00    +0.000 A 
ATOM     20  C   UNL     1       1.427  15.288  19.052  0.00  0.00    +0.000 A 
ATOM     21  C   UNL     1       0.640  16.416  19.399  0.00  0.00    +0.000 A 
ATOM     22  C   UNL     1      -0.757  16.362  19.620  0.00  0.00    +0.000 A 
ATOM     23  C   UNL     1      -1.342  15.085  19.544  0.00  0.00    +0.000 A 
BRANCH  20  24
ATOM     24  C   UNL     1       2.930  15.393  18.683  0.00  0.00    +0.000 C 
ATOM     25  C   UNL     1       3.210  16.382  17.521  0.00  0.00    +0.000 C 
ATOM     26  C   UNL     1       3.753  15.918  19.885  0.00  0.00    +0.000 C 
ATOM     27  C   UNL     1       3.496  14.029  18.231  0.00  0.00    +0.000 C 
ENDBRANCH  20  24
BRANCH  22  28
ATOM     28  C   UNL     1      -1.676  17.587  19.870  0.00  0.00    +0.000 C 
ATOM     29  C   UNL     1      -3.072  17.056  20.254  0.00  0.00    +0.000 C 
ATOM     30  C   UNL     1      -1.177  18.483  21.039  0.00  0.00    +0.000 C 
ATOM     31  C   UNL     1      -1.833  18.550  18.673  0.00  0.00    +0.000 C 
ENDBRANCH  22  28
BRANCH  21  32
ATOM     32  O   UNL     1       1.299  17.599  19.543  0.00  0.00    +0.000 OA
ATOM     33  H   UNL     1       1.085  17.917  20.435  0.00  0.00    +0.000 HD
ENDBRANCH  21  32
ENDBRANCH   1  18
BRANCH   1  34
ATOM     34  C   UNL     1      -1.263  11.673  18.205  0.00  0.00    +0.000 C 
ATOM     35  O   UNL     1      -1.169  10.451  18.172  0.00  0.00    +0.000 OA
BRANCH  34  36
ATOM     36  O   UNL     1      -1.515  12.366  17.063  0.00  0.00    +0.000 OA
ATOM     37  H   UNL     1      -0.934  13.136  16.908  0.00  0.00    +0.000 HD
ENDBRANCH  34  36
ENDBRANCH   1  34
TORSDOF 10
ENDMDL
MODEL 8
REMARK VINA RESULT:      -6.1      0.103      3.240
REMARK  Name = 
REMARK  22 active torsions:
REMARK  status: ('A' for Active; 'I' for Inactive)
REMARK    1  A    between atoms: C_1  and  C_2
REMARK    2  A    between atoms: C_2  and  C_3
REMARK    3  A    between atoms: C_2  and  C_4
REMARK    4  A    between atoms: C_2  and  C_5
REMARK    5  A    between atoms: C_7  and  C_8
REMARK    6  A    between atoms: C_8  and  C_9
REMARK    7  A    between atoms: C_8  and  C_12
REMARK    8  A    between atoms: C_9  and  O_11
REMARK    9  A    between atoms: C_14  and  C_15
REMARK   10  A    between atoms: C_15  and  C_16
REMARK   11  A    between atoms: C_15  and  C_17
REMARK   12  A    between atoms: C_15  and  C_18
REMARK   13  A    between atoms: C_19  and  O_20
REMARK   14  A    between atoms: C_21  and  C_22
REMARK   15  A    between atoms: C_22  and  C_23
REMARK   16  A    between atoms: C_22  and  C_24
REMARK   17  A    between atoms: C_22  and  C_25
REMARK   18  A    between atoms: C_28  and  C_29
REMARK   19  A    between atoms: C_29  and  C_30
REMARK   20  A    between atoms: C_29  and  C_31
REMARK   21  A    between atoms: C_29  and  C_32
REMARK   22  A    between atoms: C_33  and  O_34
REMARK                            x       y       z     vdW  Elec       q    Type
REMARK                         _______ _______ _______ _____ _____    ______ ____
ROOT
ATOM      1  C   UNL     1      -1.163  12.528  19.604  0.00  0.00    +0.000 C 
ENDROOT
BRANCH   1   4
ATOM      2  C   UNL     1      -4.990  12.341  20.110  0.00  0.00    +0.000 A 
ATOM      3  C   UNL     1      -3.695  12.230  19.556  0.00  0.00    +0.000 A 
ATOM      4  C   UNL     1      -2.552  12.614  20.259  0.00  0.00    +0.000 A 
ATOM      5  C   UNL     1      -2.691  13.066  21.580  0.00  0.00    +0.000 A 
ATOM      6  C   UNL     1      -3.941  13.164  22.217  0.00  0.00    +0.000 A 
ATOM      7  C   UNL     1      -5.075  12.827  21.437  0.00  0.00    +0.000 A 
BRANCH   2   9
ATOM      8  C   UNL     1      -7.099  13.124  18.968  0.00  0.00    +0.000 C 
ATOM      9  C   UNL     1      -6.187  11.900  19.227  0.00  0.00    +0.000 C 
ATOM     10  C   UNL     1      -7.001  10.811  19.969  0.00  0.00    +0.000 C 
ATOM     11  C   UNL     1      -5.851  11.311  17.839  0.00  0.00    +0.000 C 
ENDBRANCH   2   9
BRANCH   6  12
ATOM     12  C   UNL     1      -4.020  13.617  23.700  0.00  0.00    +0.000 C 
ATOM     13  C   UNL     1      -4.467  12.483  24.663  0.00  0.00    +0.000 C 
ATOM     14  C   UNL     1      -2.648  14.100  24.211  0.00  0.00    +0.000 C 
ATOM     15  C   UNL     1      -5.068  14.740  23.889  0.00  0.00    +0.000 C 
ENDBRANCH   6  12
BRANCH   7  16
ATOM     16  O   UNL     1      -6.306  13.017  21.992  0.00  0.00    +0.000 OA
ATOM     17  H   UNL     1      -6.491  13.967  21.915  0.00  0.00    +0.000 HD
ENDBRANCH   7  16
ENDBRANCH   1   4
BRANCH   1  18
ATOM     18  C   UNL     1      -0.513  13.915  19.552  0.00  0.00    +0.000 A 
ATOM     19  C   UNL     1      -1.307  15.057  19.725  0.00  0.00    +0.000 A 
ATOM     20  C   UNL     1      -0.810  16.353  19.502  0.00  0.00    +0.000 A 
ATOM     21  C   UNL     1       0.535  16.451  19.061  0.00  0.00    +0.000 A 
ATOM     22  C   UNL     1       1.404  15.341  18.938  0.00  0.00    +0.000 A 
ATOM     23  C   UNL     1       0.838  14.083  19.217  0.00  0.00    +0.000 A 
BRANCH  20  24
ATOM     24  C   UNL     1      -1.703  17.596  19.758  0.00  0.00    +0.000 C 
ATOM     25  C   UNL     1      -1.079  18.605  20.758  0.00  0.00    +0.000 C 
ATOM     26  C   UNL     1      -1.924  18.390  18.447  0.00  0.00    +0.000 C 
ATOM     27  C   UNL     1      -3.070  17.194  20.351  0.00  0.00    +0.000 C 
ENDBRANCH  20  24
BRANCH  22  28
ATOM     28  C   UNL     1       2.914  15.414  18.589  0.00  0.00    +0.000 C 
ATOM     29  C   UNL     1       3.644  16.053  19.788  0.00  0.00    +0.000 C 
ATOM     30  C   UNL     1       3.544  14.012  18.350  0.00  0.00    +0.000 C 
ATOM     31  C   UNL     1       3.260  16.224  17.320  0.00  0.00    +0.000 C 
ENDBRANCH  22  28
BRANCH  21  32
ATOM     32  O   UNL     1       0.977  17.693  18.722  0.00  0.00    +0.000 OA
ATOM     33  H   UNL     1       1.311  18.091  19.543  0.00  0.00    +0.000 HD
ENDBRANCH  21  32
ENDBRANCH   1  18
BRANCH   1  34
ATOM     34  C   UNL     1      -1.172  11.760  18.272  0.00  0.00    +0.000 C 
ATOM     35  O   UNL     1      -1.072  10.542  18.164  0.00  0.00    +0.000 OA
BRANCH  34  36
ATOM     36  O   UNL     1      -1.389  12.525  17.170  0.00  0.00    +0.000 OA
ATOM     37  H   UNL     1      -1.944  12.110  16.481  0.00  0.00    +0.000 HD
ENDBRANCH  34  36
ENDBRANCH   1  34
TORSDOF 10
ENDMDL
MODEL 9
REMARK VINA RESULT:      -6.1      0.908      7.067
REMARK  Name = 
REMARK  22 active torsions:
REMARK  status: ('A' for Active; 'I' for Inactive)
REMARK    1  A    between atoms: C_1  and  C_2
REMARK    2  A    between atoms: C_2  and  C_3
REMARK    3  A    between atoms: C_2  and  C_4
REMARK    4  A    between atoms: C_2  and  C_5
REMARK    5  A    between atoms: C_7  and  C_8
REMARK    6  A    between atoms: C_8  and  C_9
REMARK    7  A    between atoms: C_8  and  C_12
REMARK    8  A    between atoms: C_9  and  O_11
REMARK    9  A    between atoms: C_14  and  C_15
REMARK   10  A    between atoms: C_15  and  C_16
REMARK   11  A    between atoms: C_15  and  C_17
REMARK   12  A    between atoms: C_15  and  C_18
REMARK   13  A    between atoms: C_19  and  O_20
REMARK   14  A    between atoms: C_21  and  C_22
REMARK   15  A    between atoms: C_22  and  C_23
REMARK   16  A    between atoms: C_22  and  C_24
REMARK   17  A    between atoms: C_22  and  C_25
REMARK   18  A    between atoms: C_28  and  C_29
REMARK   19  A    between atoms: C_29  and  C_30
REMARK   20  A    between atoms: C_29  and  C_31
REMARK   21  A    between atoms: C_29  and  C_32
REMARK   22  A    between atoms: C_33  and  O_34
REMARK                            x       y       z     vdW  Elec       q    Type
REMARK                         _______ _______ _______ _____ _____    ______ ____
ROOT
ATOM      1  C   UNL     1      -1.735  12.395  19.030  0.00  0.00    +0.000 C 
ENDROOT
BRANCH   1   4
ATOM      2  C   UNL     1      -0.506  15.834  20.296  0.00  0.00    +0.000 A 
ATOM      3  C   UNL     1      -1.305  14.697  20.040  0.00  0.00    +0.000 A 
ATOM      4  C   UNL     1      -0.819  13.593  19.337  0.00  0.00    +0.000 A 
ATOM      5  C   UNL     1       0.523  13.589  18.927  0.00  0.00    +0.000 A 
ATOM      6  C   UNL     1       1.393  14.664  19.182  0.00  0.00    +0.000 A 
ATOM      7  C   UNL     1       0.833  15.788  19.839  0.00  0.00    +0.000 A 
BRANCH   2   9
ATOM      8  C   UNL     1      -2.632  16.647  21.386  0.00  0.00    +0.000 C 
ATOM      9  C   UNL     1      -1.159  17.008  21.072  0.00  0.00    +0.000 C 
ATOM     10  C   UNL     1      -1.128  18.286  20.197  0.00  0.00    +0.000 C 
ATOM     11  C   UNL     1      -0.515  17.398  22.421  0.00  0.00    +0.000 C 
ENDBRANCH   2   9
BRANCH   6  12
ATOM     12  C   UNL     1       2.882  14.572  18.753  0.00  0.00    +0.000 C 
ATOM     13  C   UNL     1       3.290  15.659  17.721  0.00  0.00    +0.000 C 
ATOM     14  C   UNL     1       3.824  14.753  19.961  0.00  0.00    +0.000 C 
ATOM     15  C   UNL     1       3.185  13.224  18.057  0.00  0.00    +0.000 C 
ENDBRANCH   6  12
BRANCH   7  16
ATOM     16  O   UNL     1       1.624  16.887  20.002  0.00  0.00    +0.000 OA
ATOM     17  H   UNL     1       2.252  16.664  20.708  0.00  0.00    +0.000 HD
ENDBRANCH   7  16
ENDBRANCH   1   4
BRANCH   1  18
ATOM     18  C   UNL     1      -2.963  12.417  19.944  0.00  0.00    +0.000 A 
ATOM     19  C   UNL     1      -4.231  12.159  19.405  0.00  0.00    +0.000 A 
ATOM     20  C   UNL     1      -5.411  12.348  20.145  0.00  0.00    +0.000 A 
ATOM     21  C   UNL     1      -5.260  12.846  21.466  0.00  0.00    +0.000 A 
ATOM     22  C   UNL     1      -4.005  13.056  22.087  0.00  0.00    +0.000 A 
ATOM     23  C   UNL     1      -2.874  12.806  21.289  0.00  0.00    +0.000 A 
BRANCH  20  24
ATOM     24  C   UNL     1      -6.793  11.999  19.532  0.00  0.00    +0.000 C 
ATOM     25  C   UNL     1      -6.694  11.324  18.139  0.00  0.00    +0.000 C 
ATOM     26  C   UNL     1      -7.551  10.992  20.431  0.00  0.00    +0.000 C 
ATOM     27  C   UNL     1      -7.657  13.263  19.336  0.00  0.00    +0.000 C 
ENDBRANCH  20  24
BRANCH  22  28
ATOM     28  C   UNL     1      -3.793  13.470  23.567  0.00  0.00    +0.000 C 
ATOM     29  C   UNL     1      -2.284  13.714  23.775  0.00  0.00    +0.000 C 
ATOM     30  C   UNL     1      -4.536  14.786  23.934  0.00  0.00    +0.000 C 
ATOM     31  C   UNL     1      -4.270  12.441  24.616  0.00  0.00    +0.000 C 
ENDBRANCH  22  28
BRANCH  21  32
ATOM     32  O   UNL     1      -6.404  13.151  22.138  0.00  0.00    +0.000 OA
ATOM     33  H   UNL     1      -7.000  12.396  22.007  0.00  0.00    +0.000 HD
ENDBRANCH  21  32
ENDBRANCH   1  18
BRANCH   1  34
ATOM     34  C   UNL     1      -0.978  11.057  18.982  0.00  0.00    +0.000 C 
ATOM     35  O   UNL     1      -0.634  10.411  19.965  0.00  0.00    +0.000 OA
BRANCH  34  36
ATOM     36  O   UNL     1      -0.772  10.559  17.734  0.00  0.00    +0.000 OA
ATOM     37  H   UNL     1      -1.473  10.765  17.085  0.00  0.00    +0.000 HD
ENDBRANCH  34  36
ENDBRANCH   1  34
TORSDOF 10
ENDMDL
