MODEL 1
REMARK VINA RESULT:      -8.6      0.000      0.000
REMARK  Name = 
REMARK  8 active torsions:
REMARK  status: ('A' for Active; 'I' for Inactive)
REMARK    1  A    between atoms: C_2  and  C_21
REMARK    2  A    between atoms: N_3  and  C_4
REMARK    3  A    between atoms: C_4  and  C_5
REMARK    4  A    between atoms: C_5  and  C_6
REMARK    5  A    between atoms: C_6  and  C_7
REMARK    6  A    between atoms: C_7  and  N_8
REMARK    7  A    between atoms: N_11  and  C_12
REMARK    8  A    between atoms: C_15  and  O_16
REMARK                            x       y       z     vdW  Elec       q    Type
REMARK                         _______ _______ _______ _____ _____    ______ ____
ROOT
ATOM      1  C   UNL     1       1.638   3.676  21.523  0.00  0.00    +0.000 C 
ENDROOT
BRANCH   1   2
ATOM      2  C   UNL     1       2.437   4.792  20.858  0.00  0.00    +0.000 C 
BRANCH   2   5
ATOM      3  O   UNL     1       2.930   7.072  19.211  0.00  0.00    +0.000 OA
ATOM      4  C   UNL     1       2.061   7.109  20.073  0.00  0.00    +0.000 C 
ATOM      5  N   UNL     1       1.732   6.048  20.887  0.00  0.00    +0.000 N 
ATOM      6  H   UNL     1       0.966   6.194  21.539  0.00  0.00    +0.000 HD
BRANCH   4   7
ATOM      7  C   UNL     1       1.275   8.354  20.343  0.00  0.00    +0.000 A 
ATOM      8  C   UNL     1       0.697   8.536  21.590  0.00  0.00    +0.000 A 
ATOM      9  C   UNL     1      -0.074   9.679  21.808  0.00  0.00    +0.000 A 
ATOM     10  C   UNL     1      -0.687   9.926  23.042  0.00  0.00    +0.000 A 
ATOM     11  C   UNL     1      -1.463  11.070  23.232  0.00  0.00    +0.000 A 
ATOM     12  C   UNL     1      -1.636  11.978  22.192  0.00  0.00    +0.000 A 
ATOM     13  C   UNL     1      -1.028  11.750  20.956  0.00  0.00    +0.000 A 
ATOM     14  C   UNL     1      -0.242  10.604  20.754  0.00  0.00    +0.000 A 
ATOM     15  C   UNL     1       0.395  10.325  19.541  0.00  0.00    +0.000 A 
ATOM     16  N   UNL     1       1.150   9.230  19.305  0.00  0.00    +0.000 NA
ENDBRANCH   4   7
ENDBRANCH   2   5
ENDBRANCH   1   2
BRANCH   1  17
ATOM     17  C   UNL     1       1.924   2.310  20.892  0.00  0.00    +0.000 C 
BRANCH  17  18
ATOM     18  C   UNL     1       1.540   2.191  19.406  0.00  0.00    +0.000 C 
BRANCH  18  19
ATOM     19  N   UNL     1       2.644   1.756  18.539  0.00  0.00    +0.000 NA
ATOM     20  C   UNL     1       2.748   2.560  17.298  0.00  0.00    +0.000 C 
ATOM     21  C   UNL     1       3.167   4.031  17.513  0.00  0.00    +0.000 C 
ATOM     22  N   UNL     1       4.448   4.073  18.229  0.00  0.00    +0.000 N 
ATOM     23  C   UNL     1       4.508   3.278  19.470  0.00  0.00    +0.000 C 
ATOM     24  C   UNL     1       3.952   1.846  19.239  0.00  0.00    +0.000 C 
BRANCH  22  25
ATOM     25  C   UNL     1       5.419   4.997  17.894  0.00  0.00    +0.000 A 
ATOM     26  C   UNL     1       6.666   5.039  18.543  0.00  0.00    +0.000 A 
ATOM     27  C   UNL     1       7.606   6.044  18.284  0.00  0.00    +0.000 A 
ATOM     28  C   UNL     1       7.310   7.028  17.354  0.00  0.00    +0.000 A 
ATOM     29  C   UNL     1       6.106   7.005  16.670  0.00  0.00    +0.000 A 
ATOM     30  C   UNL     1       5.175   5.995  16.939  0.00  0.00    +0.000 A 
BRANCH  28  31
ATOM     31  O   UNL     1       8.176   8.047  17.092  0.00  0.00    +0.000 OA
ATOM     32  H   UNL     1       7.738   8.885  17.314  0.00  0.00    +0.000 HD
ENDBRANCH  28  31
ENDBRANCH  22  25
ENDBRANCH  18  19
ENDBRANCH  17  18
ENDBRANCH   1  17
TORSDOF 8
ENDMDL
MODEL 2
REMARK VINA RESULT:      -8.6      6.435      9.175
REMARK  Name = 
REMARK  8 active torsions:
REMARK  status: ('A' for Active; 'I' for Inactive)
REMARK    1  A    between atoms: C_2  and  C_21
REMARK    2  A    between atoms: N_3  and  C_4
REMARK    3  A    between atoms: C_4  and  C_5
REMARK    4  A    between atoms: C_5  and  C_6
REMARK    5  A    between atoms: C_6  and  C_7
REMARK    6  A    between atoms: C_7  and  N_8
REMARK    7  A    between atoms: N_11  and  C_12
REMARK    8  A    between atoms: C_15  and  O_16
REMARK                            x       y       z     vdW  Elec       q    Type
REMARK                         _______ _______ _______ _____ _____    ______ ____
ROOT
ATOM      1  C   UNL     1       8.243   9.403  17.892  0.00  0.00    +0.000 C 
ENDROOT
BRANCH   1   2
ATOM      2  C   UNL     1       9.101  10.097  18.945  0.00  0.00    +0.000 C 
BRANCH   2   5
ATOM      3  O   UNL     1      11.194  11.715  20.020  0.00  0.00    +0.000 OA
ATOM      4  C   UNL     1      10.444  12.165  19.163  0.00  0.00    +0.000 C 
ATOM      5  N   UNL     1       9.432  11.446  18.565  0.00  0.00    +0.000 N 
ATOM      6  H   UNL     1       8.902  11.922  17.839  0.00  0.00    +0.000 HD
BRANCH   4   7
ATOM      7  C   UNL     1      10.547  13.582  18.694  0.00  0.00    +0.000 A 
ATOM      8  C   UNL     1       9.738  14.549  19.272  0.00  0.00    +0.000 A 
ATOM      9  C   UNL     1       9.812  15.857  18.788  0.00  0.00    +0.000 A 
ATOM     10  C   UNL     1       9.024  16.883  19.324  0.00  0.00    +0.000 A 
ATOM     11  C   UNL     1       9.107  18.180  18.816  0.00  0.00    +0.000 A 
ATOM     12  C   UNL     1       9.976  18.465  17.766  0.00  0.00    +0.000 A 
ATOM     13  C   UNL     1      10.773  17.455  17.224  0.00  0.00    +0.000 A 
ATOM     14  C   UNL     1      10.701  16.147  17.729  0.00  0.00    +0.000 A 
ATOM     15  C   UNL     1      11.476  15.096  17.230  0.00  0.00    +0.000 A 
ATOM     16  N   UNL     1      11.428  13.825  17.681  0.00  0.00    +0.000 NA
ENDBRANCH   4   7
ENDBRANCH   2   5
ENDBRANCH   1   2
BRANCH   1  17
ATOM     17  C   UNL     1       8.067   7.910  18.186  0.00  0.00    +0.000 C 
BRANCH  17  18
ATOM     18  C   UNL     1       7.565   7.072  16.996  0.00  0.00    +0.000 C 
BRANCH  18  19
ATOM     19  N   UNL     1       7.676   5.621  17.201  0.00  0.00    +0.000 NA
ATOM     20  C   UNL     1       7.184   5.192  18.533  0.00  0.00    +0.000 C 
ATOM     21  C   UNL     1       5.663   5.357  18.745  0.00  0.00    +0.000 C 
ATOM     22  N   UNL     1       4.943   4.620  17.699  0.00  0.00    +0.000 N 
ATOM     23  C   UNL     1       5.358   4.914  16.315  0.00  0.00    +0.000 C 
ATOM     24  C   UNL     1       6.904   4.868  16.178  0.00  0.00    +0.000 C 
BRANCH  22  25
ATOM     25  C   UNL     1       3.793   3.912  17.994  0.00  0.00    +0.000 A 
ATOM     26  C   UNL     1       3.722   2.514  17.859  0.00  0.00    +0.000 A 
ATOM     27  C   UNL     1       2.527   1.809  18.048  0.00  0.00    +0.000 A 
ATOM     28  C   UNL     1       1.375   2.502  18.386  0.00  0.00    +0.000 A 
ATOM     29  C   UNL     1       1.410   3.875  18.559  0.00  0.00    +0.000 A 
ATOM     30  C   UNL     1       2.610   4.568  18.367  0.00  0.00    +0.000 A 
BRANCH  28  31
ATOM     31  O   UNL     1       0.180   1.866  18.546  0.00  0.00    +0.000 OA
ATOM     32  H   UNL     1      -0.010   1.807  19.496  0.00  0.00    +0.000 HD
ENDBRANCH  28  31
ENDBRANCH  22  25
ENDBRANCH  18  19
ENDBRANCH  17  18
ENDBRANCH   1  17
TORSDOF 8
ENDMDL
MODEL 3
REMARK VINA RESULT:      -8.2      0.947      1.550
REMARK  Name = 
REMARK  8 active torsions:
REMARK  status: ('A' for Active; 'I' for Inactive)
REMARK    1  A    between atoms: C_2  and  C_21
REMARK    2  A    between atoms: N_3  and  C_4
REMARK    3  A    between atoms: C_4  and  C_5
REMARK    4  A    between atoms: C_5  and  C_6
REMARK    5  A    between atoms: C_6  and  C_7
REMARK    6  A    between atoms: C_7  and  N_8
REMARK    7  A    between atoms: N_11  and  C_12
REMARK    8  A    between atoms: C_15  and  O_16
REMARK                            x       y       z     vdW  Elec       q    Type
REMARK                         _______ _______ _______ _____ _____    ______ ____
ROOT
ATOM      1  C   UNL     1       1.064   4.254  20.577  0.00  0.00    +0.000 C 
ENDROOT
BRANCH   1   2
ATOM      2  C   UNL     1       2.012   5.424  20.822  0.00  0.00    +0.000 C 
BRANCH   2   5
ATOM      3  O   UNL     1       2.146   7.957  19.510  0.00  0.00    +0.000 OA
ATOM      4  C   UNL     1       1.453   7.815  20.510  0.00  0.00    +0.000 C 
ATOM      5  N   UNL     1       1.302   6.624  21.185  0.00  0.00    +0.000 N 
ATOM      6  H   UNL     1       0.668   6.627  21.980  0.00  0.00    +0.000 HD
BRANCH   4   7
ATOM      7  C   UNL     1       0.708   8.961  21.119  0.00  0.00    +0.000 A 
ATOM      8  C   UNL     1       0.496  10.109  20.369  0.00  0.00    +0.000 A 
ATOM      9  C   UNL     1      -0.157  11.187  20.969  0.00  0.00    +0.000 A 
ATOM     10  C   UNL     1      -0.403  12.375  20.271  0.00  0.00    +0.000 A 
ATOM     11  C   UNL     1      -1.047  13.444  20.897  0.00  0.00    +0.000 A 
ATOM     12  C   UNL     1      -1.451  13.337  22.225  0.00  0.00    +0.000 A 
ATOM     13  C   UNL     1      -1.218  12.156  22.933  0.00  0.00    +0.000 A 
ATOM     14  C   UNL     1      -0.574  11.074  22.314  0.00  0.00    +0.000 A 
ATOM     15  C   UNL     1      -0.317   9.866  22.971  0.00  0.00    +0.000 A 
ATOM     16  N   UNL     1       0.307   8.807  22.413  0.00  0.00    +0.000 NA
ENDBRANCH   4   7
ENDBRANCH   2   5
ENDBRANCH   1   2
BRANCH   1  17
ATOM     17  C   UNL     1       1.797   2.909  20.585  0.00  0.00    +0.000 C 
BRANCH  17  18
ATOM     18  C   UNL     1       1.657   2.090  19.289  0.00  0.00    +0.000 C 
BRANCH  18  19
ATOM     19  N   UNL     1       2.940   1.656  18.718  0.00  0.00    +0.000 NA
ATOM     20  C   UNL     1       3.210   2.261  17.391  0.00  0.00    +0.000 C 
ATOM     21  C   UNL     1       3.451   3.786  17.413  0.00  0.00    +0.000 C 
ATOM     22  N   UNL     1       4.563   4.091  18.322  0.00  0.00    +0.000 N 
ATOM     23  C   UNL     1       4.453   3.514  19.674  0.00  0.00    +0.000 C 
ATOM     24  C   UNL     1       4.077   2.009  19.607  0.00  0.00    +0.000 C 
BRANCH  22  25
ATOM     25  C   UNL     1       5.497   5.058  18.003  0.00  0.00    +0.000 A 
ATOM     26  C   UNL     1       6.689   5.214  18.732  0.00  0.00    +0.000 A 
ATOM     27  C   UNL     1       7.582   6.264  18.482  0.00  0.00    +0.000 A 
ATOM     28  C   UNL     1       7.293   7.177  17.481  0.00  0.00    +0.000 A 
ATOM     29  C   UNL     1       6.145   7.040  16.718  0.00  0.00    +0.000 A 
ATOM     30  C   UNL     1       5.261   5.988  16.978  0.00  0.00    +0.000 A 
BRANCH  28  31
ATOM     31  O   UNL     1       8.111   8.236  17.222  0.00  0.00    +0.000 OA
ATOM     32  H   UNL     1       8.891   8.167  17.796  0.00  0.00    +0.000 HD
ENDBRANCH  28  31
ENDBRANCH  22  25
ENDBRANCH  18  19
ENDBRANCH  17  18
ENDBRANCH   1  17
TORSDOF 8
ENDMDL
MODEL 4
REMARK VINA RESULT:      -8.2      6.552      8.942
REMARK  Name = 
REMARK  8 active torsions:
REMARK  status: ('A' for Active; 'I' for Inactive)
REMARK    1  A    between atoms: C_2  and  C_21
REMARK    2  A    between atoms: N_3  and  C_4
REMARK    3  A    between atoms: C_4  and  C_5
REMARK    4  A    between atoms: C_5  and  C_6
REMARK    5  A    between atoms: C_6  and  C_7
REMARK    6  A    between atoms: C_7  and  N_8
REMARK    7  A    between atoms: N_11  and  C_12
REMARK    8  A    between atoms: C_15  and  O_16
REMARK                            x       y       z     vdW  Elec       q    Type
REMARK                         _______ _______ _______ _____ _____    ______ ____
ROOT
ATOM      1  C   UNL     1       8.680   9.642  18.543  0.00  0.00    +0.000 C 
ENDROOT
BRANCH   1   2
ATOM      2  C   UNL     1       8.661  11.013  17.876  0.00  0.00    +0.000 C 
BRANCH   2   5
ATOM      3  O   UNL     1      10.799  12.879  17.559  0.00  0.00    +0.000 OA
ATOM      4  C   UNL     1      10.107  12.898  18.570  0.00  0.00    +0.000 C 
ATOM      5  N   UNL     1       9.037  12.060  18.791  0.00  0.00    +0.000 N 
ATOM      6  H   UNL     1       8.518  12.201  19.655  0.00  0.00    +0.000 HD
BRANCH   4   7
ATOM      7  C   UNL     1      10.388  13.842  19.696  0.00  0.00    +0.000 A 
ATOM      8  C   UNL     1       9.627  13.766  20.853  0.00  0.00    +0.000 A 
ATOM      9  C   UNL     1       9.869  14.687  21.874  0.00  0.00    +0.000 A 
ATOM     10  C   UNL     1       9.138  14.668  23.067  0.00  0.00    +0.000 A 
ATOM     11  C   UNL     1       9.391  15.607  24.069  0.00  0.00    +0.000 A 
ATOM     12  C   UNL     1      10.376  16.574  23.888  0.00  0.00    +0.000 A 
ATOM     13  C   UNL     1      11.118  16.603  22.705  0.00  0.00    +0.000 A 
ATOM     14  C   UNL     1      10.875  15.663  21.692  0.00  0.00    +0.000 A 
ATOM     15  C   UNL     1      11.588  15.639  20.490  0.00  0.00    +0.000 A 
ATOM     16  N   UNL     1      11.377  14.758  19.490  0.00  0.00    +0.000 NA
ENDBRANCH   4   7
ENDBRANCH   2   5
ENDBRANCH   1   2
BRANCH   1  17
ATOM     17  C   UNL     1       8.207   8.535  17.595  0.00  0.00    +0.000 C 
BRANCH  17  18
ATOM     18  C   UNL     1       7.891   7.191  18.278  0.00  0.00    +0.000 C 
BRANCH  18  19
ATOM     19  N   UNL     1       7.619   6.095  17.337  0.00  0.00    +0.000 NA
ATOM     20  C   UNL     1       7.462   4.786  18.013  0.00  0.00    +0.000 C 
ATOM     21  C   UNL     1       6.207   4.664  18.905  0.00  0.00    +0.000 C 
ATOM     22  N   UNL     1       5.010   4.943  18.101  0.00  0.00    +0.000 N 
ATOM     23  C   UNL     1       5.041   6.202  17.333  0.00  0.00    +0.000 C 
ATOM     24  C   UNL     1       6.379   6.345  16.557  0.00  0.00    +0.000 C 
BRANCH  22  25
ATOM     25  C   UNL     1       3.852   4.208  18.272  0.00  0.00    +0.000 A 
ATOM     26  C   UNL     1       3.877   2.861  18.674  0.00  0.00    +0.000 A 
ATOM     27  C   UNL     1       2.714   2.083  18.738  0.00  0.00    +0.000 A 
ATOM     28  C   UNL     1       1.496   2.653  18.405  0.00  0.00    +0.000 A 
ATOM     29  C   UNL     1       1.425   3.986  18.035  0.00  0.00    +0.000 A 
ATOM     30  C   UNL     1       2.594   4.752  17.974  0.00  0.00    +0.000 A 
BRANCH  28  31
ATOM     31  O   UNL     1       0.341   1.930  18.418  0.00  0.00    +0.000 OA
ATOM     32  H   UNL     1      -0.374   2.490  18.073  0.00  0.00    +0.000 HD
ENDBRANCH  28  31
ENDBRANCH  22  25
ENDBRANCH  18  19
ENDBRANCH  17  18
ENDBRANCH   1  17
TORSDOF 8
ENDMDL
MODEL 5
REMARK VINA RESULT:      -7.9      6.102      8.054
REMARK  Name = 
REMARK  8 active torsions:
REMARK  status: ('A' for Active; 'I' for Inactive)
REMARK    1  A    between atoms: C_2  and  C_21
REMARK    2  A    between atoms: N_3  and  C_4
REMARK    3  A    between atoms: C_4  and  C_5
REMARK    4  A    between atoms: C_5  and  C_6
REMARK    5  A    between atoms: C_6  and  C_7
REMARK    6  A    between atoms: C_7  and  N_8
REMARK    7  A    between atoms: N_11  and  C_12
REMARK    8  A    between atoms: C_15  and  O_16
REMARK                            x       y       z     vdW  Elec       q    Type
REMARK                         _______ _______ _______ _____ _____    ______ ____
ROOT
ATOM      1  C   UNL     1       8.413   9.834  18.305  0.00  0.00    +0.000 C 
ENDROOT
BRANCH   1   2
ATOM      2  C   UNL     1       9.593  10.318  19.141  0.00  0.00    +0.000 C 
BRANCH   2   5
ATOM      3  O   UNL     1       9.182  13.034  19.921  0.00  0.00    +0.000 OA
ATOM      4  C   UNL     1       9.033  12.129  20.733  0.00  0.00    +0.000 C 
ATOM      5  N   UNL     1       9.176  10.792  20.436  0.00  0.00    +0.000 N 
ATOM      6  H   UNL     1       8.989  10.135  21.189  0.00  0.00    +0.000 HD
BRANCH   4   7
ATOM      7  C   UNL     1       8.698  12.406  22.165  0.00  0.00    +0.000 A 
ATOM      8  C   UNL     1       8.895  13.680  22.675  0.00  0.00    +0.000 A 
ATOM      9  C   UNL     1       8.624  13.907  24.026  0.00  0.00    +0.000 A 
ATOM     10  C   UNL     1       8.802  15.169  24.607  0.00  0.00    +0.000 A 
ATOM     11  C   UNL     1       8.535  15.368  25.962  0.00  0.00    +0.000 A 
ATOM     12  C   UNL     1       8.091  14.311  26.751  0.00  0.00    +0.000 A 
ATOM     13  C   UNL     1       7.904  13.048  26.185  0.00  0.00    +0.000 A 
ATOM     14  C   UNL     1       8.165  12.835  24.823  0.00  0.00    +0.000 A 
ATOM     15  C   UNL     1       7.992  11.595  24.201  0.00  0.00    +0.000 A 
ATOM     16  N   UNL     1       8.242  11.349  22.897  0.00  0.00    +0.000 NA
ENDBRANCH   4   7
ENDBRANCH   2   5
ENDBRANCH   1   2
BRANCH   1  17
ATOM     17  C   UNL     1       8.429   8.314  18.115  0.00  0.00    +0.000 C 
BRANCH  17  18
ATOM     18  C   UNL     1       7.219   7.746  17.351  0.00  0.00    +0.000 C 
BRANCH  18  19
ATOM     19  N   UNL     1       7.195   6.278  17.281  0.00  0.00    +0.000 NA
ATOM     20  C   UNL     1       6.891   5.647  18.587  0.00  0.00    +0.000 C 
ATOM     21  C   UNL     1       5.457   5.894  19.107  0.00  0.00    +0.000 C 
ATOM     22  N   UNL     1       4.489   5.430  18.106  0.00  0.00    +0.000 N 
ATOM     23  C   UNL     1       4.694   5.944  16.739  0.00  0.00    +0.000 C 
ATOM     24  C   UNL     1       6.179   5.797  16.308  0.00  0.00    +0.000 C 
BRANCH  22  25
ATOM     25  C   UNL     1       3.332   4.776  18.486  0.00  0.00    +0.000 A 
ATOM     26  C   UNL     1       2.734   4.987  19.741  0.00  0.00    +0.000 A 
ATOM     27  C   UNL     1       1.628   4.244  20.172  0.00  0.00    +0.000 A 
ATOM     28  C   UNL     1       1.094   3.274  19.337  0.00  0.00    +0.000 A 
ATOM     29  C   UNL     1       1.634   3.059  18.080  0.00  0.00    +0.000 A 
ATOM     30  C   UNL     1       2.740   3.807  17.662  0.00  0.00    +0.000 A 
BRANCH  28  31
ATOM     31  O   UNL     1       0.041   2.501  19.723  0.00  0.00    +0.000 OA
ATOM     32  H   UNL     1       0.387   1.664  20.073  0.00  0.00    +0.000 HD
ENDBRANCH  28  31
ENDBRANCH  22  25
ENDBRANCH  18  19
ENDBRANCH  17  18
ENDBRANCH   1  17
TORSDOF 8
ENDMDL
MODEL 6
REMARK VINA RESULT:      -7.9      6.670     10.124
REMARK  Name = 
REMARK  8 active torsions:
REMARK  status: ('A' for Active; 'I' for Inactive)
REMARK    1  A    between atoms: C_2  and  C_21
REMARK    2  A    between atoms: N_3  and  C_4
REMARK    3  A    between atoms: C_4  and  C_5
REMARK    4  A    between atoms: C_5  and  C_6
REMARK    5  A    between atoms: C_6  and  C_7
REMARK    6  A    between atoms: C_7  and  N_8
REMARK    7  A    between atoms: N_11  and  C_12
REMARK    8  A    between atoms: C_15  and  O_16
REMARK                            x       y       z     vdW  Elec       q    Type
REMARK                         _______ _______ _______ _____ _____    ______ ____
ROOT
ATOM      1  C   UNL     1       8.452   8.704  18.440  0.00  0.00    +0.000 C 
ENDROOT
BRANCH   1   2
ATOM      2  C   UNL     1       7.701   8.012  17.308  0.00  0.00    +0.000 C 
BRANCH   2   5
ATOM      3  O   UNL     1       6.194   6.166  15.733  0.00  0.00    +0.000 OA
ATOM      4  C   UNL     1       6.150   6.115  16.956  0.00  0.00    +0.000 C 
ATOM      5  N   UNL     1       6.869   6.940  17.792  0.00  0.00    +0.000 N 
ATOM      6  H   UNL     1       6.774   6.772  18.791  0.00  0.00    +0.000 HD
BRANCH   4   7
ATOM      7  C   UNL     1       5.267   5.140  17.669  0.00  0.00    +0.000 A 
ATOM      8  C   UNL     1       3.923   5.067  17.333  0.00  0.00    +0.000 A 
ATOM      9  C   UNL     1       3.104   4.188  18.043  0.00  0.00    +0.000 A 
ATOM     10  C   UNL     1       1.739   4.064  17.756  0.00  0.00    +0.000 A 
ATOM     11  C   UNL     1       0.938   3.186  18.487  0.00  0.00    +0.000 A 
ATOM     12  C   UNL     1       1.491   2.424  19.513  0.00  0.00    +0.000 A 
ATOM     13  C   UNL     1       2.852   2.532  19.808  0.00  0.00    +0.000 A 
ATOM     14  C   UNL     1       3.669   3.409  19.077  0.00  0.00    +0.000 A 
ATOM     15  C   UNL     1       5.037   3.555  19.323  0.00  0.00    +0.000 A 
ATOM     16  N   UNL     1       5.852   4.394  18.650  0.00  0.00    +0.000 NA
ENDBRANCH   4   7
ENDBRANCH   2   5
ENDBRANCH   1   2
BRANCH   1  17
ATOM     17  C   UNL     1       8.511  10.223  18.247  0.00  0.00    +0.000 C 
BRANCH  17  18
ATOM     18  C   UNL     1       9.932  10.810  18.167  0.00  0.00    +0.000 C 
BRANCH  18  19
ATOM     19  N   UNL     1       9.981  12.179  17.634  0.00  0.00    +0.000 NA
ATOM     20  C   UNL     1       8.994  13.079  18.276  0.00  0.00    +0.000 C 
ATOM     21  C   UNL     1       9.268  13.383  19.766  0.00  0.00    +0.000 C 
ATOM     22  N   UNL     1      10.612  13.956  19.906  0.00  0.00    +0.000 N 
ATOM     23  C   UNL     1      11.699  13.185  19.275  0.00  0.00    +0.000 C 
ATOM     24  C   UNL     1      11.325  12.786  17.821  0.00  0.00    +0.000 C 
BRANCH  22  25
ATOM     25  C   UNL     1      10.854  14.992  20.788  0.00  0.00    +0.000 A 
ATOM     26  C   UNL     1      10.208  15.077  22.035  0.00  0.00    +0.000 A 
ATOM     27  C   UNL     1      10.366  16.182  22.880  0.00  0.00    +0.000 A 
ATOM     28  C   UNL     1      11.189  17.226  22.487  0.00  0.00    +0.000 A 
ATOM     29  C   UNL     1      11.867  17.166  21.281  0.00  0.00    +0.000 A 
ATOM     30  C   UNL     1      11.701  16.057  20.446  0.00  0.00    +0.000 A 
BRANCH  28  31
ATOM     31  O   UNL     1      11.349  18.339  23.257  0.00  0.00    +0.000 OA
ATOM     32  H   UNL     1      11.057  19.110  22.744  0.00  0.00    +0.000 HD
ENDBRANCH  28  31
ENDBRANCH  22  25
ENDBRANCH  18  19
ENDBRANCH  17  18
ENDBRANCH   1  17
TORSDOF 8
ENDMDL
MODEL 7
REMARK VINA RESULT:      -7.9      5.640      8.944
REMARK  Name = 
REMARK  8 active torsions:
REMARK  status: ('A' for Active; 'I' for Inactive)
REMARK    1  A    between atoms: C_2  and  C_21
REMARK    2  A    between atoms: N_3  and  C_4
REMARK    3  A    between atoms: C_4  and  C_5
REMARK    4  A    between atoms: C_5  and  C_6
REMARK    5  A    between atoms: C_6  and  C_7
REMARK    6  A    between atoms: C_7  and  N_8
REMARK    7  A    between atoms: N_11  and  C_12
REMARK    8  A    between atoms: C_15  and  O_16
REMARK                            x       y       z     vdW  Elec       q    Type
REMARK                         _______ _______ _______ _____ _____    ______ ____
ROOT
ATOM      1  C   UNL     1       7.423   8.435  17.527  0.00  0.00    +0.000 C 
ENDROOT
BRANCH   1   2
ATOM      2  C   UNL     1       8.557   8.958  18.402  0.00  0.00    +0.000 C 
BRANCH   2   5
ATOM      3  O   UNL     1       9.986  10.779  20.075  0.00  0.00    +0.000 OA
ATOM      4  C   UNL     1       9.539  11.151  18.997  0.00  0.00    +0.000 C 
ATOM      5  N   UNL     1       8.869  10.334  18.113  0.00  0.00    +0.000 N 
ATOM      6  H   UNL     1       8.580  10.754  17.233  0.00  0.00    +0.000 HD
BRANCH   4   7
ATOM      7  C   UNL     1       9.662  12.572  18.543  0.00  0.00    +0.000 A 
ATOM      8  C   UNL     1      10.923  13.117  18.353  0.00  0.00    +0.000 A 
ATOM      9  C   UNL     1      11.020  14.459  17.978  0.00  0.00    +0.000 A 
ATOM     10  C   UNL     1      12.261  15.074  17.771  0.00  0.00    +0.000 A 
ATOM     11  C   UNL     1      12.332  16.419  17.407  0.00  0.00    +0.000 A 
ATOM     12  C   UNL     1      11.167  17.164  17.249  0.00  0.00    +0.000 A 
ATOM     13  C   UNL     1       9.922  16.564  17.447  0.00  0.00    +0.000 A 
ATOM     14  C   UNL     1       9.836  15.211  17.809  0.00  0.00    +0.000 A 
ATOM     15  C   UNL     1       8.619  14.555  18.016  0.00  0.00    +0.000 A 
ATOM     16  N   UNL     1       8.497  13.259  18.375  0.00  0.00    +0.000 NA
ENDBRANCH   4   7
ENDBRANCH   2   5
ENDBRANCH   1   2
BRANCH   1  17
ATOM     17  C   UNL     1       7.081   6.975  17.839  0.00  0.00    +0.000 C 
BRANCH  17  18
ATOM     18  C   UNL     1       6.901   6.075  16.604  0.00  0.00    +0.000 C 
BRANCH  18  19
ATOM     19  N   UNL     1       5.499   5.890  16.201  0.00  0.00    +0.000 NA
ATOM     20  C   UNL     1       5.074   4.471  16.241  0.00  0.00    +0.000 C 
ATOM     21  C   UNL     1       5.009   3.855  17.657  0.00  0.00    +0.000 C 
ATOM     22  N   UNL     1       4.109   4.656  18.495  0.00  0.00    +0.000 N 
ATOM     23  C   UNL     1       4.386   6.104  18.519  0.00  0.00    +0.000 C 
ATOM     24  C   UNL     1       4.577   6.656  17.080  0.00  0.00    +0.000 C 
BRANCH  22  25
ATOM     25  C   UNL     1       3.247   4.051  19.390  0.00  0.00    +0.000 A 
ATOM     26  C   UNL     1       1.944   4.532  19.612  0.00  0.00    +0.000 A 
ATOM     27  C   UNL     1       1.110   3.991  20.598  0.00  0.00    +0.000 A 
ATOM     28  C   UNL     1       1.572   2.944  21.379  0.00  0.00    +0.000 A 
ATOM     29  C   UNL     1       2.837   2.421  21.171  0.00  0.00    +0.000 A 
ATOM     30  C   UNL     1       3.661   2.970  20.183  0.00  0.00    +0.000 A 
BRANCH  28  31
ATOM     31  O   UNL     1       0.812   2.406  22.375  0.00  0.00    +0.000 OA
ATOM     32  H   UNL     1       0.722   3.066  23.081  0.00  0.00    +0.000 HD
ENDBRANCH  28  31
ENDBRANCH  22  25
ENDBRANCH  18  19
ENDBRANCH  17  18
ENDBRANCH   1  17
TORSDOF 8
ENDMDL
MODEL 8
REMARK VINA RESULT:      -7.9      6.788      9.723
REMARK  Name = 
REMARK  8 active torsions:
REMARK  status: ('A' for Active; 'I' for Inactive)
REMARK    1  A    between atoms: C_2  and  C_21
REMARK    2  A    between atoms: N_3  and  C_4
REMARK    3  A    between atoms: C_4  and  C_5
REMARK    4  A    between atoms: C_5  and  C_6
REMARK    5  A    between atoms: C_6  and  C_7
REMARK    6  A    between atoms: C_7  and  N_8
REMARK    7  A    between atoms: N_11  and  C_12
REMARK    8  A    between atoms: C_15  and  O_16
REMARK                            x       y       z     vdW  Elec       q    Type
REMARK                         _______ _______ _______ _____ _____    ______ ____
ROOT
ATOM      1  C   UNL     1       8.361  10.070  18.086  0.00  0.00    +0.000 C 
ENDROOT
BRANCH   1   2
ATOM      2  C   UNL     1       9.244  10.536  19.239  0.00  0.00    +0.000 C 
BRANCH   2   5
ATOM      3  O   UNL     1      11.653  11.472  18.024  0.00  0.00    +0.000 OA
ATOM      4  C   UNL     1      10.855  12.267  18.507  0.00  0.00    +0.000 C 
ATOM      5  N   UNL     1       9.656  11.907  19.080  0.00  0.00    +0.000 N 
ATOM      6  H   UNL     1       9.064  12.665  19.413  0.00  0.00    +0.000 HD
BRANCH   4   7
ATOM      7  C   UNL     1      11.134  13.736  18.541  0.00  0.00    +0.000 A 
ATOM      8  C   UNL     1      11.300  14.369  19.764  0.00  0.00    +0.000 A 
ATOM      9  C   UNL     1      11.510  15.749  19.778  0.00  0.00    +0.000 A 
ATOM     10  C   UNL     1      11.685  16.451  20.977  0.00  0.00    +0.000 A 
ATOM     11  C   UNL     1      11.881  17.833  20.967  0.00  0.00    +0.000 A 
ATOM     12  C   UNL     1      11.904  18.527  19.760  0.00  0.00    +0.000 A 
ATOM     13  C   UNL     1      11.736  17.841  18.556  0.00  0.00    +0.000 A 
ATOM     14  C   UNL     1      11.541  16.451  18.553  0.00  0.00    +0.000 A 
ATOM     15  C   UNL     1      11.372  15.710  17.379  0.00  0.00    +0.000 A 
ATOM     16  N   UNL     1      11.173  14.375  17.336  0.00  0.00    +0.000 NA
ENDBRANCH   4   7
ENDBRANCH   2   5
ENDBRANCH   1   2
BRANCH   1  17
ATOM     17  C   UNL     1       8.535   8.576  17.796  0.00  0.00    +0.000 C 
BRANCH  17  18
ATOM     18  C   UNL     1       7.226   7.765  17.779  0.00  0.00    +0.000 C 
BRANCH  18  19
ATOM     19  N   UNL     1       7.419   6.329  17.530  0.00  0.00    +0.000 NA
ATOM     20  C   UNL     1       7.007   5.489  18.680  0.00  0.00    +0.000 C 
ATOM     21  C   UNL     1       5.490   5.489  18.970  0.00  0.00    +0.000 C 
ATOM     22  N   UNL     1       4.764   5.059  17.768  0.00  0.00    +0.000 N 
ATOM     23  C   UNL     1       5.105   5.782  16.529  0.00  0.00    +0.000 C 
ATOM     24  C   UNL     1       6.645   5.874  16.346  0.00  0.00    +0.000 C 
BRANCH  22  25
ATOM     25  C   UNL     1       3.666   4.226  17.862  0.00  0.00    +0.000 A 
ATOM     26  C   UNL     1       2.350   4.724  17.865  0.00  0.00    +0.000 A 
ATOM     27  C   UNL     1       1.242   3.893  18.073  0.00  0.00    +0.000 A 
ATOM     28  C   UNL     1       1.438   2.536  18.275  0.00  0.00    +0.000 A 
ATOM     29  C   UNL     1       2.715   2.002  18.247  0.00  0.00    +0.000 A 
ATOM     30  C   UNL     1       3.814   2.842  18.039  0.00  0.00    +0.000 A 
BRANCH  28  31
ATOM     31  O   UNL     1       0.395   1.692  18.516  0.00  0.00    +0.000 OA
ATOM     32  H   UNL     1       0.755   0.819  18.741  0.00  0.00    +0.000 HD
ENDBRANCH  28  31
ENDBRANCH  22  25
ENDBRANCH  18  19
ENDBRANCH  17  18
ENDBRANCH   1  17
TORSDOF 8
ENDMDL
MODEL 9
REMARK VINA RESULT:      -7.9      3.000      8.400
REMARK  Name = 
REMARK  8 active torsions:
REMARK  status: ('A' for Active; 'I' for Inactive)
REMARK    1  A    between atoms: C_2  and  C_21
REMARK    2  A    between atoms: N_3  and  C_4
REMARK    3  A    between atoms: C_4  and  C_5
REMARK    4  A    between atoms: C_5  and  C_6
REMARK    5  A    between atoms: C_6  and  C_7
REMARK    6  A    between atoms: C_7  and  N_8
REMARK    7  A    between atoms: N_11  and  C_12
REMARK    8  A    between atoms: C_15  and  O_16
REMARK                            x       y       z     vdW  Elec       q    Type
REMARK                         _______ _______ _______ _____ _____    ______ ____
ROOT
ATOM      1  C   UNL     1       1.997   2.937  19.141  0.00  0.00    +0.000 C 
ENDROOT
BRANCH   1   2
ATOM      2  C   UNL     1       3.475   2.608  19.324  0.00  0.00    +0.000 C 
BRANCH   2   5
ATOM      3  O   UNL     1       5.552   4.568  19.284  0.00  0.00    +0.000 OA
ATOM      4  C   UNL     1       5.224   3.994  18.253  0.00  0.00    +0.000 C 
ATOM      5  N   UNL     1       4.260   3.013  18.186  0.00  0.00    +0.000 N 
ATOM      6  H   UNL     1       4.106   2.586  17.276  0.00  0.00    +0.000 HD
BRANCH   4   7
ATOM      7  C   UNL     1       5.843   4.335  16.934  0.00  0.00    +0.000 A 
ATOM      8  C   UNL     1       5.397   3.694  15.788  0.00  0.00    +0.000 A 
ATOM      9  C   UNL     1       6.019   3.988  14.574  0.00  0.00    +0.000 A 
ATOM     10  C   UNL     1       5.620   3.378  13.378  0.00  0.00    +0.000 A 
ATOM     11  C   UNL     1       6.265   3.680  12.178  0.00  0.00    +0.000 A 
ATOM     12  C   UNL     1       7.316   4.593  12.160  0.00  0.00    +0.000 A 
ATOM     13  C   UNL     1       7.723   5.214  13.342  0.00  0.00    +0.000 A 
ATOM     14  C   UNL     1       7.080   4.922  14.555  0.00  0.00    +0.000 A 
ATOM     15  C   UNL     1       7.439   5.515  15.768  0.00  0.00    +0.000 A 
ATOM     16  N   UNL     1       6.852   5.253  16.955  0.00  0.00    +0.000 NA
ENDBRANCH   4   7
ENDBRANCH   2   5
ENDBRANCH   1   2
BRANCH   1  17
ATOM     17  C   UNL     1       1.614   4.260  19.812  0.00  0.00    +0.000 C 
BRANCH  17  18
ATOM     18  C   UNL     1       1.723   5.499  18.906  0.00  0.00    +0.000 C 
BRANCH  18  19
ATOM     19  N   UNL     1       2.699   6.494  19.374  0.00  0.00    +0.000 NA
ATOM     20  C   UNL     1       3.149   7.405  18.294  0.00  0.00    +0.000 C 
ATOM     21  C   UNL     1       2.060   8.359  17.756  0.00  0.00    +0.000 C 
ATOM     22  N   UNL     1       1.515   9.151  18.865  0.00  0.00    +0.000 N 
ATOM     23  C   UNL     1       1.063   8.377  20.036  0.00  0.00    +0.000 C 
ATOM     24  C   UNL     1       2.136   7.337  20.461  0.00  0.00    +0.000 C 
BRANCH  22  25
ATOM     25  C   UNL     1       1.213  10.490  18.701  0.00  0.00    +0.000 A 
ATOM     26  C   UNL     1       2.189  11.438  18.346  0.00  0.00    +0.000 A 
ATOM     27  C   UNL     1       1.909  12.808  18.290  0.00  0.00    +0.000 A 
ATOM     28  C   UNL     1       0.629  13.253  18.583  0.00  0.00    +0.000 A 
ATOM     29  C   UNL     1      -0.369  12.349  18.905  0.00  0.00    +0.000 A 
ATOM     30  C   UNL     1      -0.076  10.982  18.959  0.00  0.00    +0.000 A 
BRANCH  28  31
ATOM     31  O   UNL     1       0.314  14.579  18.576  0.00  0.00    +0.000 OA
ATOM     32  H   UNL     1      -0.558  14.688  18.988  0.00  0.00    +0.000 HD
ENDBRANCH  28  31
ENDBRANCH  22  25
ENDBRANCH  18  19
ENDBRANCH  17  18
ENDBRANCH   1  17
TORSDOF 8
ENDMDL
