MODEL 1
REMARK VINA RESULT:      -7.0      0.000      0.000
REMARK  Name = 
REMARK  11 active torsions:
REMARK  status: ('A' for Active; 'I' for Inactive)
REMARK    1  A    between atoms: C_1  and  C_2
REMARK    2  A    between atoms: C_4  and  C_5
REMARK    3  A    between atoms: C_5  and  C_6
REMARK    4  A    between atoms: C_5  and  C_7
REMARK    5  A    between atoms: C_5  and  C_8
REMARK    6  A    between atoms: C_10  and  C_11
REMARK    7  A    between atoms: N_13  and  C_14
REMARK    8  A    between atoms: C_14  and  C_15
REMARK    9  A    between atoms: N_17  and  C_18
REMARK   10  A    between atoms: C_18  and  C_19
REMARK   11  A    between atoms: C_19  and  O_21
REMARK                            x       y       z     vdW  Elec       q    Type
REMARK                         _______ _______ _______ _____ _____    ______ ____
ROOT
ATOM      1  C   UNL     1       6.029   4.613  17.497  0.00  0.00    +0.000 C 
ATOM      2  O   UNL     1       7.062   4.495  18.154  0.00  0.00    +0.000 OA
ATOM      3  N   UNL     1       6.074   4.701  16.127  0.00  0.00    +0.000 N 
ATOM      4  H   UNL     1       5.237   4.795  15.569  0.00  0.00    +0.000 HD
ENDROOT
BRANCH   1  10
ATOM      5  C   UNL     1       3.693   7.070  17.749  0.00  0.00    +0.000 C 
ATOM      6  C   UNL     1       3.779   5.677  18.244  0.00  0.00    +0.000 A 
ATOM      7  O   UNL     1       2.692   5.258  18.966  0.00  0.00    +0.000 OA
ATOM      8  C   UNL     1       2.913   3.967  19.353  0.00  0.00    +0.000 A 
ATOM      9  C   UNL     1       4.140   3.567  18.872  0.00  0.00    +0.000 A 
ATOM     10  C   UNL     1       4.721   4.662  18.151  0.00  0.00    +0.000 A 
BRANCH   8  11
ATOM     11  C   UNL     1       1.845   3.292  20.187  0.00  0.00    +0.000 C 
ATOM     12  C   UNL     1       2.441   2.753  21.499  0.00  0.00    +0.000 C 
ATOM     13  C   UNL     1       0.719   4.288  20.536  0.00  0.00    +0.000 C 
ATOM     14  C   UNL     1       1.223   2.119  19.408  0.00  0.00    +0.000 C 
ENDBRANCH   8  11
ENDBRANCH   1  10
BRANCH   3  15
ATOM     15  C   UNL     1       7.336   4.656  15.406  0.00  0.00    +0.000 C 
BRANCH  15  16
ATOM     16  C   UNL     1       7.087   4.591  13.895  0.00  0.00    +0.000 C 
ATOM     17  O   UNL     1       7.548   5.422  13.115  0.00  0.00    +0.000 OA
ATOM     18  N   UNL     1       6.313   3.533  13.477  0.00  0.00    +0.000 N 
ATOM     19  H   UNL     1       5.941   2.856  14.138  0.00  0.00    +0.000 HD
BRANCH  18  20
ATOM     20  C   UNL     1       5.994   3.344  12.071  0.00  0.00    +0.000 C 
BRANCH  20  21
ATOM     21  C   UNL     1       6.644   2.084  11.520  0.00  0.00    +0.000 C 
ATOM     22  O   UNL     1       7.774   2.047  11.049  0.00  0.00    +0.000 OA
BRANCH  21  23
ATOM     23  O   UNL     1       5.853   0.987  11.597  0.00  0.00    +0.000 OA
ATOM     24  H   UNL     1       5.295   0.940  12.398  0.00  0.00    +0.000 HD
ENDBRANCH  21  23
ENDBRANCH  20  21
ENDBRANCH  18  20
ENDBRANCH  15  16
ENDBRANCH   3  15
TORSDOF 7
ENDMDL
MODEL 2
REMARK VINA RESULT:      -6.9      0.770      1.189
REMARK  Name = 
REMARK  11 active torsions:
REMARK  status: ('A' for Active; 'I' for Inactive)
REMARK    1  A    between atoms: C_1  and  C_2
REMARK    2  A    between atoms: C_4  and  C_5
REMARK    3  A    between atoms: C_5  and  C_6
REMARK    4  A    between atoms: C_5  and  C_7
REMARK    5  A    between atoms: C_5  and  C_8
REMARK    6  A    between atoms: C_10  and  C_11
REMARK    7  A    between atoms: N_13  and  C_14
REMARK    8  A    between atoms: C_14  and  C_15
REMARK    9  A    between atoms: N_17  and  C_18
REMARK   10  A    between atoms: C_18  and  C_19
REMARK   11  A    between atoms: C_19  and  O_21
REMARK                            x       y       z     vdW  Elec       q    Type
REMARK                         _______ _______ _______ _____ _____    ______ ____
ROOT
ATOM      1  C   UNL     1       5.547   5.507  17.011  0.00  0.00    +0.000 C 
ATOM      2  O   UNL     1       6.014   6.637  16.880  0.00  0.00    +0.000 OA
ATOM      3  N   UNL     1       6.139   4.427  16.402  0.00  0.00    +0.000 N 
ATOM      4  H   UNL     1       5.773   3.491  16.498  0.00  0.00    +0.000 HD
ENDROOT
BRANCH   1  10
ATOM      5  C   UNL     1       2.972   7.537  17.913  0.00  0.00    +0.000 C 
ATOM      6  C   UNL     1       3.305   6.118  18.176  0.00  0.00    +0.000 A 
ATOM      7  O   UNL     1       2.394   5.450  18.951  0.00  0.00    +0.000 OA
ATOM      8  C   UNL     1       2.831   4.166  19.108  0.00  0.00    +0.000 A 
ATOM      9  C   UNL     1       4.020   4.020  18.427  0.00  0.00    +0.000 A 
ATOM     10  C   UNL     1       4.348   5.275  17.817  0.00  0.00    +0.000 A 
BRANCH   8  11
ATOM     11  C   UNL     1       1.987   3.235  19.952  0.00  0.00    +0.000 C 
ATOM     12  C   UNL     1       1.650   1.952  19.173  0.00  0.00    +0.000 C 
ATOM     13  C   UNL     1       2.738   2.840  21.240  0.00  0.00    +0.000 C 
ATOM     14  C   UNL     1       0.673   3.927  20.356  0.00  0.00    +0.000 C 
ENDBRANCH   8  11
ENDBRANCH   1  10
BRANCH   3  15
ATOM     15  C   UNL     1       7.334   4.579  15.587  0.00  0.00    +0.000 C 
BRANCH  15  16
ATOM     16  C   UNL     1       6.973   4.562  14.098  0.00  0.00    +0.000 C 
ATOM     17  O   UNL     1       7.365   5.425  13.315  0.00  0.00    +0.000 OA
ATOM     18  N   UNL     1       6.179   3.510  13.702  0.00  0.00    +0.000 N 
ATOM     19  H   UNL     1       5.865   2.806  14.365  0.00  0.00    +0.000 HD
BRANCH  18  20
ATOM     20  C   UNL     1       5.757   3.365  12.319  0.00  0.00    +0.000 C 
BRANCH  20  21
ATOM     21  C   UNL     1       6.505   2.237  11.626  0.00  0.00    +0.000 C 
ATOM     22  O   UNL     1       7.669   2.317  11.252  0.00  0.00    +0.000 OA
BRANCH  21  23
ATOM     23  O   UNL     1       5.763   1.117  11.456  0.00  0.00    +0.000 OA
ATOM     24  H   UNL     1       5.804   0.731  10.559  0.00  0.00    +0.000 HD
ENDBRANCH  21  23
ENDBRANCH  20  21
ENDBRANCH  18  20
ENDBRANCH  15  16
ENDBRANCH   3  15
TORSDOF 7
ENDMDL
MODEL 3
REMARK VINA RESULT:      -6.9      0.404      1.224
REMARK  Name = 
REMARK  11 active torsions:
REMARK  status: ('A' for Active; 'I' for Inactive)
REMARK    1  A    between atoms: C_1  and  C_2
REMARK    2  A    between atoms: C_4  and  C_5
REMARK    3  A    between atoms: C_5  and  C_6
REMARK    4  A    between atoms: C_5  and  C_7
REMARK    5  A    between atoms: C_5  and  C_8
REMARK    6  A    between atoms: C_10  and  C_11
REMARK    7  A    between atoms: N_13  and  C_14
REMARK    8  A    between atoms: C_14  and  C_15
REMARK    9  A    between atoms: N_17  and  C_18
REMARK   10  A    between atoms: C_18  and  C_19
REMARK   11  A    between atoms: C_19  and  O_21
REMARK                            x       y       z     vdW  Elec       q    Type
REMARK                         _______ _______ _______ _____ _____    ______ ____
ROOT
ATOM      1  C   UNL     1       6.064   4.637  17.093  0.00  0.00    +0.000 C 
ATOM      2  O   UNL     1       7.132   4.516  17.689  0.00  0.00    +0.000 OA
ATOM      3  N   UNL     1       6.030   4.739  15.723  0.00  0.00    +0.000 N 
ATOM      4  H   UNL     1       5.163   4.836  15.215  0.00  0.00    +0.000 HD
ENDROOT
BRANCH   1  10
ATOM      5  C   UNL     1       3.792   7.119  17.589  0.00  0.00    +0.000 C 
ATOM      6  C   UNL     1       3.878   5.702  18.013  0.00  0.00    +0.000 A 
ATOM      7  O   UNL     1       2.826   5.268  18.775  0.00  0.00    +0.000 OA
ATOM      8  C   UNL     1       3.043   3.956  19.089  0.00  0.00    +0.000 A 
ATOM      9  C   UNL     1       4.234   3.559  18.521  0.00  0.00    +0.000 A 
ATOM     10  C   UNL     1       4.794   4.677  17.821  0.00  0.00    +0.000 A 
BRANCH   8  11
ATOM     11  C   UNL     1       2.010   3.260  19.949  0.00  0.00    +0.000 C 
ATOM     12  C   UNL     1       0.909   4.245  20.380  0.00  0.00    +0.000 C 
ATOM     13  C   UNL     1       1.351   2.101  19.173  0.00  0.00    +0.000 C 
ATOM     14  C   UNL     1       2.673   2.677  21.211  0.00  0.00    +0.000 C 
ENDBRANCH   8  11
ENDBRANCH   1  10
BRANCH   3  15
ATOM     15  C   UNL     1       7.249   4.704  14.931  0.00  0.00    +0.000 C 
BRANCH  15  16
ATOM     16  C   UNL     1       6.926   4.396  13.465  0.00  0.00    +0.000 C 
ATOM     17  O   UNL     1       7.505   4.950  12.533  0.00  0.00    +0.000 OA
ATOM     18  N   UNL     1       5.944   3.453  13.270  0.00  0.00    +0.000 N 
ATOM     19  H   UNL     1       5.476   3.006  14.055  0.00  0.00    +0.000 HD
BRANCH  18  20
ATOM     20  C   UNL     1       5.532   3.061  11.932  0.00  0.00    +0.000 C 
BRANCH  20  21
ATOM     21  C   UNL     1       6.290   1.830  11.458  0.00  0.00    +0.000 C 
ATOM     22  O   UNL     1       5.764   0.746  11.239  0.00  0.00    +0.000 OA
BRANCH  21  23
ATOM     23  O   UNL     1       7.618   2.039  11.296  0.00  0.00    +0.000 OA
ATOM     24  H   UNL     1       7.978   1.739  10.438  0.00  0.00    +0.000 HD
ENDBRANCH  21  23
ENDBRANCH  20  21
ENDBRANCH  18  20
ENDBRANCH  15  16
ENDBRANCH   3  15
TORSDOF 7
ENDMDL
MODEL 4
REMARK VINA RESULT:      -6.8      1.407      1.862
REMARK  Name = 
REMARK  11 active torsions:
REMARK  status: ('A' for Active; 'I' for Inactive)
REMARK    1  A    between atoms: C_1  and  C_2
REMARK    2  A    between atoms: C_4  and  C_5
REMARK    3  A    between atoms: C_5  and  C_6
REMARK    4  A    between atoms: C_5  and  C_7
REMARK    5  A    between atoms: C_5  and  C_8
REMARK    6  A    between atoms: C_10  and  C_11
REMARK    7  A    between atoms: N_13  and  C_14
REMARK    8  A    between atoms: C_14  and  C_15
REMARK    9  A    between atoms: N_17  and  C_18
REMARK   10  A    between atoms: C_18  and  C_19
REMARK   11  A    between atoms: C_19  and  O_21
REMARK                            x       y       z     vdW  Elec       q    Type
REMARK                         _______ _______ _______ _____ _____    ______ ____
ROOT
ATOM      1  C   UNL     1       5.480   5.518  15.729  0.00  0.00    +0.000 C 
ATOM      2  O   UNL     1       5.518   6.679  15.326  0.00  0.00    +0.000 OA
ATOM      3  N   UNL     1       6.332   4.569  15.217  0.00  0.00    +0.000 N 
ATOM      4  H   UNL     1       6.319   3.611  15.537  0.00  0.00    +0.000 HD
ENDROOT
BRANCH   1  10
ATOM      5  C   UNL     1       3.426   7.295  17.774  0.00  0.00    +0.000 C 
ATOM      6  C   UNL     1       3.699   5.851  17.592  0.00  0.00    +0.000 A 
ATOM      7  O   UNL     1       2.981   5.024  18.415  0.00  0.00    +0.000 OA
ATOM      8  C   UNL     1       3.335   3.735  18.136  0.00  0.00    +0.000 A 
ATOM      9  C   UNL     1       4.278   3.746  17.130  0.00  0.00    +0.000 A 
ATOM     10  C   UNL     1       4.531   5.109  16.765  0.00  0.00    +0.000 A 
BRANCH   8  11
ATOM     11  C   UNL     1       2.678   2.636  18.941  0.00  0.00    +0.000 C 
ATOM     12  C   UNL     1       1.184   2.525  18.592  0.00  0.00    +0.000 C 
ATOM     13  C   UNL     1       3.348   1.276  18.652  0.00  0.00    +0.000 C 
ATOM     14  C   UNL     1       2.813   2.926  20.448  0.00  0.00    +0.000 C 
ENDBRANCH   8  11
ENDBRANCH   1  10
BRANCH   3  15
ATOM     15  C   UNL     1       7.305   4.900  14.188  0.00  0.00    +0.000 C 
BRANCH  15  16
ATOM     16  C   UNL     1       6.889   4.292  12.844  0.00  0.00    +0.000 C 
ATOM     17  O   UNL     1       7.285   4.738  11.769  0.00  0.00    +0.000 OA
ATOM     18  N   UNL     1       6.043   3.211  12.929  0.00  0.00    +0.000 N 
ATOM     19  H   UNL     1       5.727   2.856  13.828  0.00  0.00    +0.000 HD
BRANCH  18  20
ATOM     20  C   UNL     1       5.566   2.533  11.735  0.00  0.00    +0.000 C 
BRANCH  20  21
ATOM     21  C   UNL     1       6.518   1.425  11.309  0.00  0.00    +0.000 C 
ATOM     22  O   UNL     1       7.632   1.624  10.841  0.00  0.00    +0.000 OA
BRANCH  21  23
ATOM     23  O   UNL     1       6.020   0.180  11.495  0.00  0.00    +0.000 OA
ATOM     24  H   UNL     1       5.658  -0.241  10.691  0.00  0.00    +0.000 HD
ENDBRANCH  21  23
ENDBRANCH  20  21
ENDBRANCH  18  20
ENDBRANCH  15  16
ENDBRANCH   3  15
TORSDOF 7
ENDMDL
MODEL 5
REMARK VINA RESULT:      -6.8      1.445      1.943
REMARK  Name = 
REMARK  11 active torsions:
REMARK  status: ('A' for Active; 'I' for Inactive)
REMARK    1  A    between atoms: C_1  and  C_2
REMARK    2  A    between atoms: C_4  and  C_5
REMARK    3  A    between atoms: C_5  and  C_6
REMARK    4  A    between atoms: C_5  and  C_7
REMARK    5  A    between atoms: C_5  and  C_8
REMARK    6  A    between atoms: C_10  and  C_11
REMARK    7  A    between atoms: N_13  and  C_14
REMARK    8  A    between atoms: C_14  and  C_15
REMARK    9  A    between atoms: N_17  and  C_18
REMARK   10  A    between atoms: C_18  and  C_19
REMARK   11  A    between atoms: C_19  and  O_21
REMARK                            x       y       z     vdW  Elec       q    Type
REMARK                         _______ _______ _______ _____ _____    ______ ____
ROOT
ATOM      1  C   UNL     1       6.714   5.428  16.144  0.00  0.00    +0.000 C 
ATOM      2  O   UNL     1       7.466   6.398  16.219  0.00  0.00    +0.000 OA
ATOM      3  N   UNL     1       6.683   4.649  15.013  0.00  0.00    +0.000 N 
ATOM      4  H   UNL     1       6.075   3.847  14.932  0.00  0.00    +0.000 HD
ENDROOT
BRANCH   1  10
ATOM      5  C   UNL     1       7.139   5.499  19.517  0.00  0.00    +0.000 C 
ATOM      6  C   UNL     1       6.021   5.107  18.628  0.00  0.00    +0.000 A 
ATOM      7  O   UNL     1       4.897   4.671  19.280  0.00  0.00    +0.000 OA
ATOM      8  C   UNL     1       3.961   4.347  18.340  0.00  0.00    +0.000 A 
ATOM      9  C   UNL     1       4.493   4.581  17.090  0.00  0.00    +0.000 A 
ATOM     10  C   UNL     1       5.830   5.071  17.254  0.00  0.00    +0.000 A 
BRANCH   8  11
ATOM     11  C   UNL     1       2.629   3.819  18.828  0.00  0.00    +0.000 C 
ATOM     12  C   UNL     1       2.666   2.286  18.954  0.00  0.00    +0.000 C 
ATOM     13  C   UNL     1       2.284   4.413  20.209  0.00  0.00    +0.000 C 
ATOM     14  C   UNL     1       1.509   4.207  17.845  0.00  0.00    +0.000 C 
ENDBRANCH   8  11
ENDBRANCH   1  10
BRANCH   3  15
ATOM     15  C   UNL     1       7.535   4.939  13.870  0.00  0.00    +0.000 C 
BRANCH  15  16
ATOM     16  C   UNL     1       6.988   4.261  12.609  0.00  0.00    +0.000 C 
ATOM     17  O   UNL     1       7.253   4.662  11.478  0.00  0.00    +0.000 OA
ATOM     18  N   UNL     1       6.180   3.171  12.837  0.00  0.00    +0.000 N 
ATOM     19  H   UNL     1       5.972   2.854  13.781  0.00  0.00    +0.000 HD
BRANCH  18  20
ATOM     20  C   UNL     1       5.590   2.429  11.735  0.00  0.00    +0.000 C 
BRANCH  20  21
ATOM     21  C   UNL     1       6.519   1.328  11.247  0.00  0.00    +0.000 C 
ATOM     22  O   UNL     1       7.634   1.531  10.781  0.00  0.00    +0.000 OA
BRANCH  21  23
ATOM     23  O   UNL     1       6.001   0.083  11.375  0.00  0.00    +0.000 OA
ATOM     24  H   UNL     1       6.344  -0.427  12.134  0.00  0.00    +0.000 HD
ENDBRANCH  21  23
ENDBRANCH  20  21
ENDBRANCH  18  20
ENDBRANCH  15  16
ENDBRANCH   3  15
TORSDOF 7
ENDMDL
MODEL 6
REMARK VINA RESULT:      -6.8      0.964      1.159
REMARK  Name = 
REMARK  11 active torsions:
REMARK  status: ('A' for Active; 'I' for Inactive)
REMARK    1  A    between atoms: C_1  and  C_2
REMARK    2  A    between atoms: C_4  and  C_5
REMARK    3  A    between atoms: C_5  and  C_6
REMARK    4  A    between atoms: C_5  and  C_7
REMARK    5  A    between atoms: C_5  and  C_8
REMARK    6  A    between atoms: C_10  and  C_11
REMARK    7  A    between atoms: N_13  and  C_14
REMARK    8  A    between atoms: C_14  and  C_15
REMARK    9  A    between atoms: N_17  and  C_18
REMARK   10  A    between atoms: C_18  and  C_19
REMARK   11  A    between atoms: C_19  and  O_21
REMARK                            x       y       z     vdW  Elec       q    Type
REMARK                         _______ _______ _______ _____ _____    ______ ____
ROOT
ATOM      1  C   UNL     1       5.577   5.365  17.067  0.00  0.00    +0.000 C 
ATOM      2  O   UNL     1       6.129   6.455  16.927  0.00  0.00    +0.000 OA
ATOM      3  N   UNL     1       6.124   4.226  16.527  0.00  0.00    +0.000 N 
ATOM      4  H   UNL     1       5.689   3.321  16.634  0.00  0.00    +0.000 HD
ENDROOT
BRANCH   1  10
ATOM      5  C   UNL     1       3.118   7.604  17.777  0.00  0.00    +0.000 C 
ATOM      6  C   UNL     1       3.329   6.172  18.092  0.00  0.00    +0.000 A 
ATOM      7  O   UNL     1       2.331   5.595  18.832  0.00  0.00    +0.000 OA
ATOM      8  C   UNL     1       2.661   4.287  19.044  0.00  0.00    +0.000 A 
ATOM      9  C   UNL     1       3.870   4.034  18.433  0.00  0.00    +0.000 A 
ATOM     10  C   UNL     1       4.323   5.245  17.812  0.00  0.00    +0.000 A 
BRANCH   8  11
ATOM     11  C   UNL     1       1.706   3.445  19.862  0.00  0.00    +0.000 C 
ATOM     12  C   UNL     1       2.454   2.720  20.994  0.00  0.00    +0.000 C 
ATOM     13  C   UNL     1       0.607   4.327  20.490  0.00  0.00    +0.000 C 
ATOM     14  C   UNL     1       1.024   2.393  18.968  0.00  0.00    +0.000 C 
ENDBRANCH   8  11
ENDBRANCH   1  10
BRANCH   3  15
ATOM     15  C   UNL     1       7.369   4.266  15.777  0.00  0.00    +0.000 C 
BRANCH  15  16
ATOM     16  C   UNL     1       7.096   4.588  14.304  0.00  0.00    +0.000 C 
ATOM     17  O   UNL     1       7.555   5.586  13.751  0.00  0.00    +0.000 OA
ATOM     18  N   UNL     1       6.302   3.678  13.645  0.00  0.00    +0.000 N 
ATOM     19  H   UNL     1       5.932   2.858  14.120  0.00  0.00    +0.000 HD
BRANCH  18  20
ATOM     20  C   UNL     1       5.959   3.854  12.244  0.00  0.00    +0.000 C 
BRANCH  20  21
ATOM     21  C   UNL     1       5.270   2.618  11.683  0.00  0.00    +0.000 C 
ATOM     22  O   UNL     1       4.150   2.626  11.188  0.00  0.00    +0.000 OA
BRANCH  21  23
ATOM     23  O   UNL     1       6.016   1.491  11.777  0.00  0.00    +0.000 OA
ATOM     24  H   UNL     1       6.582   1.441  12.572  0.00  0.00    +0.000 HD
ENDBRANCH  21  23
ENDBRANCH  20  21
ENDBRANCH  18  20
ENDBRANCH  15  16
ENDBRANCH   3  15
TORSDOF 7
ENDMDL
MODEL 7
REMARK VINA RESULT:      -6.7      1.123      1.466
REMARK  Name = 
REMARK  11 active torsions:
REMARK  status: ('A' for Active; 'I' for Inactive)
REMARK    1  A    between atoms: C_1  and  C_2
REMARK    2  A    between atoms: C_4  and  C_5
REMARK    3  A    between atoms: C_5  and  C_6
REMARK    4  A    between atoms: C_5  and  C_7
REMARK    5  A    between atoms: C_5  and  C_8
REMARK    6  A    between atoms: C_10  and  C_11
REMARK    7  A    between atoms: N_13  and  C_14
REMARK    8  A    between atoms: C_14  and  C_15
REMARK    9  A    between atoms: N_17  and  C_18
REMARK   10  A    between atoms: C_18  and  C_19
REMARK   11  A    between atoms: C_19  and  O_21
REMARK                            x       y       z     vdW  Elec       q    Type
REMARK                         _______ _______ _______ _____ _____    ______ ____
ROOT
ATOM      1  C   UNL     1       5.347   5.795  16.513  0.00  0.00    +0.000 C 
ATOM      2  O   UNL     1       5.610   6.919  16.092  0.00  0.00    +0.000 OA
ATOM      3  N   UNL     1       6.137   4.719  16.187  0.00  0.00    +0.000 N 
ATOM      4  H   UNL     1       5.941   3.788  16.525  0.00  0.00    +0.000 HD
ENDROOT
BRANCH   1  10
ATOM      5  C   UNL     1       2.937   7.876  17.706  0.00  0.00    +0.000 C 
ATOM      6  C   UNL     1       3.212   6.427  17.853  0.00  0.00    +0.000 A 
ATOM      7  O   UNL     1       2.315   5.752  18.637  0.00  0.00    +0.000 OA
ATOM      8  C   UNL     1       2.694   4.440  18.681  0.00  0.00    +0.000 A 
ATOM      9  C   UNL     1       3.832   4.286  17.920  0.00  0.00    +0.000 A 
ATOM     10  C   UNL     1       4.187   5.563  17.375  0.00  0.00    +0.000 A 
BRANCH   8  11
ATOM     11  C   UNL     1       1.854   3.494  19.511  0.00  0.00    +0.000 C 
ATOM     12  C   UNL     1       1.269   4.219  20.737  0.00  0.00    +0.000 C 
ATOM     13  C   UNL     1       0.686   2.930  18.676  0.00  0.00    +0.000 C 
ATOM     14  C   UNL     1       2.710   2.311  20.000  0.00  0.00    +0.000 C 
ENDBRANCH   8  11
ENDBRANCH   1  10
BRANCH   3  15
ATOM     15  C   UNL     1       7.309   4.871  15.338  0.00  0.00    +0.000 C 
BRANCH  15  16
ATOM     16  C   UNL     1       6.932   4.669  13.866  0.00  0.00    +0.000 C 
ATOM     17  O   UNL     1       7.435   5.331  12.960  0.00  0.00    +0.000 OA
ATOM     18  N   UNL     1       5.992   3.692  13.633  0.00  0.00    +0.000 N 
ATOM     19  H   UNL     1       5.587   3.154  14.396  0.00  0.00    +0.000 HD
BRANCH  18  20
ATOM     20  C   UNL     1       5.538   3.390  12.285  0.00  0.00    +0.000 C 
BRANCH  20  21
ATOM     21  C   UNL     1       6.269   2.186  11.711  0.00  0.00    +0.000 C 
ATOM     22  O   UNL     1       5.714   1.148  11.370  0.00  0.00    +0.000 OA
BRANCH  21  23
ATOM     23  O   UNL     1       7.607   2.362  11.605  0.00  0.00    +0.000 OA
ATOM     24  H   UNL     1       7.946   3.180  12.019  0.00  0.00    +0.000 HD
ENDBRANCH  21  23
ENDBRANCH  20  21
ENDBRANCH  18  20
ENDBRANCH  15  16
ENDBRANCH   3  15
TORSDOF 7
ENDMDL
MODEL 8
REMARK VINA RESULT:      -6.6      5.089      8.133
REMARK  Name = 
REMARK  11 active torsions:
REMARK  status: ('A' for Active; 'I' for Inactive)
REMARK    1  A    between atoms: C_1  and  C_2
REMARK    2  A    between atoms: C_4  and  C_5
REMARK    3  A    between atoms: C_5  and  C_6
REMARK    4  A    between atoms: C_5  and  C_7
REMARK    5  A    between atoms: C_5  and  C_8
REMARK    6  A    between atoms: C_10  and  C_11
REMARK    7  A    between atoms: N_13  and  C_14
REMARK    8  A    between atoms: C_14  and  C_15
REMARK    9  A    between atoms: N_17  and  C_18
REMARK   10  A    between atoms: C_18  and  C_19
REMARK   11  A    between atoms: C_19  and  O_21
REMARK                            x       y       z     vdW  Elec       q    Type
REMARK                         _______ _______ _______ _____ _____    ______ ____
ROOT
ATOM      1  C   UNL     1       1.794   8.164  19.859  0.00  0.00    +0.000 C 
ATOM      2  O   UNL     1       1.605   8.586  20.998  0.00  0.00    +0.000 OA
ATOM      3  N   UNL     1       1.567   8.965  18.766  0.00  0.00    +0.000 N 
ATOM      4  H   UNL     1       1.719   8.638  17.822  0.00  0.00    +0.000 HD
ENDROOT
BRANCH   1  10
ATOM      5  C   UNL     1       3.956   6.845  17.590  0.00  0.00    +0.000 C 
ATOM      6  C   UNL     1       3.150   6.277  18.696  0.00  0.00    +0.000 A 
ATOM      7  O   UNL     1       3.285   4.924  18.865  0.00  0.00    +0.000 OA
ATOM      8  C   UNL     1       2.490   4.546  19.909  0.00  0.00    +0.000 A 
ATOM      9  C   UNL     1       1.853   5.664  20.404  0.00  0.00    +0.000 A 
ATOM     10  C   UNL     1       2.266   6.797  19.629  0.00  0.00    +0.000 A 
BRANCH   8  11
ATOM     11  C   UNL     1       2.461   3.078  20.274  0.00  0.00    +0.000 C 
ATOM     12  C   UNL     1       3.881   2.485  20.257  0.00  0.00    +0.000 C 
ATOM     13  C   UNL     1       1.867   2.881  21.684  0.00  0.00    +0.000 C 
ATOM     14  C   UNL     1       1.588   2.297  19.274  0.00  0.00    +0.000 C 
ENDBRANCH   8  11
ENDBRANCH   1  10
BRANCH   3  15
ATOM     15  C   UNL     1       1.101  10.334  18.915  0.00  0.00    +0.000 C 
BRANCH  15  16
ATOM     16  C   UNL     1      -0.416  10.408  18.706  0.00  0.00    +0.000 C 
ATOM     17  O   UNL     1      -1.161  10.992  19.491  0.00  0.00    +0.000 OA
ATOM     18  N   UNL     1      -0.881   9.776  17.576  0.00  0.00    +0.000 N 
ATOM     19  H   UNL     1      -0.248   9.299  16.939  0.00  0.00    +0.000 HD
BRANCH  18  20
ATOM     20  C   UNL     1      -2.297   9.764  17.250  0.00  0.00    +0.000 C 
BRANCH  20  21
ATOM     21  C   UNL     1      -2.683  10.973  16.409  0.00  0.00    +0.000 C 
ATOM     22  O   UNL     1      -2.612  11.006  15.187  0.00  0.00    +0.000 OA
BRANCH  21  23
ATOM     23  O   UNL     1      -3.120  12.025  17.141  0.00  0.00    +0.000 OA
ATOM     24  H   UNL     1      -4.092  12.106  17.202  0.00  0.00    +0.000 HD
ENDBRANCH  21  23
ENDBRANCH  20  21
ENDBRANCH  18  20
ENDBRANCH  15  16
ENDBRANCH   3  15
TORSDOF 7
ENDMDL
MODEL 9
REMARK VINA RESULT:      -6.6      4.974      8.050
REMARK  Name = 
REMARK  11 active torsions:
REMARK  status: ('A' for Active; 'I' for Inactive)
REMARK    1  A    between atoms: C_1  and  C_2
REMARK    2  A    between atoms: C_4  and  C_5
REMARK    3  A    between atoms: C_5  and  C_6
REMARK    4  A    between atoms: C_5  and  C_7
REMARK    5  A    between atoms: C_5  and  C_8
REMARK    6  A    between atoms: C_10  and  C_11
REMARK    7  A    between atoms: N_13  and  C_14
REMARK    8  A    between atoms: C_14  and  C_15
REMARK    9  A    between atoms: N_17  and  C_18
REMARK   10  A    between atoms: C_18  and  C_19
REMARK   11  A    between atoms: C_19  and  O_21
REMARK                            x       y       z     vdW  Elec       q    Type
REMARK                         _______ _______ _______ _____ _____    ______ ____
ROOT
ATOM      1  C   UNL     1       1.904   8.065  19.759  0.00  0.00    +0.000 C 
ATOM      2  O   UNL     1       1.726   8.491  20.899  0.00  0.00    +0.000 OA
ATOM      3  N   UNL     1       1.661   8.860  18.666  0.00  0.00    +0.000 N 
ATOM      4  H   UNL     1       1.804   8.531  17.722  0.00  0.00    +0.000 HD
ENDROOT
BRANCH   1  10
ATOM      5  C   UNL     1       4.105   6.760  17.520  0.00  0.00    +0.000 C 
ATOM      6  C   UNL     1       3.280   6.185  18.608  0.00  0.00    +0.000 A 
ATOM      7  O   UNL     1       3.411   4.831  18.771  0.00  0.00    +0.000 OA
ATOM      8  C   UNL     1       2.598   4.447  19.799  0.00  0.00    +0.000 A 
ATOM      9  C   UNL     1       1.953   5.562  20.290  0.00  0.00    +0.000 A 
ATOM     10  C   UNL     1       2.379   6.700  19.530  0.00  0.00    +0.000 A 
BRANCH   8  11
ATOM     11  C   UNL     1       2.561   2.976  20.154  0.00  0.00    +0.000 C 
ATOM     12  C   UNL     1       1.613   2.213  19.213  0.00  0.00    +0.000 C 
ATOM     13  C   UNL     1       3.969   2.355  20.037  0.00  0.00    +0.000 C 
ATOM     14  C   UNL     1       2.074   2.790  21.603  0.00  0.00    +0.000 C 
ENDBRANCH   8  11
ENDBRANCH   1  10
BRANCH   3  15
ATOM     15  C   UNL     1       1.191  10.229  18.815  0.00  0.00    +0.000 C 
BRANCH  15  16
ATOM     16  C   UNL     1      -0.341  10.272  18.795  0.00  0.00    +0.000 C 
ATOM     17  O   UNL     1      -1.022   9.949  19.767  0.00  0.00    +0.000 OA
ATOM     18  N   UNL     1      -0.898  10.702  17.613  0.00  0.00    +0.000 N 
ATOM     19  H   UNL     1      -0.318  10.965  16.820  0.00  0.00    +0.000 HD
BRANCH  18  20
ATOM     20  C   UNL     1      -2.339  10.794  17.450  0.00  0.00    +0.000 C 
BRANCH  20  21
ATOM     21  C   UNL     1      -2.748  10.576  16.000  0.00  0.00    +0.000 C 
ATOM     22  O   UNL     1      -2.690   9.495  15.429  0.00  0.00    +0.000 OA
BRANCH  21  23
ATOM     23  O   UNL     1      -3.190  11.700  15.386  0.00  0.00    +0.000 OA
ATOM     24  H   UNL     1      -2.663  11.977  14.612  0.00  0.00    +0.000 HD
ENDBRANCH  21  23
ENDBRANCH  20  21
ENDBRANCH  18  20
ENDBRANCH  15  16
ENDBRANCH   3  15
TORSDOF 7
ENDMDL
