MODEL 1
REMARK VINA RESULT:      -8.1      0.000      0.000
REMARK  Name = 
REMARK  9 active torsions:
REMARK  status: ('A' for Active; 'I' for Inactive)
REMARK    1  A    between atoms: C_2  and  O_3
REMARK    2  A    between atoms: C_2  and  C_4
REMARK    3  A    between atoms: C_7  and  S_8
REMARK    4  A    between atoms: S_8  and  N_11
REMARK    5  A    between atoms: N_11  and  C_12
REMARK    6  A    between atoms: N_11  and  C_20
REMARK    7  A    between atoms: C_12  and  C_13
REMARK    8  A    between atoms: C_13  and  C_14
REMARK    9  A    between atoms: C_23  and  C_24
REMARK                            x       y       z     vdW  Elec       q    Type
REMARK                         _______ _______ _______ _____ _____    ______ ____
ROOT
ATOM      1  N   UNL     1       7.100   6.493  17.576  0.00  0.00    +0.000 N 
ENDROOT
BRANCH   1   2
ATOM      2  C   UNL     1       6.623   5.864  16.374  0.00  0.00    +0.000 A 
ATOM      3  N   UNL     1       7.568   5.036  15.872  0.00  0.00    +0.000 NA
ATOM      4  C   UNL     1       7.282   4.387  14.723  0.00  0.00    +0.000 A 
ATOM      5  C   UNL     1       6.078   4.506  14.046  0.00  0.00    +0.000 A 
ATOM      6  C   UNL     1       5.090   5.316  14.617  0.00  0.00    +0.000 A 
ATOM      7  C   UNL     1       5.352   6.005  15.803  0.00  0.00    +0.000 A 
ATOM      8 CL   UNL     1       4.071   6.929  16.483  0.00  0.00    +0.000 Cl
BRANCH   5   9
ATOM      9  C   UNL     1       5.862   3.797  12.744  0.00  0.00    +0.000 C 
ATOM     10  F   UNL     1       6.603   4.306  11.722  0.00  0.00    +0.000 F 
ATOM     11  F   UNL     1       6.176   2.476  12.814  0.00  0.00    +0.000 F 
ATOM     12  F   UNL     1       4.567   3.857  12.333  0.00  0.00    +0.000 F 
ENDBRANCH   5   9
ENDBRANCH   1   2
BRANCH   1  13
ATOM     13  S   UNL     1       7.124   5.379  18.862  0.00  0.00    +0.000 S 
ATOM     14  O   UNL     1       7.383   6.123  20.071  0.00  0.00    +0.000 OA
ATOM     15  O   UNL     1       7.959   4.248  18.495  0.00  0.00    +0.000 OA
BRANCH  13  19
ATOM     16  C   UNL     1       2.910   3.630  19.146  0.00  0.00    +0.000 A 
ATOM     17  C   UNL     1       3.141   4.936  19.605  0.00  0.00    +0.000 A 
ATOM     18  C   UNL     1       4.432   5.485  19.550  0.00  0.00    +0.000 A 
ATOM     19  C   UNL     1       5.479   4.718  19.033  0.00  0.00    +0.000 A 
ATOM     20  C   UNL     1       5.227   3.444  18.499  0.00  0.00    +0.000 A 
ATOM     21  C   UNL     1       3.944   2.901  18.552  0.00  0.00    +0.000 A 
BRANCH  16  23
ATOM     22  O   UNL     1       0.711   3.459  20.049  0.00  0.00    +0.000 OA
ATOM     23  C   UNL     1       1.560   3.036  19.286  0.00  0.00    +0.000 C 
BRANCH  23  24
ATOM     24  O   UNL     1       1.399   1.933  18.520  0.00  0.00    +0.000 OA
ATOM     25  H   UNL     1       2.033   1.846  17.784  0.00  0.00    +0.000 HD
ENDBRANCH  23  24
ENDBRANCH  16  23
ENDBRANCH  13  19
ENDBRANCH   1  13
BRANCH   1  26
ATOM     26  C   UNL     1       8.176   7.524  17.379  0.00  0.00    +0.000 C 
BRANCH  26  27
ATOM     27  C   UNL     1       7.602   8.903  17.799  0.00  0.00    +0.000 C 
BRANCH  27  28
ATOM     28  C   UNL     1       8.435  10.103  18.185  0.00  0.00    +0.000 A 
ATOM     29  C   UNL     1       8.356  11.370  17.602  0.00  0.00    +0.000 A 
ATOM     30  C   UNL     1       9.075  12.443  18.152  0.00  0.00    +0.000 A 
ATOM     31  C   UNL     1       9.868  12.270  19.289  0.00  0.00    +0.000 A 
ATOM     32  C   UNL     1       9.949  11.020  19.885  0.00  0.00    +0.000 A 
ATOM     33  C   UNL     1       9.238   9.952  19.338  0.00  0.00    +0.000 A 
ENDBRANCH  27  28
ENDBRANCH  26  27
ENDBRANCH   1  26
TORSDOF 9
ENDMDL
MODEL 2
REMARK VINA RESULT:      -8.0      0.306      1.211
REMARK  Name = 
REMARK  9 active torsions:
REMARK  status: ('A' for Active; 'I' for Inactive)
REMARK    1  A    between atoms: C_2  and  O_3
REMARK    2  A    between atoms: C_2  and  C_4
REMARK    3  A    between atoms: C_7  and  S_8
REMARK    4  A    between atoms: S_8  and  N_11
REMARK    5  A    between atoms: N_11  and  C_12
REMARK    6  A    between atoms: N_11  and  C_20
REMARK    7  A    between atoms: C_12  and  C_13
REMARK    8  A    between atoms: C_13  and  C_14
REMARK    9  A    between atoms: C_23  and  C_24
REMARK                            x       y       z     vdW  Elec       q    Type
REMARK                         _______ _______ _______ _____ _____    ______ ____
ROOT
ATOM      1  N   UNL     1       7.118   6.528  17.584  0.00  0.00    +0.000 N 
ENDROOT
BRANCH   1   2
ATOM      2  C   UNL     1       6.633   5.908  16.380  0.00  0.00    +0.000 A 
ATOM      3  N   UNL     1       7.564   5.062  15.882  0.00  0.00    +0.000 NA
ATOM      4  C   UNL     1       7.269   4.418  14.732  0.00  0.00    +0.000 A 
ATOM      5  C   UNL     1       6.071   4.559  14.050  0.00  0.00    +0.000 A 
ATOM      6  C   UNL     1       5.097   5.389  14.618  0.00  0.00    +0.000 A 
ATOM      7  C   UNL     1       5.367   6.073  15.804  0.00  0.00    +0.000 A 
ATOM      8 CL   UNL     1       4.102   7.022  16.480  0.00  0.00    +0.000 Cl
BRANCH   5   9
ATOM      9  C   UNL     1       5.846   3.855  12.748  0.00  0.00    +0.000 C 
ATOM     10  F   UNL     1       4.547   3.870  12.342  0.00  0.00    +0.000 F 
ATOM     11  F   UNL     1       6.564   4.402  11.731  0.00  0.00    +0.000 F 
ATOM     12  F   UNL     1       6.206   2.544  12.802  0.00  0.00    +0.000 F 
ENDBRANCH   5   9
ENDBRANCH   1   2
BRANCH   1  13
ATOM     13  S   UNL     1       7.144   5.407  18.863  0.00  0.00    +0.000 S 
ATOM     14  O   UNL     1       7.407   6.143  20.076  0.00  0.00    +0.000 OA
ATOM     15  O   UNL     1       7.977   4.276  18.487  0.00  0.00    +0.000 OA
BRANCH  13  19
ATOM     16  C   UNL     1       2.931   3.656  19.150  0.00  0.00    +0.000 A 
ATOM     17  C   UNL     1       3.157   4.971  19.587  0.00  0.00    +0.000 A 
ATOM     18  C   UNL     1       4.448   5.521  19.531  0.00  0.00    +0.000 A 
ATOM     19  C   UNL     1       5.499   4.746  19.034  0.00  0.00    +0.000 A 
ATOM     20  C   UNL     1       5.252   3.463  18.522  0.00  0.00    +0.000 A 
ATOM     21  C   UNL     1       3.969   2.919  18.576  0.00  0.00    +0.000 A 
BRANCH  16  23
ATOM     22  O   UNL     1       0.863   2.785  18.348  0.00  0.00    +0.000 OA
ATOM     23  C   UNL     1       1.580   3.063  19.291  0.00  0.00    +0.000 C 
BRANCH  23  24
ATOM     24  O   UNL     1       1.208   2.926  20.584  0.00  0.00    +0.000 OA
ATOM     25  H   UNL     1       0.247   2.962  20.742  0.00  0.00    +0.000 HD
ENDBRANCH  23  24
ENDBRANCH  16  23
ENDBRANCH  13  19
ENDBRANCH   1  13
BRANCH   1  26
ATOM     26  C   UNL     1       8.197   7.556  17.388  0.00  0.00    +0.000 C 
BRANCH  26  27
ATOM     27  C   UNL     1       7.603   8.947  17.738  0.00  0.00    +0.000 C 
BRANCH  27  28
ATOM     28  C   UNL     1       8.407  10.134  18.216  0.00  0.00    +0.000 A 
ATOM     29  C   UNL     1       9.463  10.086  19.129  0.00  0.00    +0.000 A 
ATOM     30  C   UNL     1      10.231  11.235  19.377  0.00  0.00    +0.000 A 
ATOM     31  C   UNL     1       9.964  12.435  18.713  0.00  0.00    +0.000 A 
ATOM     32  C   UNL     1       8.924  12.495  17.796  0.00  0.00    +0.000 A 
ATOM     33  C   UNL     1       8.159  11.356  17.552  0.00  0.00    +0.000 A 
ENDBRANCH  27  28
ENDBRANCH  26  27
ENDBRANCH   1  26
TORSDOF 9
ENDMDL
MODEL 3
REMARK VINA RESULT:      -7.7      1.137      1.658
REMARK  Name = 
REMARK  9 active torsions:
REMARK  status: ('A' for Active; 'I' for Inactive)
REMARK    1  A    between atoms: C_2  and  O_3
REMARK    2  A    between atoms: C_2  and  C_4
REMARK    3  A    between atoms: C_7  and  S_8
REMARK    4  A    between atoms: S_8  and  N_11
REMARK    5  A    between atoms: N_11  and  C_12
REMARK    6  A    between atoms: N_11  and  C_20
REMARK    7  A    between atoms: C_12  and  C_13
REMARK    8  A    between atoms: C_13  and  C_14
REMARK    9  A    between atoms: C_23  and  C_24
REMARK                            x       y       z     vdW  Elec       q    Type
REMARK                         _______ _______ _______ _____ _____    ______ ____
ROOT
ATOM      1  N   UNL     1       6.159   6.292  17.177  0.00  0.00    +0.000 N 
ENDROOT
BRANCH   1   2
ATOM      2  C   UNL     1       6.133   5.525  15.961  0.00  0.00    +0.000 A 
ATOM      3  N   UNL     1       7.273   5.721  15.259  0.00  0.00    +0.000 NA
ATOM      4  C   UNL     1       7.392   5.087  14.073  0.00  0.00    +0.000 A 
ATOM      5  C   UNL     1       6.429   4.239  13.548  0.00  0.00    +0.000 A 
ATOM      6  C   UNL     1       5.287   3.998  14.322  0.00  0.00    +0.000 A 
ATOM      7  C   UNL     1       5.129   4.639  15.551  0.00  0.00    +0.000 A 
ATOM      8 CL   UNL     1       3.734   4.246  16.477  0.00  0.00    +0.000 Cl
BRANCH   5   9
ATOM      9  C   UNL     1       6.612   3.620  12.197  0.00  0.00    +0.000 C 
ATOM     10  F   UNL     1       7.181   2.384  12.240  0.00  0.00    +0.000 F 
ATOM     11  F   UNL     1       5.436   3.469  11.532  0.00  0.00    +0.000 F 
ATOM     12  F   UNL     1       7.409   4.371  11.389  0.00  0.00    +0.000 F 
ENDBRANCH   5   9
ENDBRANCH   1   2
BRANCH   1  13
ATOM     13  S   UNL     1       6.661   5.326  18.482  0.00  0.00    +0.000 S 
ATOM     14  O   UNL     1       7.275   6.198  19.454  0.00  0.00    +0.000 OA
ATOM     15  O   UNL     1       7.377   4.169  17.970  0.00  0.00    +0.000 OA
BRANCH  13  19
ATOM     16  C   UNL     1       2.907   3.527  20.370  0.00  0.00    +0.000 A 
ATOM     17  C   UNL     1       2.962   4.910  20.140  0.00  0.00    +0.000 A 
ATOM     18  C   UNL     1       4.114   5.488  19.583  0.00  0.00    +0.000 A 
ATOM     19  C   UNL     1       5.200   4.671  19.262  0.00  0.00    +0.000 A 
ATOM     20  C   UNL     1       5.109   3.278  19.417  0.00  0.00    +0.000 A 
ATOM     21  C   UNL     1       3.962   2.706  19.967  0.00  0.00    +0.000 A 
BRANCH  16  23
ATOM     22  O   UNL     1       0.619   2.875  20.509  0.00  0.00    +0.000 OA
ATOM     23  C   UNL     1       1.716   2.945  21.032  0.00  0.00    +0.000 C 
BRANCH  23  24
ATOM     24  O   UNL     1       1.968   2.560  22.305  0.00  0.00    +0.000 OA
ATOM     25  H   UNL     1       2.240   1.629  22.408  0.00  0.00    +0.000 HD
ENDBRANCH  23  24
ENDBRANCH  16  23
ENDBRANCH  13  19
ENDBRANCH   1  13
BRANCH   1  26
ATOM     26  C   UNL     1       6.583   7.727  17.022  0.00  0.00    +0.000 C 
BRANCH  26  27
ATOM     27  C   UNL     1       7.929   7.912  17.772  0.00  0.00    +0.000 C 
BRANCH  27  28
ATOM     28  C   UNL     1       8.434   9.223  18.329  0.00  0.00    +0.000 A 
ATOM     29  C   UNL     1       9.167   9.377  19.508  0.00  0.00    +0.000 A 
ATOM     30  C   UNL     1       9.709  10.629  19.840  0.00  0.00    +0.000 A 
ATOM     31  C   UNL     1       9.538  11.732  19.000  0.00  0.00    +0.000 A 
ATOM     32  C   UNL     1       8.819  11.592  17.821  0.00  0.00    +0.000 A 
ATOM     33  C   UNL     1       8.278  10.350  17.492  0.00  0.00    +0.000 A 
ENDBRANCH  27  28
ENDBRANCH  26  27
ENDBRANCH   1  26
TORSDOF 9
ENDMDL
MODEL 4
REMARK VINA RESULT:      -7.6      0.950      1.258
REMARK  Name = 
REMARK  9 active torsions:
REMARK  status: ('A' for Active; 'I' for Inactive)
REMARK    1  A    between atoms: C_2  and  O_3
REMARK    2  A    between atoms: C_2  and  C_4
REMARK    3  A    between atoms: C_7  and  S_8
REMARK    4  A    between atoms: S_8  and  N_11
REMARK    5  A    between atoms: N_11  and  C_12
REMARK    6  A    between atoms: N_11  and  C_20
REMARK    7  A    between atoms: C_12  and  C_13
REMARK    8  A    between atoms: C_13  and  C_14
REMARK    9  A    between atoms: C_23  and  C_24
REMARK                            x       y       z     vdW  Elec       q    Type
REMARK                         _______ _______ _______ _____ _____    ______ ____
ROOT
ATOM      1  N   UNL     1       6.901   6.295  17.074  0.00  0.00    +0.000 N 
ENDROOT
BRANCH   1   2
ATOM      2  C   UNL     1       6.540   5.531  15.910  0.00  0.00    +0.000 A 
ATOM      3  N   UNL     1       7.630   5.309  15.139  0.00  0.00    +0.000 NA
ATOM      4  C   UNL     1       7.452   4.624  13.990  0.00  0.00    +0.000 A 
ATOM      5  C   UNL     1       6.230   4.123  13.568  0.00  0.00    +0.000 A 
ATOM      6  C   UNL     1       5.128   4.307  14.412  0.00  0.00    +0.000 A 
ATOM      7  C   UNL     1       5.275   5.014  15.607  0.00  0.00    +0.000 A 
ATOM      8 CL   UNL     1       3.895   5.145  16.626  0.00  0.00    +0.000 Cl
BRANCH   5   9
ATOM      9  C   UNL     1       6.106   3.425  12.249  0.00  0.00    +0.000 C 
ATOM     10  F   UNL     1       6.071   2.069  12.356  0.00  0.00    +0.000 F 
ATOM     11  F   UNL     1       4.976   3.778  11.580  0.00  0.00    +0.000 F 
ATOM     12  F   UNL     1       7.143   3.708  11.416  0.00  0.00    +0.000 F 
ENDBRANCH   5   9
ENDBRANCH   1   2
BRANCH   1  13
ATOM     13  S   UNL     1       7.191   5.266  18.396  0.00  0.00    +0.000 S 
ATOM     14  O   UNL     1       7.916   6.028  19.384  0.00  0.00    +0.000 OA
ATOM     15  O   UNL     1       7.711   4.000  17.909  0.00  0.00    +0.000 OA
BRANCH  13  19
ATOM     16  C   UNL     1       3.127   4.156  20.172  0.00  0.00    +0.000 A 
ATOM     17  C   UNL     1       3.433   5.508  19.954  0.00  0.00    +0.000 A 
ATOM     18  C   UNL     1       4.684   5.874  19.433  0.00  0.00    +0.000 A 
ATOM     19  C   UNL     1       5.616   4.878  19.132  0.00  0.00    +0.000 A 
ATOM     20  C   UNL     1       5.275   3.524  19.274  0.00  0.00    +0.000 A 
ATOM     21  C   UNL     1       4.032   3.162  19.790  0.00  0.00    +0.000 A 
BRANCH  16  23
ATOM     22  O   UNL     1       0.750   4.065  20.318  0.00  0.00    +0.000 OA
ATOM     23  C   UNL     1       1.835   3.791  20.798  0.00  0.00    +0.000 C 
BRANCH  23  24
ATOM     24  O   UNL     1       1.994   3.180  21.994  0.00  0.00    +0.000 OA
ATOM     25  H   UNL     1       2.580   2.400  21.983  0.00  0.00    +0.000 HD
ENDBRANCH  23  24
ENDBRANCH  16  23
ENDBRANCH  13  19
ENDBRANCH   1  13
BRANCH   1  26
ATOM     26  C   UNL     1       7.729   7.521  16.806  0.00  0.00    +0.000 C 
BRANCH  26  27
ATOM     27  C   UNL     1       7.551   8.491  18.005  0.00  0.00    +0.000 C 
BRANCH  27  28
ATOM     28  C   UNL     1       8.347   9.758  18.215  0.00  0.00    +0.000 A 
ATOM     29  C   UNL     1       8.189  10.946  17.499  0.00  0.00    +0.000 A 
ATOM     30  C   UNL     1       8.884  12.102  17.891  0.00  0.00    +0.000 A 
ATOM     31  C   UNL     1       9.731  12.089  19.002  0.00  0.00    +0.000 A 
ATOM     32  C   UNL     1       9.890  10.918  19.730  0.00  0.00    +0.000 A 
ATOM     33  C   UNL     1       9.204   9.770  19.339  0.00  0.00    +0.000 A 
ENDBRANCH  27  28
ENDBRANCH  26  27
ENDBRANCH   1  26
TORSDOF 9
ENDMDL
MODEL 5
REMARK VINA RESULT:      -7.4      0.430      1.361
REMARK  Name = 
REMARK  9 active torsions:
REMARK  status: ('A' for Active; 'I' for Inactive)
REMARK    1  A    between atoms: C_2  and  O_3
REMARK    2  A    between atoms: C_2  and  C_4
REMARK    3  A    between atoms: C_7  and  S_8
REMARK    4  A    between atoms: S_8  and  N_11
REMARK    5  A    between atoms: N_11  and  C_12
REMARK    6  A    between atoms: N_11  and  C_20
REMARK    7  A    between atoms: C_12  and  C_13
REMARK    8  A    between atoms: C_13  and  C_14
REMARK    9  A    between atoms: C_23  and  C_24
REMARK                            x       y       z     vdW  Elec       q    Type
REMARK                         _______ _______ _______ _____ _____    ______ ____
ROOT
ATOM      1  N   UNL     1       7.028   6.501  17.503  0.00  0.00    +0.000 N 
ENDROOT
BRANCH   1   2
ATOM      2  C   UNL     1       6.573   5.868  16.295  0.00  0.00    +0.000 A 
ATOM      3  N   UNL     1       7.532   5.045  15.808  0.00  0.00    +0.000 NA
ATOM      4  C   UNL     1       7.266   4.393  14.656  0.00  0.00    +0.000 A 
ATOM      5  C   UNL     1       6.072   4.502  13.961  0.00  0.00    +0.000 A 
ATOM      6  C   UNL     1       5.070   5.307  14.517  0.00  0.00    +0.000 A 
ATOM      7  C   UNL     1       5.310   5.999  15.705  0.00  0.00    +0.000 A 
ATOM      8 CL   UNL     1       4.013   6.916  16.366  0.00  0.00    +0.000 Cl
BRANCH   5   9
ATOM      9  C   UNL     1       5.880   3.790  12.658  0.00  0.00    +0.000 C 
ATOM     10  F   UNL     1       6.710   4.231  11.673  0.00  0.00    +0.000 F 
ATOM     11  F   UNL     1       6.096   2.452  12.760  0.00  0.00    +0.000 F 
ATOM     12  F   UNL     1       4.616   3.932  12.174  0.00  0.00    +0.000 F 
ENDBRANCH   5   9
ENDBRANCH   1   2
BRANCH   1  13
ATOM     13  S   UNL     1       7.010   5.399  18.798  0.00  0.00    +0.000 S 
ATOM     14  O   UNL     1       7.219   6.154  20.010  0.00  0.00    +0.000 OA
ATOM     15  O   UNL     1       7.865   4.269  18.473  0.00  0.00    +0.000 OA
BRANCH  13  19
ATOM     16  C   UNL     1       2.777   3.734  19.245  0.00  0.00    +0.000 A 
ATOM     17  C   UNL     1       3.780   2.917  18.703  0.00  0.00    +0.000 A 
ATOM     18  C   UNL     1       5.082   3.414  18.534  0.00  0.00    +0.000 A 
ATOM     19  C   UNL     1       5.365   4.729  18.912  0.00  0.00    +0.000 A 
ATOM     20  C   UNL     1       4.379   5.515  19.531  0.00  0.00    +0.000 A 
ATOM     21  C   UNL     1       3.087   5.018  19.700  0.00  0.00    +0.000 A 
BRANCH  16  23
ATOM     22  O   UNL     1       0.812   2.659  18.430  0.00  0.00    +0.000 OA
ATOM     23  C   UNL     1       1.390   3.221  19.342  0.00  0.00    +0.000 C 
BRANCH  23  24
ATOM     24  O   UNL     1       0.816   3.504  20.534  0.00  0.00    +0.000 OA
ATOM     25  H   UNL     1       1.281   3.143  21.311  0.00  0.00    +0.000 HD
ENDBRANCH  23  24
ENDBRANCH  16  23
ENDBRANCH  13  19
ENDBRANCH   1  13
BRANCH   1  26
ATOM     26  C   UNL     1       8.120   7.519  17.323  0.00  0.00    +0.000 C 
BRANCH  26  27
ATOM     27  C   UNL     1       8.278   8.295  18.658  0.00  0.00    +0.000 C 
BRANCH  27  28
ATOM     28  C   UNL     1       8.730   9.732  18.773  0.00  0.00    +0.000 A 
ATOM     29  C   UNL     1       9.645  10.224  19.706  0.00  0.00    +0.000 A 
ATOM     30  C   UNL     1      10.101  11.549  19.614  0.00  0.00    +0.000 A 
ATOM     31  C   UNL     1       9.659  12.391  18.590  0.00  0.00    +0.000 A 
ATOM     32  C   UNL     1       8.758  11.913  17.650  0.00  0.00    +0.000 A 
ATOM     33  C   UNL     1       8.303  10.599  17.743  0.00  0.00    +0.000 A 
ENDBRANCH  27  28
ENDBRANCH  26  27
ENDBRANCH   1  26
TORSDOF 9
ENDMDL
MODEL 6
REMARK VINA RESULT:      -7.4      3.444      7.625
REMARK  Name = 
REMARK  9 active torsions:
REMARK  status: ('A' for Active; 'I' for Inactive)
REMARK    1  A    between atoms: C_2  and  O_3
REMARK    2  A    between atoms: C_2  and  C_4
REMARK    3  A    between atoms: C_7  and  S_8
REMARK    4  A    between atoms: S_8  and  N_11
REMARK    5  A    between atoms: N_11  and  C_12
REMARK    6  A    between atoms: N_11  and  C_20
REMARK    7  A    between atoms: C_12  and  C_13
REMARK    8  A    between atoms: C_13  and  C_14
REMARK    9  A    between atoms: C_23  and  C_24
REMARK                            x       y       z     vdW  Elec       q    Type
REMARK                         _______ _______ _______ _____ _____    ______ ____
ROOT
ATOM      1  N   UNL     1       5.947   4.866  17.555  0.00  0.00    +0.000 N 
ENDROOT
BRANCH   1   2
ATOM      2  C   UNL     1       4.670   4.677  18.190  0.00  0.00    +0.000 A 
ATOM      3  N   UNL     1       4.619   3.463  18.786  0.00  0.00    +0.000 NA
ATOM      4  C   UNL     1       3.470   3.122  19.407  0.00  0.00    +0.000 A 
ATOM      5  C   UNL     1       2.358   3.945  19.486  0.00  0.00    +0.000 A 
ATOM      6  C   UNL     1       2.456   5.222  18.921  0.00  0.00    +0.000 A 
ATOM      7  C   UNL     1       3.627   5.608  18.267  0.00  0.00    +0.000 A 
ATOM      8 CL   UNL     1       3.702   7.213  17.654  0.00  0.00    +0.000 Cl
BRANCH   5   9
ATOM      9  C   UNL     1       1.100   3.467  20.143  0.00  0.00    +0.000 C 
ATOM     10  F   UNL     1       1.323   2.718  21.258  0.00  0.00    +0.000 F 
ATOM     11  F   UNL     1       0.297   4.492  20.533  0.00  0.00    +0.000 F 
ATOM     12  F   UNL     1       0.348   2.692  19.316  0.00  0.00    +0.000 F 
ENDBRANCH   5   9
ENDBRANCH   1   2
BRANCH   1  13
ATOM     13  S   UNL     1       7.145   5.209  18.712  0.00  0.00    +0.000 S 
ATOM     14  O   UNL     1       8.307   4.423  18.375  0.00  0.00    +0.000 OA
ATOM     15  O   UNL     1       6.559   5.132  20.040  0.00  0.00    +0.000 OA
BRANCH  13  19
ATOM     16  C   UNL     1       8.391   9.552  18.018  0.00  0.00    +0.000 A 
ATOM     17  C   UNL     1       8.991   8.825  19.057  0.00  0.00    +0.000 A 
ATOM     18  C   UNL     1       8.607   7.498  19.304  0.00  0.00    +0.000 A 
ATOM     19  C   UNL     1       7.624   6.911  18.504  0.00  0.00    +0.000 A 
ATOM     20  C   UNL     1       7.087   7.614  17.414  0.00  0.00    +0.000 A 
ATOM     21  C   UNL     1       7.472   8.931  17.168  0.00  0.00    +0.000 A 
BRANCH  16  23
ATOM     22  O   UNL     1       7.957  11.829  17.465  0.00  0.00    +0.000 OA
ATOM     23  C   UNL     1       8.749  10.976  17.821  0.00  0.00    +0.000 C 
BRANCH  23  24
ATOM     24  O   UNL     1      10.067  11.210  18.018  0.00  0.00    +0.000 OA
ATOM     25  H   UNL     1      10.497  11.749  17.329  0.00  0.00    +0.000 HD
ENDBRANCH  23  24
ENDBRANCH  16  23
ENDBRANCH  13  19
ENDBRANCH   1  13
BRANCH   1  26
ATOM     26  C   UNL     1       6.204   3.992  16.358  0.00  0.00    +0.000 C 
BRANCH  26  27
ATOM     27  C   UNL     1       5.668   4.730  15.102  0.00  0.00    +0.000 C 
BRANCH  27  28
ATOM     28  C   UNL     1       5.943   4.315  13.675  0.00  0.00    +0.000 A 
ATOM     29  C   UNL     1       7.118   4.570  12.965  0.00  0.00    +0.000 A 
ATOM     30  C   UNL     1       7.312   4.001  11.697  0.00  0.00    +0.000 A 
ATOM     31  C   UNL     1       6.347   3.165  11.129  0.00  0.00    +0.000 A 
ATOM     32  C   UNL     1       5.178   2.894  11.826  0.00  0.00    +0.000 A 
ATOM     33  C   UNL     1       4.983   3.462  13.084  0.00  0.00    +0.000 A 
ENDBRANCH  27  28
ENDBRANCH  26  27
ENDBRANCH   1  26
TORSDOF 9
ENDMDL
MODEL 7
REMARK VINA RESULT:      -7.4      3.553      7.598
REMARK  Name = 
REMARK  9 active torsions:
REMARK  status: ('A' for Active; 'I' for Inactive)
REMARK    1  A    between atoms: C_2  and  O_3
REMARK    2  A    between atoms: C_2  and  C_4
REMARK    3  A    between atoms: C_7  and  S_8
REMARK    4  A    between atoms: S_8  and  N_11
REMARK    5  A    between atoms: N_11  and  C_12
REMARK    6  A    between atoms: N_11  and  C_20
REMARK    7  A    between atoms: C_12  and  C_13
REMARK    8  A    between atoms: C_13  and  C_14
REMARK    9  A    between atoms: C_23  and  C_24
REMARK                            x       y       z     vdW  Elec       q    Type
REMARK                         _______ _______ _______ _____ _____    ______ ____
ROOT
ATOM      1  N   UNL     1       5.839   4.855  17.574  0.00  0.00    +0.000 N 
ENDROOT
BRANCH   1   2
ATOM      2  C   UNL     1       4.605   4.732  18.302  0.00  0.00    +0.000 A 
ATOM      3  N   UNL     1       4.578   3.563  18.984  0.00  0.00    +0.000 NA
ATOM      4  C   UNL     1       3.468   3.286  19.701  0.00  0.00    +0.000 A 
ATOM      5  C   UNL     1       2.373   4.130  19.792  0.00  0.00    +0.000 A 
ATOM      6  C   UNL     1       2.449   5.362  19.132  0.00  0.00    +0.000 A 
ATOM      7  C   UNL     1       3.580   5.683  18.379  0.00  0.00    +0.000 A 
ATOM      8 CL   UNL     1       3.634   7.240  17.650  0.00  0.00    +0.000 Cl
BRANCH   5   9
ATOM      9  C   UNL     1       1.155   3.720  20.560  0.00  0.00    +0.000 C 
ATOM     10  F   UNL     1       0.266   4.734  20.746  0.00  0.00    +0.000 F 
ATOM     11  F   UNL     1       0.464   2.724  19.944  0.00  0.00    +0.000 F 
ATOM     12  F   UNL     1       1.460   3.257  21.802  0.00  0.00    +0.000 F 
ENDBRANCH   5   9
ENDBRANCH   1   2
BRANCH   1  13
ATOM     13  S   UNL     1       7.126   5.189  18.635  0.00  0.00    +0.000 S 
ATOM     14  O   UNL     1       8.246   4.377  18.223  0.00  0.00    +0.000 OA
ATOM     15  O   UNL     1       6.640   5.140  20.004  0.00  0.00    +0.000 OA
BRANCH  13  19
ATOM     16  C   UNL     1       8.386   9.552  18.112  0.00  0.00    +0.000 A 
ATOM     17  C   UNL     1       7.360   9.035  17.307  0.00  0.00    +0.000 A 
ATOM     18  C   UNL     1       6.973   7.691  17.433  0.00  0.00    +0.000 A 
ATOM     19  C   UNL     1       7.619   6.879  18.368  0.00  0.00    +0.000 A 
ATOM     20  C   UNL     1       8.586   7.423  19.229  0.00  0.00    +0.000 A 
ATOM     21  C   UNL     1       8.967   8.759  19.104  0.00  0.00    +0.000 A 
BRANCH  16  23
ATOM     22  O   UNL     1       8.147  11.816  17.408  0.00  0.00    +0.000 OA
ATOM     23  C   UNL     1       8.837  10.949  17.911  0.00  0.00    +0.000 C 
BRANCH  23  24
ATOM     24  O   UNL     1      10.123  11.136  18.287  0.00  0.00    +0.000 OA
ATOM     25  H   UNL     1      10.570  11.893  17.865  0.00  0.00    +0.000 HD
ENDBRANCH  23  24
ENDBRANCH  16  23
ENDBRANCH  13  19
ENDBRANCH   1  13
BRANCH   1  26
ATOM     26  C   UNL     1       5.983   3.936  16.393  0.00  0.00    +0.000 C 
BRANCH  26  27
ATOM     27  C   UNL     1       5.897   4.796  15.104  0.00  0.00    +0.000 C 
BRANCH  27  28
ATOM     28  C   UNL     1       6.307   4.330  13.726  0.00  0.00    +0.000 A 
ATOM     29  C   UNL     1       5.674   3.330  12.984  0.00  0.00    +0.000 A 
ATOM     30  C   UNL     1       6.056   3.093  11.654  0.00  0.00    +0.000 A 
ATOM     31  C   UNL     1       7.060   3.853  11.048  0.00  0.00    +0.000 A 
ATOM     32  C   UNL     1       7.692   4.856  11.770  0.00  0.00    +0.000 A 
ATOM     33  C   UNL     1       7.316   5.089  13.092  0.00  0.00    +0.000 A 
ENDBRANCH  27  28
ENDBRANCH  26  27
ENDBRANCH   1  26
TORSDOF 9
ENDMDL
MODEL 8
REMARK VINA RESULT:      -7.3      2.244      6.699
REMARK  Name = 
REMARK  9 active torsions:
REMARK  status: ('A' for Active; 'I' for Inactive)
REMARK    1  A    between atoms: C_2  and  O_3
REMARK    2  A    between atoms: C_2  and  C_4
REMARK    3  A    between atoms: C_7  and  S_8
REMARK    4  A    between atoms: S_8  and  N_11
REMARK    5  A    between atoms: N_11  and  C_12
REMARK    6  A    between atoms: N_11  and  C_20
REMARK    7  A    between atoms: C_12  and  C_13
REMARK    8  A    between atoms: C_13  and  C_14
REMARK    9  A    between atoms: C_23  and  C_24
REMARK                            x       y       z     vdW  Elec       q    Type
REMARK                         _______ _______ _______ _____ _____    ______ ____
ROOT
ATOM      1  N   UNL     1       5.613   5.669  17.621  0.00  0.00    +0.000 N 
ENDROOT
BRANCH   1   2
ATOM      2  C   UNL     1       5.719   4.994  16.355  0.00  0.00    +0.000 A 
ATOM      3  N   UNL     1       6.421   5.750  15.479  0.00  0.00    +0.000 NA
ATOM      4  C   UNL     1       6.587   5.264  14.230  0.00  0.00    +0.000 A 
ATOM      5  C   UNL     1       6.100   4.039  13.805  0.00  0.00    +0.000 A 
ATOM      6  C   UNL     1       5.434   3.244  14.746  0.00  0.00    +0.000 A 
ATOM      7  C   UNL     1       5.241   3.715  16.046  0.00  0.00    +0.000 A 
ATOM      8 CL   UNL     1       4.474   2.660  17.166  0.00  0.00    +0.000 Cl
BRANCH   5   9
ATOM      9  C   UNL     1       6.276   3.599  12.384  0.00  0.00    +0.000 C 
ATOM     10  F   UNL     1       5.125   3.642  11.659  0.00  0.00    +0.000 F 
ATOM     11  F   UNL     1       7.173   4.367  11.710  0.00  0.00    +0.000 F 
ATOM     12  F   UNL     1       6.729   2.320  12.292  0.00  0.00    +0.000 F 
ENDBRANCH   5   9
ENDBRANCH   1   2
BRANCH   1  13
ATOM     13  S   UNL     1       7.121   5.706  18.406  0.00  0.00    +0.000 S 
ATOM     14  O   UNL     1       8.023   4.872  17.647  0.00  0.00    +0.000 OA
ATOM     15  O   UNL     1       6.923   5.479  19.828  0.00  0.00    +0.000 OA
BRANCH  13  19
ATOM     16  C   UNL     1       8.730   9.981  18.231  0.00  0.00    +0.000 A 
ATOM     17  C   UNL     1       7.773   9.571  17.290  0.00  0.00    +0.000 A 
ATOM     18  C   UNL     1       7.282   8.256  17.310  0.00  0.00    +0.000 A 
ATOM     19  C   UNL     1       7.757   7.364  18.275  0.00  0.00    +0.000 A 
ATOM     20  C   UNL     1       8.651   7.802  19.264  0.00  0.00    +0.000 A 
ATOM     21  C   UNL     1       9.135   9.110  19.245  0.00  0.00    +0.000 A 
BRANCH  16  23
ATOM     22  O   UNL     1       8.639  12.337  17.883  0.00  0.00    +0.000 OA
ATOM     23  C   UNL     1       9.297  11.348  18.147  0.00  0.00    +0.000 C 
BRANCH  23  24
ATOM     24  O   UNL     1      10.637  11.363  18.330  0.00  0.00    +0.000 OA
ATOM     25  H   UNL     1      11.078  12.195  18.075  0.00  0.00    +0.000 HD
ENDBRANCH  23  24
ENDBRANCH  16  23
ENDBRANCH  13  19
ENDBRANCH   1  13
BRANCH   1  26
ATOM     26  C   UNL     1       4.657   6.829  17.652  0.00  0.00    +0.000 C 
BRANCH  26  27
ATOM     27  C   UNL     1       3.213   6.262  17.595  0.00  0.00    +0.000 C 
BRANCH  27  28
ATOM     28  C   UNL     1       2.611   5.328  18.619  0.00  0.00    +0.000 A 
ATOM     29  C   UNL     1       2.711   5.468  20.005  0.00  0.00    +0.000 A 
ATOM     30  C   UNL     1       1.980   4.620  20.852  0.00  0.00    +0.000 A 
ATOM     31  C   UNL     1       1.136   3.637  20.330  0.00  0.00    +0.000 A 
ATOM     32  C   UNL     1       1.018   3.493  18.955  0.00  0.00    +0.000 A 
ATOM     33  C   UNL     1       1.747   4.332  18.113  0.00  0.00    +0.000 A 
ENDBRANCH  27  28
ENDBRANCH  26  27
ENDBRANCH   1  26
TORSDOF 9
ENDMDL
MODEL 9
REMARK VINA RESULT:      -7.2      8.590     10.375
REMARK  Name = 
REMARK  9 active torsions:
REMARK  status: ('A' for Active; 'I' for Inactive)
REMARK    1  A    between atoms: C_2  and  O_3
REMARK    2  A    between atoms: C_2  and  C_4
REMARK    3  A    between atoms: C_7  and  S_8
REMARK    4  A    between atoms: S_8  and  N_11
REMARK    5  A    between atoms: N_11  and  C_12
REMARK    6  A    between atoms: N_11  and  C_20
REMARK    7  A    between atoms: C_12  and  C_13
REMARK    8  A    between atoms: C_13  and  C_14
REMARK    9  A    between atoms: C_23  and  C_24
REMARK                            x       y       z     vdW  Elec       q    Type
REMARK                         _______ _______ _______ _____ _____    ______ ____
ROOT
ATOM      1  N   UNL     1      -0.014  10.863  19.464  0.00  0.00    +0.000 N 
ENDROOT
BRANCH   1   2
ATOM      2  C   UNL     1       0.850   9.734  19.251  0.00  0.00    +0.000 A 
ATOM      3  N   UNL     1       1.615   9.930  18.151  0.00  0.00    +0.000 NA
ATOM      4  C   UNL     1       2.466   8.943  17.800  0.00  0.00    +0.000 A 
ATOM      5  C   UNL     1       2.613   7.759  18.505  0.00  0.00    +0.000 A 
ATOM      6  C   UNL     1       1.860   7.605  19.675  0.00  0.00    +0.000 A 
ATOM      7  C   UNL     1       0.968   8.603  20.068  0.00  0.00    +0.000 A 
ATOM      8 CL   UNL     1       0.125   8.377  21.551  0.00  0.00    +0.000 Cl
BRANCH   5   9
ATOM      9  C   UNL     1       3.536   6.688  18.014  0.00  0.00    +0.000 C 
ATOM     10  F   UNL     1       4.353   7.098  17.005  0.00  0.00    +0.000 F 
ATOM     11  F   UNL     1       4.355   6.219  18.992  0.00  0.00    +0.000 F 
ATOM     12  F   UNL     1       2.864   5.607  17.535  0.00  0.00    +0.000 F 
ENDBRANCH   5   9
ENDBRANCH   1   2
BRANCH   1  13
ATOM     13  S   UNL     1       0.618  11.878  20.674  0.00  0.00    +0.000 S 
ATOM     14  O   UNL     1       0.989  13.122  20.043  0.00  0.00    +0.000 OA
ATOM     15  O   UNL     1       1.583  11.131  21.464  0.00  0.00    +0.000 OA
BRANCH  13  19
ATOM     16  C   UNL     1      -2.863  12.748  23.506  0.00  0.00    +0.000 A 
ATOM     17  C   UNL     1      -2.400  13.765  22.658  0.00  0.00    +0.000 A 
ATOM     18  C   UNL     1      -1.317  13.528  21.797  0.00  0.00    +0.000 A 
ATOM     19  C   UNL     1      -0.709  12.271  21.795  0.00  0.00    +0.000 A 
ATOM     20  C   UNL     1      -1.228  11.232  22.584  0.00  0.00    +0.000 A 
ATOM     21  C   UNL     1      -2.306  11.469  23.437  0.00  0.00    +0.000 A 
BRANCH  16  23
ATOM     22  O   UNL     1      -4.915  12.311  24.637  0.00  0.00    +0.000 OA
ATOM     23  C   UNL     1      -3.954  13.038  24.466  0.00  0.00    +0.000 C 
BRANCH  23  24
ATOM     24  O   UNL     1      -3.797  14.232  25.082  0.00  0.00    +0.000 OA
ATOM     25  H   UNL     1      -3.041  14.283  25.697  0.00  0.00    +0.000 HD
ENDBRANCH  23  24
ENDBRANCH  16  23
ENDBRANCH  13  19
ENDBRANCH   1  13
BRANCH   1  26
ATOM     26  C   UNL     1      -0.688  11.398  18.231  0.00  0.00    +0.000 C 
BRANCH  26  27
ATOM     27  C   UNL     1      -2.004  10.603  18.021  0.00  0.00    +0.000 C 
BRANCH  27  28
ATOM     28  C   UNL     1      -3.392  11.153  18.255  0.00  0.00    +0.000 A 
ATOM     29  C   UNL     1      -4.561  10.699  17.640  0.00  0.00    +0.000 A 
ATOM     30  C   UNL     1      -5.810  11.189  18.054  0.00  0.00    +0.000 A 
ATOM     31  C   UNL     1      -5.908  12.123  19.088  0.00  0.00    +0.000 A 
ATOM     32  C   UNL     1      -4.756  12.576  19.716  0.00  0.00    +0.000 A 
ATOM     33  C   UNL     1      -3.516  12.093  19.302  0.00  0.00    +0.000 A 
ENDBRANCH  27  28
ENDBRANCH  26  27
ENDBRANCH   1  26
TORSDOF 9
ENDMDL
