MODEL 1
REMARK VINA RESULT:      -7.8      0.000      0.000
REMARK  Name = 
REMARK  3 active torsions:
REMARK  status: ('A' for Active; 'I' for Inactive)
REMARK    1  A    between atoms: C_6  and  C_7
REMARK    2  A    between atoms: C_7  and  C_8
REMARK    3  A    between atoms: C_8  and  C_9
REMARK                            x       y       z     vdW  Elec       q    Type
REMARK                         _______ _______ _______ _____ _____    ______ ____
ROOT
ATOM      1  C   UNL     1       7.519   7.085  17.655  0.00  0.00    +0.000 A 
ATOM      2  C   UNL     1       7.958   6.404  18.785  0.00  0.00    +0.000 A 
ATOM      3  N   UNL     1       7.392   5.288  19.311  0.00  0.00    +0.000 NA
ATOM      4  C   UNL     1       6.330   4.878  18.593  0.00  0.00    +0.000 A 
ATOM      5  N   UNL     1       5.556   3.781  18.832  0.00  0.00    +0.000 N 
ATOM      6  C   UNL     1       4.623   3.691  17.825  0.00  0.00    +0.000 A 
ATOM      7  N   UNL     1       4.728   4.710  16.990  0.00  0.00    +0.000 NA
ATOM      8  C   UNL     1       5.792   5.451  17.449  0.00  0.00    +0.000 A 
ATOM      9  C   UNL     1       6.401   6.610  16.958  0.00  0.00    +0.000 A 
ATOM     10  H   UNL     1       5.697   3.132  19.590  0.00  0.00    +0.000 HD
ENDROOT
BRANCH   6  11
ATOM     11  C   UNL     1       3.697   2.526  17.697  0.00  0.00    +0.000 C 
BRANCH  11  12
ATOM     12  C   UNL     1       3.177   1.993  19.035  0.00  0.00    +0.000 C 
BRANCH  12  13
ATOM     13  C   UNL     1       1.708   2.351  19.364  0.00  0.00    +0.000 C 
ATOM     14  C   UNL     1       1.445   2.533  20.869  0.00  0.00    +0.000 C 
ATOM     15  C   UNL     1       2.094   3.796  21.425  0.00  0.00    +0.000 C 
ATOM     16  C   UNL     1       1.609   5.037  20.684  0.00  0.00    +0.000 C 
ATOM     17  C   UNL     1       1.782   4.921  19.172  0.00  0.00    +0.000 C 
ATOM     18  C   UNL     1       1.242   3.606  18.605  0.00  0.00    +0.000 C 
ENDBRANCH  12  13
ENDBRANCH  11  12
ENDBRANCH   6  11
TORSDOF 3
ENDMDL
MODEL 2
REMARK VINA RESULT:      -7.6      1.102      1.687
REMARK  Name = 
REMARK  3 active torsions:
REMARK  status: ('A' for Active; 'I' for Inactive)
REMARK    1  A    between atoms: C_6  and  C_7
REMARK    2  A    between atoms: C_7  and  C_8
REMARK    3  A    between atoms: C_8  and  C_9
REMARK                            x       y       z     vdW  Elec       q    Type
REMARK                         _______ _______ _______ _____ _____    ______ ____
ROOT
ATOM      1  C   UNL     1       8.154   7.104  18.671  0.00  0.00    +0.000 A 
ATOM      2  C   UNL     1       7.642   7.694  17.520  0.00  0.00    +0.000 A 
ATOM      3  N   UNL     1       6.679   7.169  16.720  0.00  0.00    +0.000 NA
ATOM      4  C   UNL     1       6.238   5.984  17.176  0.00  0.00    +0.000 A 
ATOM      5  N   UNL     1       5.261   5.207  16.624  0.00  0.00    +0.000 N 
ATOM      6  C   UNL     1       5.074   4.115  17.439  0.00  0.00    +0.000 A 
ATOM      7  N   UNL     1       5.926   4.127  18.450  0.00  0.00    +0.000 NA
ATOM      8  C   UNL     1       6.648   5.289  18.304  0.00  0.00    +0.000 A 
ATOM      9  C   UNL     1       7.657   5.863  19.086  0.00  0.00    +0.000 A 
ATOM     10  H   UNL     1       4.740   5.442  15.794  0.00  0.00    +0.000 HD
ENDROOT
BRANCH   6  11
ATOM     11  C   UNL     1       3.981   3.124  17.209  0.00  0.00    +0.000 C 
BRANCH  11  12
ATOM     12  C   UNL     1       3.153   2.808  18.458  0.00  0.00    +0.000 C 
BRANCH  12  13
ATOM     13  C   UNL     1       1.756   3.471  18.512  0.00  0.00    +0.000 C 
ATOM     14  C   UNL     1       1.065   3.333  19.879  0.00  0.00    +0.000 C 
ATOM     15  C   UNL     1       1.735   4.178  20.958  0.00  0.00    +0.000 C 
ATOM     16  C   UNL     1       1.765   5.651  20.565  0.00  0.00    +0.000 C 
ATOM     17  C   UNL     1       2.389   5.877  19.190  0.00  0.00    +0.000 C 
ATOM     18  C   UNL     1       1.813   4.956  18.111  0.00  0.00    +0.000 C 
ENDBRANCH  12  13
ENDBRANCH  11  12
ENDBRANCH   6  11
TORSDOF 3
ENDMDL
MODEL 3
REMARK VINA RESULT:      -7.5      1.210      2.084
REMARK  Name = 
REMARK  3 active torsions:
REMARK  status: ('A' for Active; 'I' for Inactive)
REMARK    1  A    between atoms: C_6  and  C_7
REMARK    2  A    between atoms: C_7  and  C_8
REMARK    3  A    between atoms: C_8  and  C_9
REMARK                            x       y       z     vdW  Elec       q    Type
REMARK                         _______ _______ _______ _____ _____    ______ ____
ROOT
ATOM      1  C   UNL     1       8.128   6.977  18.605  0.00  0.00    +0.000 A 
ATOM      2  C   UNL     1       7.627   7.734  17.552  0.00  0.00    +0.000 A 
ATOM      3  N   UNL     1       6.543   7.424  16.795  0.00  0.00    +0.000 NA
ATOM      4  C   UNL     1       5.968   6.274  17.189  0.00  0.00    +0.000 A 
ATOM      5  N   UNL     1       4.853   5.693  16.660  0.00  0.00    +0.000 N 
ATOM      6  C   UNL     1       4.568   4.567  17.397  0.00  0.00    +0.000 A 
ATOM      7  N   UNL     1       5.482   4.369  18.331  0.00  0.00    +0.000 NA
ATOM      8  C   UNL     1       6.353   5.429  18.220  0.00  0.00    +0.000 A 
ATOM      9  C   UNL     1       7.487   5.784  18.959  0.00  0.00    +0.000 A 
ATOM     10  H   UNL     1       4.314   6.073  15.897  0.00  0.00    +0.000 HD
ENDROOT
BRANCH   6  11
ATOM     11  C   UNL     1       3.329   3.762  17.179  0.00  0.00    +0.000 C 
BRANCH  11  12
ATOM     12  C   UNL     1       2.103   4.289  17.931  0.00  0.00    +0.000 C 
BRANCH  12  13
ATOM     13  C   UNL     1       1.321   3.231  18.746  0.00  0.00    +0.000 C 
ATOM     14  C   UNL     1       2.143   1.968  19.057  0.00  0.00    +0.000 C 
ATOM     15  C   UNL     1       3.251   2.230  20.072  0.00  0.00    +0.000 C 
ATOM     16  C   UNL     1       2.686   2.787  21.374  0.00  0.00    +0.000 C 
ATOM     17  C   UNL     1       1.809   4.016  21.153  0.00  0.00    +0.000 C 
ATOM     18  C   UNL     1       0.762   3.817  20.055  0.00  0.00    +0.000 C 
ENDBRANCH  12  13
ENDBRANCH  11  12
ENDBRANCH   6  11
TORSDOF 3
ENDMDL
MODEL 4
REMARK VINA RESULT:      -7.5      0.843      1.113
REMARK  Name = 
REMARK  3 active torsions:
REMARK  status: ('A' for Active; 'I' for Inactive)
REMARK    1  A    between atoms: C_6  and  C_7
REMARK    2  A    between atoms: C_7  and  C_8
REMARK    3  A    between atoms: C_8  and  C_9
REMARK                            x       y       z     vdW  Elec       q    Type
REMARK                         _______ _______ _______ _____ _____    ______ ____
ROOT
ATOM      1  C   UNL     1       7.665   7.479  17.885  0.00  0.00    +0.000 A 
ATOM      2  C   UNL     1       8.149   6.618  18.864  0.00  0.00    +0.000 A 
ATOM      3  N   UNL     1       7.610   5.420  19.205  0.00  0.00    +0.000 NA
ATOM      4  C   UNL     1       6.528   5.126  18.462  0.00  0.00    +0.000 A 
ATOM      5  N   UNL     1       5.772   3.993  18.531  0.00  0.00    +0.000 N 
ATOM      6  C   UNL     1       4.805   4.066  17.555  0.00  0.00    +0.000 A 
ATOM      7  N   UNL     1       4.872   5.217  16.907  0.00  0.00    +0.000 NA
ATOM      8  C   UNL     1       5.946   5.881  17.454  0.00  0.00    +0.000 A 
ATOM      9  C   UNL     1       6.528   7.117  17.153  0.00  0.00    +0.000 A 
ATOM     10  H   UNL     1       5.944   3.224  19.159  0.00  0.00    +0.000 HD
ENDROOT
BRANCH   6  11
ATOM     11  C   UNL     1       3.885   2.928  17.255  0.00  0.00    +0.000 C 
BRANCH  11  12
ATOM     12  C   UNL     1       2.411   3.226  17.544  0.00  0.00    +0.000 C 
BRANCH  12  13
ATOM     13  C   UNL     1       1.718   2.251  18.525  0.00  0.00    +0.000 C 
ATOM     14  C   UNL     1       2.653   1.725  19.629  0.00  0.00    +0.000 C 
ATOM     15  C   UNL     1       3.023   2.805  20.640  0.00  0.00    +0.000 C 
ATOM     16  C   UNL     1       1.779   3.403  21.289  0.00  0.00    +0.000 C 
ATOM     17  C   UNL     1       0.767   3.903  20.261  0.00  0.00    +0.000 C 
ATOM     18  C   UNL     1       0.466   2.877  19.166  0.00  0.00    +0.000 C 
ENDBRANCH  12  13
ENDBRANCH  11  12
ENDBRANCH   6  11
TORSDOF 3
ENDMDL
MODEL 5
REMARK VINA RESULT:      -7.4      2.783      3.529
REMARK  Name = 
REMARK  3 active torsions:
REMARK  status: ('A' for Active; 'I' for Inactive)
REMARK    1  A    between atoms: C_6  and  C_7
REMARK    2  A    between atoms: C_7  and  C_8
REMARK    3  A    between atoms: C_8  and  C_9
REMARK                            x       y       z     vdW  Elec       q    Type
REMARK                         _______ _______ _______ _____ _____    ______ ____
ROOT
ATOM      1  C   UNL     1       6.957   4.114  12.208  0.00  0.00    +0.000 A 
ATOM      2  C   UNL     1       7.864   5.042  12.710  0.00  0.00    +0.000 A 
ATOM      3  N   UNL     1       7.883   5.528  13.977  0.00  0.00    +0.000 NA
ATOM      4  C   UNL     1       6.911   4.991  14.736  0.00  0.00    +0.000 A 
ATOM      5  N   UNL     1       6.670   5.243  16.055  0.00  0.00    +0.000 N 
ATOM      6  C   UNL     1       5.630   4.439  16.459  0.00  0.00    +0.000 A 
ATOM      7  N   UNL     1       5.158   3.731  15.447  0.00  0.00    +0.000 NA
ATOM      8  C   UNL     1       5.952   4.057  14.372  0.00  0.00    +0.000 A 
ATOM      9  C   UNL     1       5.963   3.600  13.049  0.00  0.00    +0.000 A 
ATOM     10  H   UNL     1       7.210   5.872  16.628  0.00  0.00    +0.000 HD
ENDROOT
BRANCH   6  11
ATOM     11  C   UNL     1       5.192   4.355  17.884  0.00  0.00    +0.000 C 
BRANCH  11  12
ATOM     12  C   UNL     1       3.931   3.512  18.101  0.00  0.00    +0.000 C 
BRANCH  12  13
ATOM     13  C   UNL     1       2.592   4.265  17.916  0.00  0.00    +0.000 C 
ATOM     14  C   UNL     1       1.356   3.390  18.184  0.00  0.00    +0.000 C 
ATOM     15  C   UNL     1       1.195   3.045  19.661  0.00  0.00    +0.000 C 
ATOM     16  C   UNL     1       1.104   4.306  20.515  0.00  0.00    +0.000 C 
ATOM     17  C   UNL     1       2.269   5.262  20.272  0.00  0.00    +0.000 C 
ATOM     18  C   UNL     1       2.525   5.532  18.788  0.00  0.00    +0.000 C 
ENDBRANCH  12  13
ENDBRANCH  11  12
ENDBRANCH   6  11
TORSDOF 3
ENDMDL
MODEL 6
REMARK VINA RESULT:      -7.3      2.856      3.789
REMARK  Name = 
REMARK  3 active torsions:
REMARK  status: ('A' for Active; 'I' for Inactive)
REMARK    1  A    between atoms: C_6  and  C_7
REMARK    2  A    between atoms: C_7  and  C_8
REMARK    3  A    between atoms: C_8  and  C_9
REMARK                            x       y       z     vdW  Elec       q    Type
REMARK                         _______ _______ _______ _____ _____    ______ ____
ROOT
ATOM      1  C   UNL     1       6.796   4.009  12.205  0.00  0.00    +0.000 A 
ATOM      2  C   UNL     1       7.762   4.969  12.485  0.00  0.00    +0.000 A 
ATOM      3  N   UNL     1       7.968   5.562  13.689  0.00  0.00    +0.000 NA
ATOM      4  C   UNL     1       7.122   5.100  14.627  0.00  0.00    +0.000 A 
ATOM      5  N   UNL     1       7.079   5.466  15.941  0.00  0.00    +0.000 N 
ATOM      6  C   UNL     1       6.114   4.707  16.563  0.00  0.00    +0.000 A 
ATOM      7  N   UNL     1       5.500   3.919  15.696  0.00  0.00    +0.000 NA
ATOM      8  C   UNL     1       6.124   4.146  14.491  0.00  0.00    +0.000 A 
ATOM      9  C   UNL     1       5.940   3.577  13.226  0.00  0.00    +0.000 A 
ATOM     10  H   UNL     1       7.695   6.137  16.371  0.00  0.00    +0.000 HD
ENDROOT
BRANCH   6  11
ATOM     11  C   UNL     1       5.894   4.749  18.039  0.00  0.00    +0.000 C 
BRANCH  11  12
ATOM     12  C   UNL     1       4.418   4.742  18.449  0.00  0.00    +0.000 C 
BRANCH  12  13
ATOM     13  C   UNL     1       3.985   3.554  19.341  0.00  0.00    +0.000 C 
ATOM     14  C   UNL     1       2.811   3.887  20.278  0.00  0.00    +0.000 C 
ATOM     15  C   UNL     1       1.498   4.067  19.523  0.00  0.00    +0.000 C 
ATOM     16  C   UNL     1       1.150   2.820  18.718  0.00  0.00    +0.000 C 
ATOM     17  C   UNL     1       2.285   2.383  17.796  0.00  0.00    +0.000 C 
ATOM     18  C   UNL     1       3.639   2.308  18.505  0.00  0.00    +0.000 C 
ENDBRANCH  12  13
ENDBRANCH  11  12
ENDBRANCH   6  11
TORSDOF 3
ENDMDL
MODEL 7
REMARK VINA RESULT:      -7.2      2.236      3.354
REMARK  Name = 
REMARK  3 active torsions:
REMARK  status: ('A' for Active; 'I' for Inactive)
REMARK    1  A    between atoms: C_6  and  C_7
REMARK    2  A    between atoms: C_7  and  C_8
REMARK    3  A    between atoms: C_8  and  C_9
REMARK                            x       y       z     vdW  Elec       q    Type
REMARK                         _______ _______ _______ _____ _____    ______ ____
ROOT
ATOM      1  C   UNL     1       6.418   4.013  13.313  0.00  0.00    +0.000 A 
ATOM      2  C   UNL     1       7.503   4.832  13.608  0.00  0.00    +0.000 A 
ATOM      3  N   UNL     1       7.715   5.477  14.784  0.00  0.00    +0.000 NA
ATOM      4  C   UNL     1       6.743   5.222  15.679  0.00  0.00    +0.000 A 
ATOM      5  N   UNL     1       6.667   5.689  16.958  0.00  0.00    +0.000 N 
ATOM      6  C   UNL     1       5.553   5.136  17.547  0.00  0.00    +0.000 A 
ATOM      7  N   UNL     1       4.884   4.388  16.686  0.00  0.00    +0.000 NA
ATOM      8  C   UNL     1       5.619   4.424  15.524  0.00  0.00    +0.000 A 
ATOM      9  C   UNL     1       5.436   3.796  14.287  0.00  0.00    +0.000 A 
ATOM     10  H   UNL     1       7.350   6.288  17.393  0.00  0.00    +0.000 HD
ENDROOT
BRANCH   6  11
ATOM     11  C   UNL     1       5.239   5.323  18.995  0.00  0.00    +0.000 C 
BRANCH  11  12
ATOM     12  C   UNL     1       4.239   4.306  19.553  0.00  0.00    +0.000 C 
BRANCH  12  13
ATOM     13  C   UNL     1       2.824   4.862  19.845  0.00  0.00    +0.000 C 
ATOM     14  C   UNL     1       1.935   4.962  18.593  0.00  0.00    +0.000 C 
ATOM     15  C   UNL     1       1.514   3.594  18.067  0.00  0.00    +0.000 C 
ATOM     16  C   UNL     1       0.775   2.796  19.136  0.00  0.00    +0.000 C 
ATOM     17  C   UNL     1       1.565   2.691  20.438  0.00  0.00    +0.000 C 
ATOM     18  C   UNL     1       2.100   4.040  20.926  0.00  0.00    +0.000 C 
ENDBRANCH  12  13
ENDBRANCH  11  12
ENDBRANCH   6  11
TORSDOF 3
ENDMDL
MODEL 8
REMARK VINA RESULT:      -7.2      2.483      3.169
REMARK  Name = 
REMARK  3 active torsions:
REMARK  status: ('A' for Active; 'I' for Inactive)
REMARK    1  A    between atoms: C_6  and  C_7
REMARK    2  A    between atoms: C_7  and  C_8
REMARK    3  A    between atoms: C_8  and  C_9
REMARK                            x       y       z     vdW  Elec       q    Type
REMARK                         _______ _______ _______ _____ _____    ______ ____
ROOT
ATOM      1  C   UNL     1       6.654   4.141  12.816  0.00  0.00    +0.000 A 
ATOM      2  C   UNL     1       7.639   5.025  13.244  0.00  0.00    +0.000 A 
ATOM      3  N   UNL     1       7.780   5.509  14.504  0.00  0.00    +0.000 NA
ATOM      4  C   UNL     1       6.846   5.017  15.338  0.00  0.00    +0.000 A 
ATOM      5  N   UNL     1       6.720   5.279  16.671  0.00  0.00    +0.000 N 
ATOM      6  C   UNL     1       5.678   4.524  17.156  0.00  0.00    +0.000 A 
ATOM      7  N   UNL     1       5.096   3.840  16.186  0.00  0.00    +0.000 NA
ATOM      8  C   UNL     1       5.819   4.130  15.052  0.00  0.00    +0.000 A 
ATOM      9  C   UNL     1       5.705   3.674  13.734  0.00  0.00    +0.000 A 
ATOM     10  H   UNL     1       7.332   5.881  17.198  0.00  0.00    +0.000 HD
ENDROOT
BRANCH   6  11
ATOM     11  C   UNL     1       5.348   4.459  18.612  0.00  0.00    +0.000 C 
BRANCH  11  12
ATOM     12  C   UNL     1       3.874   4.724  18.930  0.00  0.00    +0.000 C 
BRANCH  12  13
ATOM     13  C   UNL     1       2.928   3.514  18.738  0.00  0.00    +0.000 C 
ATOM     14  C   UNL     1       3.220   2.350  19.701  0.00  0.00    +0.000 C 
ATOM     15  C   UNL     1       2.843   2.679  21.143  0.00  0.00    +0.000 C 
ATOM     16  C   UNL     1       1.371   3.057  21.255  0.00  0.00    +0.000 C 
ATOM     17  C   UNL     1       0.978   4.174  20.291  0.00  0.00    +0.000 C 
ATOM     18  C   UNL     1       1.448   3.921  18.857  0.00  0.00    +0.000 C 
ENDBRANCH  12  13
ENDBRANCH  11  12
ENDBRANCH   6  11
TORSDOF 3
ENDMDL
MODEL 9
REMARK VINA RESULT:      -7.2      1.443      5.435
REMARK  Name = 
REMARK  3 active torsions:
REMARK  status: ('A' for Active; 'I' for Inactive)
REMARK    1  A    between atoms: C_6  and  C_7
REMARK    2  A    between atoms: C_7  and  C_8
REMARK    3  A    between atoms: C_8  and  C_9
REMARK                            x       y       z     vdW  Elec       q    Type
REMARK                         _______ _______ _______ _____ _____    ______ ____
ROOT
ATOM      1  C   UNL     1       0.958   3.331  20.333  0.00  0.00    +0.000 A 
ATOM      2  C   UNL     1       1.989   2.713  21.031  0.00  0.00    +0.000 A 
ATOM      3  N   UNL     1       3.232   2.454  20.549  0.00  0.00    +0.000 NA
ATOM      4  C   UNL     1       3.379   2.885  19.284  0.00  0.00    +0.000 A 
ATOM      5  N   UNL     1       4.506   2.805  18.518  0.00  0.00    +0.000 N 
ATOM      6  C   UNL     1       4.248   3.423  17.316  0.00  0.00    +0.000 A 
ATOM      7  N   UNL     1       2.995   3.839  17.257  0.00  0.00    +0.000 NA
ATOM      8  C   UNL     1       2.446   3.521  18.477  0.00  0.00    +0.000 A 
ATOM      9  C   UNL     1       1.175   3.749  19.015  0.00  0.00    +0.000 A 
ATOM     10  H   UNL     1       5.380   2.408  18.823  0.00  0.00    +0.000 HD
ENDROOT
BRANCH   6  11
ATOM     11  C   UNL     1       5.309   3.641  16.287  0.00  0.00    +0.000 C 
BRANCH  11  12
ATOM     12  C   UNL     1       6.365   4.674  16.690  0.00  0.00    +0.000 C 
BRANCH  12  13
ATOM     13  C   UNL     1       5.900   5.728  17.724  0.00  0.00    +0.000 C 
ATOM     14  C   UNL     1       6.569   5.572  19.100  0.00  0.00    +0.000 C 
ATOM     15  C   UNL     1       8.048   5.947  19.074  0.00  0.00    +0.000 C 
ATOM     16  C   UNL     1       8.244   7.379  18.588  0.00  0.00    +0.000 C 
ATOM     17  C   UNL     1       7.562   7.640  17.247  0.00  0.00    +0.000 C 
ATOM     18  C   UNL     1       6.109   7.164  17.210  0.00  0.00    +0.000 C 
ENDBRANCH  12  13
ENDBRANCH  11  12
ENDBRANCH   6  11
TORSDOF 3
ENDMDL
