MODEL 1
REMARK VINA RESULT:      -7.7      0.000      0.000
REMARK  Name = 
REMARK  4 active torsions:
REMARK  status: ('A' for Active; 'I' for Inactive)
REMARK    1  A    between atoms: C_1  and  C_2
REMARK    2  A    between atoms: N_8  and  C_9
REMARK    3  A    between atoms: N_12  and  C_13
REMARK    4  A    between atoms: C_13  and  C_14
REMARK                            x       y       z     vdW  Elec       q    Type
REMARK                         _______ _______ _______ _____ _____    ______ ____
ROOT
ATOM      1  C   UNL     1       0.941   9.464  23.005  0.00  0.00    +0.000 C 
ATOM      2  C   UNL     1       1.190   9.042  21.568  0.00  0.00    +0.000 A 
ATOM      3  N   UNL     1       1.464   7.794  21.347  0.00  0.00    +0.000 NA
ATOM      4  C   UNL     1       1.721   7.420  20.054  0.00  0.00    +0.000 A 
ATOM      5  C   UNL     1       1.692   8.259  19.003  0.00  0.00    +0.000 A 
ATOM      6  C   UNL     1       1.339   9.672  19.268  0.00  0.00    +0.000 A 
ATOM      7  O   UNL     1       1.296  10.478  18.338  0.00  0.00    +0.000 OA
ATOM      8  N   UNL     1       1.101  10.002  20.587  0.00  0.00    +0.000 N 
ATOM      9  C   UNL     1       0.777  11.390  20.895  0.00  0.00    +0.000 C 
ATOM     10  C   UNL     1       2.070   7.840  17.615  0.00  0.00    +0.000 C 
ATOM     11  C   UNL     1       3.563   7.466  17.510  0.00  0.00    +0.000 C 
ATOM     12  N   UNL     1       3.850   6.067  17.898  0.00  0.00    +0.000 NA
ATOM     13  C   UNL     1       3.583   5.850  19.359  0.00  0.00    +0.000 C 
ATOM     14  C   UNL     1       2.135   5.982  19.853  0.00  0.00    +0.000 C 
ENDROOT
BRANCH  12  15
ATOM     15  C   UNL     1       5.278   5.719  17.721  0.00  0.00    +0.000 C 
BRANCH  15  16
ATOM     16  C   UNL     1       5.803   5.263  16.401  0.00  0.00    +0.000 A 
ATOM     17  C   UNL     1       5.274   4.232  15.647  0.00  0.00    +0.000 A 
ATOM     18  C   UNL     1       5.913   4.206  14.390  0.00  0.00    +0.000 A 
ATOM     19  C   UNL     1       5.713   3.446  13.224  0.00  0.00    +0.000 A 
ATOM     20  C   UNL     1       6.588   3.601  12.148  0.00  0.00    +0.000 A 
ATOM     21  C   UNL     1       7.660   4.485  12.241  0.00  0.00    +0.000 A 
ATOM     22  C   UNL     1       7.848   5.291  13.377  0.00  0.00    +0.000 A 
ATOM     23  C   UNL     1       6.933   5.153  14.435  0.00  0.00    +0.000 A 
ATOM     24  N   UNL     1       6.793   5.844  15.632  0.00  0.00    +0.000 N 
ATOM     25  H   UNL     1       7.324   6.663  15.891  0.00  0.00    +0.000 HD
ENDBRANCH  15  16
ENDBRANCH  12  15
TORSDOF 2
ENDMDL
MODEL 2
REMARK VINA RESULT:      -7.5      3.768      5.689
REMARK  Name = 
REMARK  4 active torsions:
REMARK  status: ('A' for Active; 'I' for Inactive)
REMARK    1  A    between atoms: C_1  and  C_2
REMARK    2  A    between atoms: N_8  and  C_9
REMARK    3  A    between atoms: N_12  and  C_13
REMARK    4  A    between atoms: C_13  and  C_14
REMARK                            x       y       z     vdW  Elec       q    Type
REMARK                         _______ _______ _______ _____ _____    ______ ____
ROOT
ATOM      1  C   UNL     1      -0.161  15.134  22.651  0.00  0.00    +0.000 C 
ATOM      2  C   UNL     1      -0.356  13.876  21.823  0.00  0.00    +0.000 A 
ATOM      3  N   UNL     1      -0.388  12.743  22.451  0.00  0.00    +0.000 NA
ATOM      4  C   UNL     1      -0.530  11.606  21.701  0.00  0.00    +0.000 A 
ATOM      5  C   UNL     1      -0.653  11.593  20.361  0.00  0.00    +0.000 A 
ATOM      6  C   UNL     1      -0.654  12.899  19.664  0.00  0.00    +0.000 A 
ATOM      7  O   UNL     1      -0.767  12.939  18.438  0.00  0.00    +0.000 OA
ATOM      8  N   UNL     1      -0.495  14.013  20.462  0.00  0.00    +0.000 N 
ATOM      9  C   UNL     1      -0.462  15.318  19.811  0.00  0.00    +0.000 C 
ATOM     10  C   UNL     1      -0.712  10.327  19.560  0.00  0.00    +0.000 C 
ATOM     11  C   UNL     1       0.610   9.536  19.631  0.00  0.00    +0.000 C 
ATOM     12  N   UNL     1       0.709   8.657  20.816  0.00  0.00    +0.000 NA
ATOM     13  C   UNL     1       0.770   9.465  22.080  0.00  0.00    +0.000 C 
ATOM     14  C   UNL     1      -0.461  10.302  22.459  0.00  0.00    +0.000 C 
ENDROOT
BRANCH  12  15
ATOM     15  C   UNL     1       1.957   7.860  20.819  0.00  0.00    +0.000 C 
BRANCH  15  16
ATOM     16  C   UNL     1       2.010   6.506  20.196  0.00  0.00    +0.000 A 
ATOM     17  C   UNL     1       1.487   5.352  20.750  0.00  0.00    +0.000 A 
ATOM     18  C   UNL     1       1.562   4.310  19.804  0.00  0.00    +0.000 A 
ATOM     19  C   UNL     1       1.105   2.981  19.797  0.00  0.00    +0.000 A 
ATOM     20  C   UNL     1       1.419   2.156  18.717  0.00  0.00    +0.000 A 
ATOM     21  C   UNL     1       2.198   2.641  17.669  0.00  0.00    +0.000 A 
ATOM     22  C   UNL     1       2.622   3.980  17.633  0.00  0.00    +0.000 A 
ATOM     23  C   UNL     1       2.261   4.810  18.708  0.00  0.00    +0.000 A 
ATOM     24  N   UNL     1       2.447   6.169  18.929  0.00  0.00    +0.000 N 
ATOM     25  H   UNL     1       2.826   6.818  18.254  0.00  0.00    +0.000 HD
ENDBRANCH  15  16
ENDBRANCH  12  15
TORSDOF 2
ENDMDL
MODEL 3
REMARK VINA RESULT:      -7.4      4.609      6.936
REMARK  Name = 
REMARK  4 active torsions:
REMARK  status: ('A' for Active; 'I' for Inactive)
REMARK    1  A    between atoms: C_1  and  C_2
REMARK    2  A    between atoms: N_8  and  C_9
REMARK    3  A    between atoms: N_12  and  C_13
REMARK    4  A    between atoms: C_13  and  C_14
REMARK                            x       y       z     vdW  Elec       q    Type
REMARK                         _______ _______ _______ _____ _____    ______ ____
ROOT
ATOM      1  C   UNL     1       2.931   1.546  18.354  0.00  0.00    +0.000 C 
ATOM      2  C   UNL     1       3.354   2.952  17.963  0.00  0.00    +0.000 A 
ATOM      3  N   UNL     1       4.523   3.099  17.423  0.00  0.00    +0.000 NA
ATOM      4  C   UNL     1       4.917   4.371  17.101  0.00  0.00    +0.000 A 
ATOM      5  C   UNL     1       4.164   5.469  17.294  0.00  0.00    +0.000 A 
ATOM      6  C   UNL     1       2.816   5.278  17.876  0.00  0.00    +0.000 A 
ATOM      7  O   UNL     1       2.088   6.253  18.070  0.00  0.00    +0.000 OA
ATOM      8  N   UNL     1       2.471   3.980  18.195  0.00  0.00    +0.000 N 
ATOM      9  C   UNL     1       1.162   3.752  18.797  0.00  0.00    +0.000 C 
ATOM     10  C   UNL     1       4.660   6.856  17.019  0.00  0.00    +0.000 C 
ATOM     11  C   UNL     1       5.814   7.256  17.961  0.00  0.00    +0.000 C 
ATOM     12  N   UNL     1       7.142   6.801  17.494  0.00  0.00    +0.000 NA
ATOM     13  C   UNL     1       7.235   5.303  17.517  0.00  0.00    +0.000 C 
ATOM     14  C   UNL     1       6.322   4.512  16.568  0.00  0.00    +0.000 C 
ENDROOT
BRANCH  12  15
ATOM     15  C   UNL     1       8.234   7.259  18.383  0.00  0.00    +0.000 C 
BRANCH  15  16
ATOM     16  C   UNL     1       8.596   8.703  18.480  0.00  0.00    +0.000 A 
ATOM     17  C   UNL     1       8.284   9.668  17.539  0.00  0.00    +0.000 A 
ATOM     18  C   UNL     1       8.625  10.937  18.050  0.00  0.00    +0.000 A 
ATOM     19  C   UNL     1       8.446  12.247  17.572  0.00  0.00    +0.000 A 
ATOM     20  C   UNL     1       8.984  13.316  18.289  0.00  0.00    +0.000 A 
ATOM     21  C   UNL     1       9.710  13.081  19.455  0.00  0.00    +0.000 A 
ATOM     22  C   UNL     1       9.857  11.785  19.976  0.00  0.00    +0.000 A 
ATOM     23  C   UNL     1       9.272  10.723  19.265  0.00  0.00    +0.000 A 
ATOM     24  N   UNL     1       9.166   9.367  19.549  0.00  0.00    +0.000 N 
ATOM     25  H   UNL     1       9.446   8.936  20.418  0.00  0.00    +0.000 HD
ENDBRANCH  15  16
ENDBRANCH  12  15
TORSDOF 2
ENDMDL
MODEL 4
REMARK VINA RESULT:      -7.4      4.721      7.099
REMARK  Name = 
REMARK  4 active torsions:
REMARK  status: ('A' for Active; 'I' for Inactive)
REMARK    1  A    between atoms: C_1  and  C_2
REMARK    2  A    between atoms: N_8  and  C_9
REMARK    3  A    between atoms: N_12  and  C_13
REMARK    4  A    between atoms: C_13  and  C_14
REMARK                            x       y       z     vdW  Elec       q    Type
REMARK                         _______ _______ _______ _____ _____    ______ ____
ROOT
ATOM      1  C   UNL     1       3.368   1.608  18.189  0.00  0.00    +0.000 C 
ATOM      2  C   UNL     1       3.658   3.053  17.822  0.00  0.00    +0.000 A 
ATOM      3  N   UNL     1       4.780   3.308  17.224  0.00  0.00    +0.000 NA
ATOM      4  C   UNL     1       5.055   4.615  16.922  0.00  0.00    +0.000 A 
ATOM      5  C   UNL     1       4.232   5.644  17.192  0.00  0.00    +0.000 A 
ATOM      6  C   UNL     1       2.938   5.331  17.840  0.00  0.00    +0.000 A 
ATOM      7  O   UNL     1       2.149   6.239  18.105  0.00  0.00    +0.000 OA
ATOM      8  N   UNL     1       2.713   4.001  18.135  0.00  0.00    +0.000 N 
ATOM      9  C   UNL     1       1.462   3.654  18.799  0.00  0.00    +0.000 C 
ATOM     10  C   UNL     1       4.603   7.074  16.936  0.00  0.00    +0.000 C 
ATOM     11  C   UNL     1       5.774   7.536  17.827  0.00  0.00    +0.000 C 
ATOM     12  N   UNL     1       7.105   7.202  17.273  0.00  0.00    +0.000 NA
ATOM     13  C   UNL     1       7.315   5.715  17.242  0.00  0.00    +0.000 C 
ATOM     14  C   UNL     1       6.413   4.881  16.319  0.00  0.00    +0.000 C 
ENDROOT
BRANCH  12  15
ATOM     15  C   UNL     1       8.207   7.719  18.115  0.00  0.00    +0.000 C 
BRANCH  15  16
ATOM     16  C   UNL     1       8.442   9.185  18.265  0.00  0.00    +0.000 A 
ATOM     17  C   UNL     1       9.241   9.769  19.230  0.00  0.00    +0.000 A 
ATOM     18  C   UNL     1       9.368  11.145  18.952  0.00  0.00    +0.000 A 
ATOM     19  C   UNL     1      10.120  12.180  19.536  0.00  0.00    +0.000 A 
ATOM     20  C   UNL     1       9.959  13.486  19.074  0.00  0.00    +0.000 A 
ATOM     21  C   UNL     1       9.044  13.762  18.060  0.00  0.00    +0.000 A 
ATOM     22  C   UNL     1       8.320  12.736  17.430  0.00  0.00    +0.000 A 
ATOM     23  C   UNL     1       8.526  11.419  17.878  0.00  0.00    +0.000 A 
ATOM     24  N   UNL     1       8.041  10.201  17.420  0.00  0.00    +0.000 N 
ATOM     25  H   UNL     1       7.493  10.076  16.580  0.00  0.00    +0.000 HD
ENDBRANCH  15  16
ENDBRANCH  12  15
TORSDOF 2
ENDMDL
MODEL 5
REMARK VINA RESULT:      -7.3      3.843      5.722
REMARK  Name = 
REMARK  4 active torsions:
REMARK  status: ('A' for Active; 'I' for Inactive)
REMARK    1  A    between atoms: C_1  and  C_2
REMARK    2  A    between atoms: N_8  and  C_9
REMARK    3  A    between atoms: N_12  and  C_13
REMARK    4  A    between atoms: C_13  and  C_14
REMARK                            x       y       z     vdW  Elec       q    Type
REMARK                         _______ _______ _______ _____ _____    ______ ____
ROOT
ATOM      1  C   UNL     1       0.141  15.248  22.399  0.00  0.00    +0.000 C 
ATOM      2  C   UNL     1      -0.148  13.983  21.609  0.00  0.00    +0.000 A 
ATOM      3  N   UNL     1      -0.162  12.860  22.256  0.00  0.00    +0.000 NA
ATOM      4  C   UNL     1      -0.391  11.717  21.537  0.00  0.00    +0.000 A 
ATOM      5  C   UNL     1      -0.616  11.688  20.211  0.00  0.00    +0.000 A 
ATOM      6  C   UNL     1      -0.635  12.983  19.495  0.00  0.00    +0.000 A 
ATOM      7  O   UNL     1      -0.840  13.009  18.280  0.00  0.00    +0.000 OA
ATOM      8  N   UNL     1      -0.387  14.104  20.260  0.00  0.00    +0.000 N 
ATOM      9  C   UNL     1      -0.369  15.398  19.587  0.00  0.00    +0.000 C 
ATOM     10  C   UNL     1      -0.768  10.413  19.438  0.00  0.00    +0.000 C 
ATOM     11  C   UNL     1       0.534   9.587  19.422  0.00  0.00    +0.000 C 
ATOM     12  N   UNL     1       0.700   8.723  20.611  0.00  0.00    +0.000 NA
ATOM     13  C   UNL     1       0.879   9.547  21.853  0.00  0.00    +0.000 C 
ATOM     14  C   UNL     1      -0.298  10.422  22.309  0.00  0.00    +0.000 C 
ENDROOT
BRANCH  12  15
ATOM     15  C   UNL     1       1.924   7.893  20.533  0.00  0.00    +0.000 C 
BRANCH  15  16
ATOM     16  C   UNL     1       1.885   6.511  19.970  0.00  0.00    +0.000 A 
ATOM     17  C   UNL     1       2.393   6.137  18.740  0.00  0.00    +0.000 A 
ATOM     18  C   UNL     1       2.339   4.732  18.627  0.00  0.00    +0.000 A 
ATOM     19  C   UNL     1       2.796   3.827  17.653  0.00  0.00    +0.000 A 
ATOM     20  C   UNL     1       2.507   2.469  17.794  0.00  0.00    +0.000 A 
ATOM     21  C   UNL     1       1.755   2.023  18.878  0.00  0.00    +0.000 A 
ATOM     22  C   UNL     1       1.333   2.904  19.887  0.00  0.00    +0.000 A 
ATOM     23  C   UNL     1       1.668   4.262  19.753  0.00  0.00    +0.000 A 
ATOM     24  N   UNL     1       1.479   5.349  20.597  0.00  0.00    +0.000 N 
ATOM     25  H   UNL     1       1.116   5.292  21.539  0.00  0.00    +0.000 HD
ENDBRANCH  15  16
ENDBRANCH  12  15
TORSDOF 2
ENDMDL
MODEL 6
REMARK VINA RESULT:      -7.3      3.770      4.844
REMARK  Name = 
REMARK  4 active torsions:
REMARK  status: ('A' for Active; 'I' for Inactive)
REMARK    1  A    between atoms: C_1  and  C_2
REMARK    2  A    between atoms: N_8  and  C_9
REMARK    3  A    between atoms: N_12  and  C_13
REMARK    4  A    between atoms: C_13  and  C_14
REMARK                            x       y       z     vdW  Elec       q    Type
REMARK                         _______ _______ _______ _____ _____    ______ ____
ROOT
ATOM      1  C   UNL     1      -0.313  14.089  22.497  0.00  0.00    +0.000 C 
ATOM      2  C   UNL     1      -0.388  13.075  21.369  0.00  0.00    +0.000 A 
ATOM      3  N   UNL     1      -0.272  11.822  21.679  0.00  0.00    +0.000 NA
ATOM      4  C   UNL     1      -0.306  10.910  20.658  0.00  0.00    +0.000 A 
ATOM      5  C   UNL     1      -0.468  11.230  19.362  0.00  0.00    +0.000 A 
ATOM      6  C   UNL     1      -0.638  12.663  19.029  0.00  0.00    +0.000 A 
ATOM      7  O   UNL     1      -0.792  13.006  17.856  0.00  0.00    +0.000 OA
ATOM      8  N   UNL     1      -0.583  13.543  20.091  0.00  0.00    +0.000 N 
ATOM      9  C   UNL     1      -0.718  14.966  19.803  0.00  0.00    +0.000 C 
ATOM     10  C   UNL     1      -0.406  10.218  18.258  0.00  0.00    +0.000 C 
ATOM     11  C   UNL     1       0.998   9.597  18.120  0.00  0.00    +0.000 C 
ATOM     12  N   UNL     1       1.233   8.458  19.035  0.00  0.00    +0.000 NA
ATOM     13  C   UNL     1       1.240   8.912  20.466  0.00  0.00    +0.000 C 
ATOM     14  C   UNL     1      -0.067   9.471  21.050  0.00  0.00    +0.000 C 
ENDROOT
BRANCH  12  15
ATOM     15  C   UNL     1       2.563   7.841  18.831  0.00  0.00    +0.000 C 
BRANCH  15  16
ATOM     16  C   UNL     1       2.738   6.359  18.856  0.00  0.00    +0.000 A 
ATOM     17  C   UNL     1       2.181   5.475  17.950  0.00  0.00    +0.000 A 
ATOM     18  C   UNL     1       2.708   4.188  18.178  0.00  0.00    +0.000 A 
ATOM     19  C   UNL     1       2.567   2.958  17.511  0.00  0.00    +0.000 A 
ATOM     20  C   UNL     1       3.166   1.817  18.048  0.00  0.00    +0.000 A 
ATOM     21  C   UNL     1       3.874   1.896  19.244  0.00  0.00    +0.000 A 
ATOM     22  C   UNL     1       4.068   3.124  19.899  0.00  0.00    +0.000 A 
ATOM     23  C   UNL     1       3.496   4.271  19.323  0.00  0.00    +0.000 A 
ATOM     24  N   UNL     1       3.572   5.615  19.668  0.00  0.00    +0.000 N 
ATOM     25  H   UNL     1       4.165   5.992  20.393  0.00  0.00    +0.000 HD
ENDBRANCH  15  16
ENDBRANCH  12  15
TORSDOF 2
ENDMDL
MODEL 7
REMARK VINA RESULT:      -7.3      2.191      4.007
REMARK  Name = 
REMARK  4 active torsions:
REMARK  status: ('A' for Active; 'I' for Inactive)
REMARK    1  A    between atoms: C_1  and  C_2
REMARK    2  A    between atoms: N_8  and  C_9
REMARK    3  A    between atoms: N_12  and  C_13
REMARK    4  A    between atoms: C_13  and  C_14
REMARK                            x       y       z     vdW  Elec       q    Type
REMARK                         _______ _______ _______ _____ _____    ______ ____
ROOT
ATOM      1  C   UNL     1      -2.643  13.117  20.494  0.00  0.00    +0.000 C 
ATOM      2  C   UNL     1      -1.523  12.166  20.878  0.00  0.00    +0.000 A 
ATOM      3  N   UNL     1      -0.608  11.927  19.991  0.00  0.00    +0.000 NA
ATOM      4  C   UNL     1       0.384  11.044  20.326  0.00  0.00    +0.000 A 
ATOM      5  C   UNL     1       0.477  10.425  21.517  0.00  0.00    +0.000 A 
ATOM      6  C   UNL     1      -0.554  10.740  22.531  0.00  0.00    +0.000 A 
ATOM      7  O   UNL     1      -0.511  10.200  23.638  0.00  0.00    +0.000 OA
ATOM      8  N   UNL     1      -1.539  11.625  22.141  0.00  0.00    +0.000 N 
ATOM      9  C   UNL     1      -2.590  11.940  23.102  0.00  0.00    +0.000 C 
ATOM     10  C   UNL     1       1.520   9.392  21.819  0.00  0.00    +0.000 C 
ATOM     11  C   UNL     1       1.341   8.121  20.965  0.00  0.00    +0.000 C 
ATOM     12  N   UNL     1       1.971   8.214  19.629  0.00  0.00    +0.000 NA
ATOM     13  C   UNL     1       1.286   9.248  18.784  0.00  0.00    +0.000 C 
ATOM     14  C   UNL     1       1.371  10.715  19.232  0.00  0.00    +0.000 C 
ENDROOT
BRANCH  12  15
ATOM     15  C   UNL     1       1.841   6.955  18.861  0.00  0.00    +0.000 C 
BRANCH  15  16
ATOM     16  C   UNL     1       3.014   6.353  18.162  0.00  0.00    +0.000 A 
ATOM     17  C   UNL     1       3.148   5.015  17.839  0.00  0.00    +0.000 A 
ATOM     18  C   UNL     1       4.292   4.848  17.031  0.00  0.00    +0.000 A 
ATOM     19  C   UNL     1       4.841   3.744  16.356  0.00  0.00    +0.000 A 
ATOM     20  C   UNL     1       6.060   3.886  15.692  0.00  0.00    +0.000 A 
ATOM     21  C   UNL     1       6.735   5.104  15.722  0.00  0.00    +0.000 A 
ATOM     22  C   UNL     1       6.179   6.233  16.348  0.00  0.00    +0.000 A 
ATOM     23  C   UNL     1       4.930   6.085  16.975  0.00  0.00    +0.000 A 
ATOM     24  N   UNL     1       4.092   7.004  17.594  0.00  0.00    +0.000 N 
ATOM     25  H   UNL     1       4.241   8.003  17.608  0.00  0.00    +0.000 HD
ENDBRANCH  15  16
ENDBRANCH  12  15
TORSDOF 2
ENDMDL
MODEL 8
REMARK VINA RESULT:      -7.2      4.280      6.483
REMARK  Name = 
REMARK  4 active torsions:
REMARK  status: ('A' for Active; 'I' for Inactive)
REMARK    1  A    between atoms: C_1  and  C_2
REMARK    2  A    between atoms: N_8  and  C_9
REMARK    3  A    between atoms: N_12  and  C_13
REMARK    4  A    between atoms: C_13  and  C_14
REMARK                            x       y       z     vdW  Elec       q    Type
REMARK                         _______ _______ _______ _____ _____    ______ ____
ROOT
ATOM      1  C   UNL     1       2.136   1.815  18.920  0.00  0.00    +0.000 C 
ATOM      2  C   UNL     1       2.575   3.224  18.563  0.00  0.00    +0.000 A 
ATOM      3  N   UNL     1       3.440   3.360  17.608  0.00  0.00    +0.000 NA
ATOM      4  C   UNL     1       3.861   4.629  17.309  0.00  0.00    +0.000 A 
ATOM      5  C   UNL     1       3.424   5.738  17.931  0.00  0.00    +0.000 A 
ATOM      6  C   UNL     1       2.406   5.568  18.993  0.00  0.00    +0.000 A 
ATOM      7  O   UNL     1       1.973   6.554  19.590  0.00  0.00    +0.000 OA
ATOM      8  N   UNL     1       2.025   4.270  19.266  0.00  0.00    +0.000 N 
ATOM      9  C   UNL     1       1.045   4.057  20.325  0.00  0.00    +0.000 C 
ATOM     10  C   UNL     1       3.973   7.103  17.646  0.00  0.00    +0.000 C 
ATOM     11  C   UNL     1       5.453   7.230  18.063  0.00  0.00    +0.000 C 
ATOM     12  N   UNL     1       6.400   6.749  17.034  0.00  0.00    +0.000 NA
ATOM     13  C   UNL     1       6.266   5.267  16.832  0.00  0.00    +0.000 C 
ATOM     14  C   UNL     1       4.943   4.736  16.261  0.00  0.00    +0.000 C 
ENDROOT
BRANCH  12  15
ATOM     15  C   UNL     1       7.811   6.947  17.435  0.00  0.00    +0.000 C 
BRANCH  15  16
ATOM     16  C   UNL     1       8.294   8.269  17.932  0.00  0.00    +0.000 A 
ATOM     17  C   UNL     1       8.170   9.468  17.254  0.00  0.00    +0.000 A 
ATOM     18  C   UNL     1       8.573  10.520  18.102  0.00  0.00    +0.000 A 
ATOM     19  C   UNL     1       8.566  11.919  17.969  0.00  0.00    +0.000 A 
ATOM     20  C   UNL     1       9.124  12.705  18.979  0.00  0.00    +0.000 A 
ATOM     21  C   UNL     1       9.703  12.102  20.094  0.00  0.00    +0.000 A 
ATOM     22  C   UNL     1       9.675  10.709  20.269  0.00  0.00    +0.000 A 
ATOM     23  C   UNL     1       9.070   9.934  19.264  0.00  0.00    +0.000 A 
ATOM     24  N   UNL     1       8.811   8.573  19.176  0.00  0.00    +0.000 N 
ATOM     25  H   UNL     1       8.960   7.908  19.922  0.00  0.00    +0.000 HD
ENDBRANCH  15  16
ENDBRANCH  12  15
TORSDOF 2
ENDMDL
MODEL 9
REMARK VINA RESULT:      -7.0      4.095      8.419
REMARK  Name = 
REMARK  4 active torsions:
REMARK  status: ('A' for Active; 'I' for Inactive)
REMARK    1  A    between atoms: C_1  and  C_2
REMARK    2  A    between atoms: N_8  and  C_9
REMARK    3  A    between atoms: N_12  and  C_13
REMARK    4  A    between atoms: C_13  and  C_14
REMARK                            x       y       z     vdW  Elec       q    Type
REMARK                         _______ _______ _______ _____ _____    ______ ____
ROOT
ATOM      1  C   UNL     1       1.087   2.875  20.846  0.00  0.00    +0.000 C 
ATOM      2  C   UNL     1       1.678   4.087  20.148  0.00  0.00    +0.000 A 
ATOM      3  N   UNL     1       1.604   5.228  20.759  0.00  0.00    +0.000 NA
ATOM      4  C   UNL     1       2.108   6.327  20.114  0.00  0.00    +0.000 A 
ATOM      5  C   UNL     1       2.686   6.293  18.900  0.00  0.00    +0.000 A 
ATOM      6  C   UNL     1       2.798   4.976  18.234  0.00  0.00    +0.000 A 
ATOM      7  O   UNL     1       3.323   4.894  17.123  0.00  0.00    +0.000 OA
ATOM      8  N   UNL     1       2.264   3.903  18.918  0.00  0.00    +0.000 N 
ATOM      9  C   UNL     1       2.329   2.591  18.284  0.00  0.00    +0.000 C 
ATOM     10  C   UNL     1       3.143   7.526  18.181  0.00  0.00    +0.000 C 
ATOM     11  C   UNL     1       1.963   8.442  17.797  0.00  0.00    +0.000 C 
ATOM     12  N   UNL     1       1.548   9.357  18.883  0.00  0.00    +0.000 NA
ATOM     13  C   UNL     1       0.975   8.591  20.040  0.00  0.00    +0.000 C 
ATOM     14  C   UNL     1       1.911   7.650  20.814  0.00  0.00    +0.000 C 
ENDROOT
BRANCH  12  15
ATOM     15  C   UNL     1       0.461  10.270  18.462  0.00  0.00    +0.000 C 
BRANCH  15  16
ATOM     16  C   UNL     1       0.655  11.749  18.451  0.00  0.00    +0.000 A 
ATOM     17  C   UNL     1      -0.330  12.684  18.712  0.00  0.00    +0.000 A 
ATOM     18  C   UNL     1       0.258  13.963  18.789  0.00  0.00    +0.000 A 
ATOM     19  C   UNL     1      -0.245  15.235  19.115  0.00  0.00    +0.000 A 
ATOM     20  C   UNL     1       0.592  16.347  19.016  0.00  0.00    +0.000 A 
ATOM     21  C   UNL     1       1.905  16.196  18.576  0.00  0.00    +0.000 A 
ATOM     22  C   UNL     1       2.441  14.929  18.294  0.00  0.00    +0.000 A 
ATOM     23  C   UNL     1       1.597  13.814  18.440  0.00  0.00    +0.000 A 
ATOM     24  N   UNL     1       1.838  12.451  18.324  0.00  0.00    +0.000 N 
ATOM     25  H   UNL     1       2.749  12.035  18.188  0.00  0.00    +0.000 HD
ENDBRANCH  15  16
ENDBRANCH  12  15
TORSDOF 2
ENDMDL
