MODEL 1
REMARK VINA RESULT:      -8.3      0.000      0.000
REMARK  Name = 
REMARK  5 active torsions:
REMARK  status: ('A' for Active; 'I' for Inactive)
REMARK    1  A    between atoms: C_1  and  C_2
REMARK    2  A    between atoms: C_8  and  C_9
REMARK    3  A    between atoms: C_11  and  C_12
REMARK    4  A    between atoms: C_16  and  C_17
REMARK    5  A    between atoms: C_17  and  O_19
REMARK                            x       y       z     vdW  Elec       q    Type
REMARK                         _______ _______ _______ _____ _____    ______ ____
ROOT
ATOM      1  C   UNL     1       0.933   4.620  20.271  0.00  0.00    +0.000 C 
ATOM      2  C   UNL     1       1.944   4.387  19.175  0.00  0.00    +0.000 A 
ATOM      3  C   UNL     1       1.957   3.202  18.419  0.00  0.00    +0.000 A 
ATOM      4 CL   UNL     1       0.817   1.924  18.666  0.00  0.00    +0.000 Cl
ATOM      5  C   UNL     1       2.900   3.008  17.408  0.00  0.00    +0.000 A 
ATOM      6  C   UNL     1       3.842   3.995  17.117  0.00  0.00    +0.000 A 
ATOM      7  C   UNL     1       3.842   5.186  17.846  0.00  0.00    +0.000 A 
ATOM      8  C   UNL     1       2.912   5.390  18.887  0.00  0.00    +0.000 A 
ATOM      9  C   UNL     1       2.937   6.665  19.700  0.00  0.00    +0.000 C 
ATOM     10  O   UNL     1       4.691   6.217  17.545  0.00  0.00    +0.000 OA
ATOM     11  C   UNL     1       5.817   5.982  16.656  0.00  0.00    +0.000 C 
ATOM     12  C   UNL     1       5.685   4.751  15.783  0.00  0.00    +0.000 C 
ATOM     13  C   UNL     1       4.781   3.793  16.024  0.00  0.00    +0.000 C 
ENDROOT
BRANCH  11  14
ATOM     14  C   UNL     1       7.142   6.054  17.455  0.00  0.00    +0.000 C 
ATOM     15  F   UNL     1       6.919   6.288  18.773  0.00  0.00    +0.000 F 
ATOM     16  F   UNL     1       7.859   4.908  17.388  0.00  0.00    +0.000 F 
ATOM     17  F   UNL     1       7.927   7.066  17.016  0.00  0.00    +0.000 F 
ENDBRANCH  11  14
BRANCH  12  18
ATOM     18  C   UNL     1       6.661   4.662  14.678  0.00  0.00    +0.000 C 
ATOM     19  O   UNL     1       7.419   5.574  14.409  0.00  0.00    +0.000 OA
BRANCH  18  20
ATOM     20  O   UNL     1       6.598   3.533  13.946  0.00  0.00    +0.000 OA
ATOM     21  H   UNL     1       6.628   2.698  14.445  0.00  0.00    +0.000 HD
ENDBRANCH  18  20
ENDBRANCH  12  18
TORSDOF 3
ENDMDL
MODEL 2
REMARK VINA RESULT:      -7.5      0.738      1.304
REMARK  Name = 
REMARK  5 active torsions:
REMARK  status: ('A' for Active; 'I' for Inactive)
REMARK    1  A    between atoms: C_1  and  C_2
REMARK    2  A    between atoms: C_8  and  C_9
REMARK    3  A    between atoms: C_11  and  C_12
REMARK    4  A    between atoms: C_16  and  C_17
REMARK    5  A    between atoms: C_17  and  O_19
REMARK                            x       y       z     vdW  Elec       q    Type
REMARK                         _______ _______ _______ _____ _____    ______ ____
ROOT
ATOM      1  C   UNL     1       0.710   3.999  20.497  0.00  0.00    +0.000 C 
ATOM      2  C   UNL     1       1.753   3.935  19.407  0.00  0.00    +0.000 A 
ATOM      3  C   UNL     1       1.718   2.949  18.406  0.00  0.00    +0.000 A 
ATOM      4 CL   UNL     1       0.480   1.744  18.324  0.00  0.00    +0.000 Cl
ATOM      5  C   UNL     1       2.692   2.910  17.407  0.00  0.00    +0.000 A 
ATOM      6  C   UNL     1       3.714   3.858  17.373  0.00  0.00    +0.000 A 
ATOM      7  C   UNL     1       3.764   4.855  18.351  0.00  0.00    +0.000 A 
ATOM      8  C   UNL     1       2.803   4.896  19.382  0.00  0.00    +0.000 A 
ATOM      9  C   UNL     1       2.879   5.953  20.461  0.00  0.00    +0.000 C 
ATOM     10  O   UNL     1       4.697   5.855  18.315  0.00  0.00    +0.000 OA
ATOM     11  C   UNL     1       5.845   5.734  17.431  0.00  0.00    +0.000 C 
ATOM     12  C   UNL     1       5.668   4.742  16.300  0.00  0.00    +0.000 C 
ATOM     13  C   UNL     1       4.688   3.829  16.292  0.00  0.00    +0.000 C 
ENDROOT
BRANCH  11  14
ATOM     14  C   UNL     1       7.132   5.521  18.265  0.00  0.00    +0.000 C 
ATOM     15  F   UNL     1       8.058   6.480  18.008  0.00  0.00    +0.000 F 
ATOM     16  F   UNL     1       6.907   5.558  19.599  0.00  0.00    +0.000 F 
ATOM     17  F   UNL     1       7.720   4.337  17.971  0.00  0.00    +0.000 F 
ENDBRANCH  11  14
BRANCH  12  18
ATOM     18  C   UNL     1       6.687   4.822  15.234  0.00  0.00    +0.000 C 
ATOM     19  O   UNL     1       6.794   3.966  14.376  0.00  0.00    +0.000 OA
BRANCH  18  20
ATOM     20  O   UNL     1       7.532   5.866  15.324  0.00  0.00    +0.000 OA
ATOM     21  H   UNL     1       7.766   6.301  14.485  0.00  0.00    +0.000 HD
ENDBRANCH  18  20
ENDBRANCH  12  18
TORSDOF 3
ENDMDL
MODEL 3
REMARK VINA RESULT:      -7.4      4.141      5.468
REMARK  Name = 
REMARK  5 active torsions:
REMARK  status: ('A' for Active; 'I' for Inactive)
REMARK    1  A    between atoms: C_1  and  C_2
REMARK    2  A    between atoms: C_8  and  C_9
REMARK    3  A    between atoms: C_11  and  C_12
REMARK    4  A    between atoms: C_16  and  C_17
REMARK    5  A    between atoms: C_17  and  O_19
REMARK                            x       y       z     vdW  Elec       q    Type
REMARK                         _______ _______ _______ _____ _____    ______ ____
ROOT
ATOM      1  C   UNL     1       0.523  10.528  20.329  0.00  0.00    +0.000 C 
ATOM      2  C   UNL     1       1.293   9.391  19.701  0.00  0.00    +0.000 A 
ATOM      3  C   UNL     1       1.981   9.545  18.485  0.00  0.00    +0.000 A 
ATOM      4 CL   UNL     1       2.020  11.040  17.616  0.00  0.00    +0.000 Cl
ATOM      5  C   UNL     1       2.688   8.480  17.924  0.00  0.00    +0.000 A 
ATOM      6  C   UNL     1       2.738   7.243  18.566  0.00  0.00    +0.000 A 
ATOM      7  C   UNL     1       2.072   7.068  19.782  0.00  0.00    +0.000 A 
ATOM      8  C   UNL     1       1.332   8.126  20.352  0.00  0.00    +0.000 A 
ATOM      9  C   UNL     1       0.581   7.925  21.649  0.00  0.00    +0.000 C 
ATOM     10  O   UNL     1       2.158   5.901  20.491  0.00  0.00    +0.000 OA
ATOM     11  C   UNL     1       2.696   4.712  19.852  0.00  0.00    +0.000 C 
ATOM     12  C   UNL     1       3.536   4.983  18.621  0.00  0.00    +0.000 C 
ATOM     13  C   UNL     1       3.525   6.164  17.989  0.00  0.00    +0.000 C 
ENDROOT
BRANCH  11  14
ATOM     14  C   UNL     1       1.567   3.675  19.633  0.00  0.00    +0.000 C 
ATOM     15  F   UNL     1       0.513   3.902  20.458  0.00  0.00    +0.000 F 
ATOM     16  F   UNL     1       1.074   3.691  18.373  0.00  0.00    +0.000 F 
ATOM     17  F   UNL     1       1.994   2.418  19.901  0.00  0.00    +0.000 F 
ENDBRANCH  11  14
BRANCH  12  18
ATOM     18  C   UNL     1       4.328   3.833  18.139  0.00  0.00    +0.000 C 
ATOM     19  O   UNL     1       4.148   3.337  17.043  0.00  0.00    +0.000 OA
BRANCH  18  20
ATOM     20  O   UNL     1       5.205   3.327  19.027  0.00  0.00    +0.000 OA
ATOM     21  H   UNL     1       5.006   3.491  19.965  0.00  0.00    +0.000 HD
ENDBRANCH  18  20
ENDBRANCH  12  18
TORSDOF 3
ENDMDL
MODEL 4
REMARK VINA RESULT:      -7.4      3.325      4.260
REMARK  Name = 
REMARK  5 active torsions:
REMARK  status: ('A' for Active; 'I' for Inactive)
REMARK    1  A    between atoms: C_1  and  C_2
REMARK    2  A    between atoms: C_8  and  C_9
REMARK    3  A    between atoms: C_11  and  C_12
REMARK    4  A    between atoms: C_16  and  C_17
REMARK    5  A    between atoms: C_17  and  O_19
REMARK                            x       y       z     vdW  Elec       q    Type
REMARK                         _______ _______ _______ _____ _____    ______ ____
ROOT
ATOM      1  C   UNL     1       0.807   8.886  20.516  0.00  0.00    +0.000 C 
ATOM      2  C   UNL     1       1.754   8.199  19.562  0.00  0.00    +0.000 A 
ATOM      3  C   UNL     1       2.267   8.853  18.429  0.00  0.00    +0.000 A 
ATOM      4 CL   UNL     1       1.874  10.492  18.037  0.00  0.00    +0.000 Cl
ATOM      5  C   UNL     1       3.144   8.199  17.561  0.00  0.00    +0.000 A 
ATOM      6  C   UNL     1       3.541   6.886  17.810  0.00  0.00    +0.000 A 
ATOM      7  C   UNL     1       3.055   6.218  18.937  0.00  0.00    +0.000 A 
ATOM      8  C   UNL     1       2.149   6.854  19.811  0.00  0.00    +0.000 A 
ATOM      9  C   UNL     1       1.594   6.119  21.010  0.00  0.00    +0.000 C 
ATOM     10  O   UNL     1       3.477   4.960  19.270  0.00  0.00    +0.000 OA
ATOM     11  C   UNL     1       4.212   4.170  18.295  0.00  0.00    +0.000 C 
ATOM     12  C   UNL     1       4.843   4.974  17.178  0.00  0.00    +0.000 C 
ATOM     13  C   UNL     1       4.497   6.242  16.922  0.00  0.00    +0.000 C 
ENDROOT
BRANCH  11  14
ATOM     14  C   UNL     1       3.338   2.986  17.810  0.00  0.00    +0.000 C 
ATOM     15  F   UNL     1       2.670   3.293  16.669  0.00  0.00    +0.000 F 
ATOM     16  F   UNL     1       4.061   1.874  17.540  0.00  0.00    +0.000 F 
ATOM     17  F   UNL     1       2.395   2.662  18.726  0.00  0.00    +0.000 F 
ENDBRANCH  11  14
BRANCH  12  18
ATOM     18  C   UNL     1       5.829   4.239  16.359  0.00  0.00    +0.000 C 
ATOM     19  O   UNL     1       5.554   3.792  15.262  0.00  0.00    +0.000 OA
BRANCH  18  20
ATOM     20  O   UNL     1       7.024   4.036  16.945  0.00  0.00    +0.000 OA
ATOM     21  H   UNL     1       7.561   4.832  17.109  0.00  0.00    +0.000 HD
ENDBRANCH  18  20
ENDBRANCH  12  18
TORSDOF 3
ENDMDL
MODEL 5
REMARK VINA RESULT:      -7.4      4.464      5.531
REMARK  Name = 
REMARK  5 active torsions:
REMARK  status: ('A' for Active; 'I' for Inactive)
REMARK    1  A    between atoms: C_1  and  C_2
REMARK    2  A    between atoms: C_8  and  C_9
REMARK    3  A    between atoms: C_11  and  C_12
REMARK    4  A    between atoms: C_16  and  C_17
REMARK    5  A    between atoms: C_17  and  O_19
REMARK                            x       y       z     vdW  Elec       q    Type
REMARK                         _______ _______ _______ _____ _____    ______ ____
ROOT
ATOM      1  C   UNL     1       2.663   8.665  17.637  0.00  0.00    +0.000 C 
ATOM      2  C   UNL     1       3.190   7.283  17.941  0.00  0.00    +0.000 A 
ATOM      3  C   UNL     1       4.082   6.625  17.077  0.00  0.00    +0.000 A 
ATOM      4 CL   UNL     1       4.662   7.337  15.611  0.00  0.00    +0.000 Cl
ATOM      5  C   UNL     1       4.558   5.347  17.379  0.00  0.00    +0.000 A 
ATOM      6  C   UNL     1       4.169   4.704  18.554  0.00  0.00    +0.000 A 
ATOM      7  C   UNL     1       3.292   5.343  19.434  0.00  0.00    +0.000 A 
ATOM      8  C   UNL     1       2.782   6.623  19.134  0.00  0.00    +0.000 A 
ATOM      9  C   UNL     1       1.804   7.299  20.069  0.00  0.00    +0.000 C 
ATOM     10  O   UNL     1       2.945   4.789  20.637  0.00  0.00    +0.000 OA
ATOM     11  C   UNL     1       3.241   3.389  20.893  0.00  0.00    +0.000 C 
ATOM     12  C   UNL     1       4.310   2.796  19.999  0.00  0.00    +0.000 C 
ATOM     13  C   UNL     1       4.719   3.395  18.874  0.00  0.00    +0.000 C 
ENDROOT
BRANCH  11  14
ATOM     14  C   UNL     1       1.925   2.573  20.934  0.00  0.00    +0.000 C 
ATOM     15  F   UNL     1       0.835   3.382  20.968  0.00  0.00    +0.000 F 
ATOM     16  F   UNL     1       1.769   1.770  19.856  0.00  0.00    +0.000 F 
ATOM     17  F   UNL     1       1.859   1.801  22.046  0.00  0.00    +0.000 F 
ENDBRANCH  11  14
BRANCH  12  18
ATOM     18  C   UNL     1       4.830   1.484  20.434  0.00  0.00    +0.000 C 
ATOM     19  O   UNL     1       5.263   1.299  21.556  0.00  0.00    +0.000 OA
BRANCH  18  20
ATOM     20  O   UNL     1       4.861   0.533  19.481  0.00  0.00    +0.000 OA
ATOM     21  H   UNL     1       4.624  -0.367  19.766  0.00  0.00    +0.000 HD
ENDBRANCH  18  20
ENDBRANCH  12  18
TORSDOF 3
ENDMDL
MODEL 6
REMARK VINA RESULT:      -7.3      0.852      1.002
REMARK  Name = 
REMARK  5 active torsions:
REMARK  status: ('A' for Active; 'I' for Inactive)
REMARK    1  A    between atoms: C_1  and  C_2
REMARK    2  A    between atoms: C_8  and  C_9
REMARK    3  A    between atoms: C_11  and  C_12
REMARK    4  A    between atoms: C_16  and  C_17
REMARK    5  A    between atoms: C_17  and  O_19
REMARK                            x       y       z     vdW  Elec       q    Type
REMARK                         _______ _______ _______ _____ _____    ______ ____
ROOT
ATOM      1  C   UNL     1       0.907   4.673  20.394  0.00  0.00    +0.000 C 
ATOM      2  C   UNL     1       2.008   4.496  19.376  0.00  0.00    +0.000 A 
ATOM      3  C   UNL     1       2.345   3.231  18.863  0.00  0.00    +0.000 A 
ATOM      4 CL   UNL     1       1.527   1.782  19.336  0.00  0.00    +0.000 Cl
ATOM      5  C   UNL     1       3.366   3.090  17.921  0.00  0.00    +0.000 A 
ATOM      6  C   UNL     1       4.063   4.206  17.457  0.00  0.00    +0.000 A 
ATOM      7  C   UNL     1       3.739   5.475  17.943  0.00  0.00    +0.000 A 
ATOM      8  C   UNL     1       2.727   5.634  18.913  0.00  0.00    +0.000 A 
ATOM      9  C   UNL     1       2.402   7.003  19.466  0.00  0.00    +0.000 C 
ATOM     10  O   UNL     1       4.336   6.607  17.460  0.00  0.00    +0.000 OA
ATOM     11  C   UNL     1       5.536   6.494  16.648  0.00  0.00    +0.000 C 
ATOM     12  C   UNL     1       5.751   5.129  16.027  0.00  0.00    +0.000 C 
ATOM     13  C   UNL     1       5.087   4.041  16.436  0.00  0.00    +0.000 C 
ENDROOT
BRANCH  11  14
ATOM     14  C   UNL     1       6.758   7.031  17.435  0.00  0.00    +0.000 C 
ATOM     15  F   UNL     1       6.573   8.318  17.826  0.00  0.00    +0.000 F 
ATOM     16  F   UNL     1       7.011   6.324  18.561  0.00  0.00    +0.000 F 
ATOM     17  F   UNL     1       7.877   7.023  16.673  0.00  0.00    +0.000 F 
ENDBRANCH  11  14
BRANCH  12  18
ATOM     18  C   UNL     1       6.784   5.079  14.972  0.00  0.00    +0.000 C 
ATOM     19  O   UNL     1       6.591   5.518  13.854  0.00  0.00    +0.000 OA
BRANCH  18  20
ATOM     20  O   UNL     1       7.923   4.446  15.313  0.00  0.00    +0.000 OA
ATOM     21  H   UNL     1       8.748   4.938  15.160  0.00  0.00    +0.000 HD
ENDBRANCH  18  20
ENDBRANCH  12  18
TORSDOF 3
ENDMDL
MODEL 7
REMARK VINA RESULT:      -7.3      2.112      3.262
REMARK  Name = 
REMARK  5 active torsions:
REMARK  status: ('A' for Active; 'I' for Inactive)
REMARK    1  A    between atoms: C_1  and  C_2
REMARK    2  A    between atoms: C_8  and  C_9
REMARK    3  A    between atoms: C_11  and  C_12
REMARK    4  A    between atoms: C_16  and  C_17
REMARK    5  A    between atoms: C_17  and  O_19
REMARK                            x       y       z     vdW  Elec       q    Type
REMARK                         _______ _______ _______ _____ _____    ______ ____
ROOT
ATOM      1  C   UNL     1       0.873   2.530  19.132  0.00  0.00    +0.000 C 
ATOM      2  C   UNL     1       1.990   3.536  18.996  0.00  0.00    +0.000 A 
ATOM      3  C   UNL     1       1.936   4.792  19.625  0.00  0.00    +0.000 A 
ATOM      4 CL   UNL     1       0.606   5.285  20.615  0.00  0.00    +0.000 Cl
ATOM      5  C   UNL     1       2.982   5.707  19.487  0.00  0.00    +0.000 A 
ATOM      6  C   UNL     1       4.110   5.387  18.732  0.00  0.00    +0.000 A 
ATOM      7  C   UNL     1       4.192   4.141  18.106  0.00  0.00    +0.000 A 
ATOM      8  C   UNL     1       3.135   3.213  18.214  0.00  0.00    +0.000 A 
ATOM      9  C   UNL     1       3.208   1.879  17.506  0.00  0.00    +0.000 C 
ATOM     10  O   UNL     1       5.311   3.748  17.423  0.00  0.00    +0.000 OA
ATOM     11  C   UNL     1       6.321   4.734  17.075  0.00  0.00    +0.000 C 
ATOM     12  C   UNL     1       6.270   6.006  17.896  0.00  0.00    +0.000 C 
ATOM     13  C   UNL     1       5.210   6.335  18.645  0.00  0.00    +0.000 C 
ENDROOT
BRANCH  11  14
ATOM     14  C   UNL     1       6.325   4.967  15.544  0.00  0.00    +0.000 C 
ATOM     15  F   UNL     1       5.800   3.908  14.876  0.00  0.00    +0.000 F 
ATOM     16  F   UNL     1       5.599   6.047  15.174  0.00  0.00    +0.000 F 
ATOM     17  F   UNL     1       7.585   5.127  15.073  0.00  0.00    +0.000 F 
ENDBRANCH  11  14
BRANCH  12  18
ATOM     18  C   UNL     1       7.454   6.880  17.768  0.00  0.00    +0.000 C 
ATOM     19  O   UNL     1       7.640   7.578  16.789  0.00  0.00    +0.000 OA
BRANCH  18  20
ATOM     20  O   UNL     1       8.345   6.792  18.773  0.00  0.00    +0.000 OA
ATOM     21  H   UNL     1       8.113   7.264  19.593  0.00  0.00    +0.000 HD
ENDBRANCH  18  20
ENDBRANCH  12  18
TORSDOF 3
ENDMDL
MODEL 8
REMARK VINA RESULT:      -7.3      3.945      6.236
REMARK  Name = 
REMARK  5 active torsions:
REMARK  status: ('A' for Active; 'I' for Inactive)
REMARK    1  A    between atoms: C_1  and  C_2
REMARK    2  A    between atoms: C_8  and  C_9
REMARK    3  A    between atoms: C_11  and  C_12
REMARK    4  A    between atoms: C_16  and  C_17
REMARK    5  A    between atoms: C_17  and  O_19
REMARK                            x       y       z     vdW  Elec       q    Type
REMARK                         _______ _______ _______ _____ _____    ______ ____
ROOT
ATOM      1  C   UNL     1       7.380   5.880  15.800  0.00  0.00    +0.000 C 
ATOM      2  C   UNL     1       6.440   5.560  16.937  0.00  0.00    +0.000 A 
ATOM      3  C   UNL     1       6.762   5.861  18.271  0.00  0.00    +0.000 A 
ATOM      4 CL   UNL     1       8.242   6.633  18.724  0.00  0.00    +0.000 Cl
ATOM      5  C   UNL     1       5.877   5.557  19.307  0.00  0.00    +0.000 A 
ATOM      6  C   UNL     1       4.645   4.960  19.037  0.00  0.00    +0.000 A 
ATOM      7  C   UNL     1       4.297   4.661  17.717  0.00  0.00    +0.000 A 
ATOM      8  C   UNL     1       5.189   4.938  16.660  0.00  0.00    +0.000 A 
ATOM      9  C   UNL     1       4.828   4.580  15.236  0.00  0.00    +0.000 C 
ATOM     10  O   UNL     1       3.070   4.151  17.391  0.00  0.00    +0.000 OA
ATOM     11  C   UNL     1       2.211   3.626  18.441  0.00  0.00    +0.000 C 
ATOM     12  C   UNL     1       2.551   4.109  19.835  0.00  0.00    +0.000 C 
ATOM     13  C   UNL     1       3.716   4.701  20.126  0.00  0.00    +0.000 C 
ENDROOT
BRANCH  11  14
ATOM     14  C   UNL     1       2.105   2.086  18.311  0.00  0.00    +0.000 C 
ATOM     15  F   UNL     1       2.962   1.453  19.152  0.00  0.00    +0.000 F 
ATOM     16  F   UNL     1       0.870   1.617  18.606  0.00  0.00    +0.000 F 
ATOM     17  F   UNL     1       2.423   1.673  17.062  0.00  0.00    +0.000 F 
ENDBRANCH  11  14
BRANCH  12  18
ATOM     18  C   UNL     1       1.524   3.831  20.860  0.00  0.00    +0.000 C 
ATOM     19  O   UNL     1       1.801   3.335  21.936  0.00  0.00    +0.000 OA
BRANCH  18  20
ATOM     20  O   UNL     1       0.257   4.096  20.490  0.00  0.00    +0.000 OA
ATOM     21  H   UNL     1      -0.402   4.118  21.206  0.00  0.00    +0.000 HD
ENDBRANCH  18  20
ENDBRANCH  12  18
TORSDOF 3
ENDMDL
MODEL 9
REMARK VINA RESULT:      -7.2      3.064      4.483
REMARK  Name = 
REMARK  5 active torsions:
REMARK  status: ('A' for Active; 'I' for Inactive)
REMARK    1  A    between atoms: C_1  and  C_2
REMARK    2  A    between atoms: C_8  and  C_9
REMARK    3  A    between atoms: C_11  and  C_12
REMARK    4  A    between atoms: C_16  and  C_17
REMARK    5  A    between atoms: C_17  and  O_19
REMARK                            x       y       z     vdW  Elec       q    Type
REMARK                         _______ _______ _______ _____ _____    ______ ____
ROOT
ATOM      1  C   UNL     1       0.792  10.142  19.572  0.00  0.00    +0.000 C 
ATOM      2  C   UNL     1       1.293   8.734  19.785  0.00  0.00    +0.000 A 
ATOM      3  C   UNL     1       0.944   7.988  20.924  0.00  0.00    +0.000 A 
ATOM      4 CL   UNL     1      -0.093   8.605  22.164  0.00  0.00    +0.000 Cl
ATOM      5  C   UNL     1       1.418   6.686  21.100  0.00  0.00    +0.000 A 
ATOM      6  C   UNL     1       2.236   6.093  20.139  0.00  0.00    +0.000 A 
ATOM      7  C   UNL     1       2.588   6.809  18.993  0.00  0.00    +0.000 A 
ATOM      8  C   UNL     1       2.139   8.134  18.809  0.00  0.00    +0.000 A 
ATOM      9  C   UNL     1       2.550   8.922  17.586  0.00  0.00    +0.000 C 
ATOM     10  O   UNL     1       3.320   6.245  17.984  0.00  0.00    +0.000 OA
ATOM     11  C   UNL     1       4.006   4.984  18.216  0.00  0.00    +0.000 C 
ATOM     12  C   UNL     1       3.476   4.184  19.387  0.00  0.00    +0.000 C 
ATOM     13  C   UNL     1       2.674   4.717  20.318  0.00  0.00    +0.000 C 
ENDROOT
BRANCH  11  14
ATOM     14  C   UNL     1       5.537   5.216  18.247  0.00  0.00    +0.000 C 
ATOM     15  F   UNL     1       5.883   6.363  17.609  0.00  0.00    +0.000 F 
ATOM     16  F   UNL     1       6.029   5.318  19.504  0.00  0.00    +0.000 F 
ATOM     17  F   UNL     1       6.200   4.216  17.618  0.00  0.00    +0.000 F 
ENDBRANCH  11  14
BRANCH  12  18
ATOM     18  C   UNL     1       3.950   2.786  19.454  0.00  0.00    +0.000 C 
ATOM     19  O   UNL     1       4.800   2.429  20.249  0.00  0.00    +0.000 OA
BRANCH  18  20
ATOM     20  O   UNL     1       3.433   1.958  18.527  0.00  0.00    +0.000 OA
ATOM     21  H   UNL     1       2.615   1.493  18.778  0.00  0.00    +0.000 HD
ENDBRANCH  18  20
ENDBRANCH  12  18
TORSDOF 3
ENDMDL
