MODEL 1
REMARK VINA RESULT:      -7.0      0.000      0.000
REMARK  Name = 
REMARK  8 active torsions:
REMARK  status: ('A' for Active; 'I' for Inactive)
REMARK    1  A    between atoms: C_2  and  C_3
REMARK    2  A    between atoms: C_3  and  O_4
REMARK    3  A    between atoms: O_4  and  C_5
REMARK    4  A    between atoms: N_13  and  N_14
REMARK    5  A    between atoms: N_14  and  C_15
REMARK    6  A    between atoms: C_15  and  N_17
REMARK    7  A    between atoms: N_17  and  C_18
REMARK    8  A    between atoms: C_18  and  C_19
REMARK                            x       y       z     vdW  Elec       q    Type
REMARK                         _______ _______ _______ _____ _____    ______ ____
ROOT
ATOM      1  O   UNL     1       7.733   4.272  18.029  0.00  0.00    +0.000 OA
ATOM      2  C   UNL     1       6.732   4.910  17.695  0.00  0.00    +0.000 C 
ATOM      3  N   UNL     1       5.489   4.687  18.262  0.00  0.00    +0.000 N 
ATOM      4  H   UNL     1       4.635   4.984  17.789  0.00  0.00    +0.000 HD
ENDROOT
BRANCH   3   5
ATOM      5  N   UNL     1       5.372   3.568  19.098  0.00  0.00    +0.000 N 
ATOM      6  H   UNL     1       6.236   3.265  19.545  0.00  0.00    +0.000 HD
BRANCH   5   7
ATOM      7  C   UNL     1       4.194   2.885  19.256  0.00  0.00    +0.000 C 
ATOM      8  S   UNL     1       3.678   1.640  18.270  0.00  0.00    +0.000 S 
BRANCH   7   9
ATOM      9  N   UNL     1       3.433   3.254  20.328  0.00  0.00    +0.000 N 
ATOM     10  H   UNL     1       3.933   3.404  21.197  0.00  0.00    +0.000 HD
BRANCH   9  11
ATOM     11  C   UNL     1       2.090   3.797  20.239  0.00  0.00    +0.000 C 
BRANCH  11  12
ATOM     12  C   UNL     1       2.132   5.235  19.886  0.00  0.00    +0.000 A 
ATOM     13  C   UNL     1       1.793   6.380  20.579  0.00  0.00    +0.000 A 
ATOM     14  C   UNL     1       2.146   7.470  19.748  0.00  0.00    +0.000 A 
ATOM     15  C   UNL     1       2.652   6.921  18.593  0.00  0.00    +0.000 A 
ATOM     16  O   UNL     1       2.642   5.564  18.665  0.00  0.00    +0.000 OA
ENDBRANCH  11  12
ENDBRANCH   9  11
ENDBRANCH   7   9
ENDBRANCH   5   7
ENDBRANCH   3   5
BRANCH   2  17
ATOM     17  C   UNL     1       6.773   6.036  16.673  0.00  0.00    +0.000 C 
BRANCH  17  18
ATOM     18  O   UNL     1       7.563   5.668  15.551  0.00  0.00    +0.000 OA
BRANCH  18  19
ATOM     19  C   UNL     1       6.939   4.914  14.587  0.00  0.00    +0.000 A 
ATOM     20  C   UNL     1       5.789   4.149  14.809  0.00  0.00    +0.000 A 
ATOM     21  C   UNL     1       5.208   3.413  13.770  0.00  0.00    +0.000 A 
ATOM     22  C   UNL     1       5.775   3.438  12.498  0.00  0.00    +0.000 A 
ATOM     23 CL   UNL     1       5.063   2.520  11.231  0.00  0.00    +0.000 Cl
ATOM     24  C   UNL     1       6.906   4.209  12.250  0.00  0.00    +0.000 A 
ATOM     25  C   UNL     1       7.480   4.951  13.287  0.00  0.00    +0.000 A 
ATOM     26 CL   UNL     1       8.886   5.891  12.925  0.00  0.00    +0.000 Cl
ENDBRANCH  18  19
ENDBRANCH  17  18
ENDBRANCH   2  17
TORSDOF 8
ENDMDL
MODEL 2
REMARK VINA RESULT:      -6.9      5.381      7.809
REMARK  Name = 
REMARK  8 active torsions:
REMARK  status: ('A' for Active; 'I' for Inactive)
REMARK    1  A    between atoms: C_2  and  C_3
REMARK    2  A    between atoms: C_3  and  O_4
REMARK    3  A    between atoms: O_4  and  C_5
REMARK    4  A    between atoms: N_13  and  N_14
REMARK    5  A    between atoms: N_14  and  C_15
REMARK    6  A    between atoms: C_15  and  N_17
REMARK    7  A    between atoms: N_17  and  C_18
REMARK    8  A    between atoms: C_18  and  C_19
REMARK                            x       y       z     vdW  Elec       q    Type
REMARK                         _______ _______ _______ _____ _____    ______ ____
ROOT
ATOM      1  O   UNL     1       2.839   6.894  18.100  0.00  0.00    +0.000 OA
ATOM      2  C   UNL     1       2.823   6.556  19.286  0.00  0.00    +0.000 C 
ATOM      3  N   UNL     1       3.882   5.895  19.883  0.00  0.00    +0.000 N 
ATOM      4  H   UNL     1       3.752   5.363  20.743  0.00  0.00    +0.000 HD
ENDROOT
BRANCH   3   5
ATOM      5  N   UNL     1       4.904   5.451  19.032  0.00  0.00    +0.000 N 
ATOM      6  H   UNL     1       5.620   6.142  18.814  0.00  0.00    +0.000 HD
BRANCH   5   7
ATOM      7  C   UNL     1       4.909   4.198  18.477  0.00  0.00    +0.000 C 
ATOM      8  S   UNL     1       4.660   3.875  16.858  0.00  0.00    +0.000 S 
BRANCH   7   9
ATOM      9  N   UNL     1       5.176   3.170  19.335  0.00  0.00    +0.000 N 
ATOM     10  H   UNL     1       5.884   3.350  20.038  0.00  0.00    +0.000 HD
BRANCH   9  11
ATOM     11  C   UNL     1       4.302   2.032  19.557  0.00  0.00    +0.000 C 
BRANCH  11  12
ATOM     12  C   UNL     1       2.985   2.480  20.067  0.00  0.00    +0.000 A 
ATOM     13  C   UNL     1       2.535   2.825  21.325  0.00  0.00    +0.000 A 
ATOM     14  C   UNL     1       1.198   3.262  21.167  0.00  0.00    +0.000 A 
ATOM     15  C   UNL     1       0.910   3.129  19.829  0.00  0.00    +0.000 A 
ATOM     16  O   UNL     1       1.986   2.650  19.153  0.00  0.00    +0.000 OA
ENDBRANCH  11  12
ENDBRANCH   9  11
ENDBRANCH   7   9
ENDBRANCH   5   7
ENDBRANCH   3   5
BRANCH   2  17
ATOM     17  C   UNL     1       1.665   6.877  20.220  0.00  0.00    +0.000 C 
BRANCH  17  18
ATOM     18  O   UNL     1       1.839   8.156  20.816  0.00  0.00    +0.000 OA
BRANCH  18  19
ATOM     19  C   UNL     1       0.974   9.141  20.408  0.00  0.00    +0.000 A 
ATOM     20  C   UNL     1       0.790   9.524  19.075  0.00  0.00    +0.000 A 
ATOM     21  C   UNL     1      -0.119  10.534  18.740  0.00  0.00    +0.000 A 
ATOM     22  C   UNL     1      -0.852  11.170  19.738  0.00  0.00    +0.000 A 
ATOM     23 CL   UNL     1      -1.956  12.419  19.319  0.00  0.00    +0.000 Cl
ATOM     24  C   UNL     1      -0.700  10.790  21.067  0.00  0.00    +0.000 A 
ATOM     25  C   UNL     1       0.201   9.775  21.400  0.00  0.00    +0.000 A 
ATOM     26 CL   UNL     1       0.352   9.343  23.068  0.00  0.00    +0.000 Cl
ENDBRANCH  18  19
ENDBRANCH  17  18
ENDBRANCH   2  17
TORSDOF 8
ENDMDL
MODEL 3
REMARK VINA RESULT:      -6.9      5.408      7.287
REMARK  Name = 
REMARK  8 active torsions:
REMARK  status: ('A' for Active; 'I' for Inactive)
REMARK    1  A    between atoms: C_2  and  C_3
REMARK    2  A    between atoms: C_3  and  O_4
REMARK    3  A    between atoms: O_4  and  C_5
REMARK    4  A    between atoms: N_13  and  N_14
REMARK    5  A    between atoms: N_14  and  C_15
REMARK    6  A    between atoms: C_15  and  N_17
REMARK    7  A    between atoms: N_17  and  C_18
REMARK    8  A    between atoms: C_18  and  C_19
REMARK                            x       y       z     vdW  Elec       q    Type
REMARK                         _______ _______ _______ _____ _____    ______ ____
ROOT
ATOM      1  O   UNL     1       8.322   6.975  18.927  0.00  0.00    +0.000 OA
ATOM      2  C   UNL     1       8.043   7.678  17.953  0.00  0.00    +0.000 C 
ATOM      3  N   UNL     1       7.563   7.146  16.769  0.00  0.00    +0.000 N 
ATOM      4  H   UNL     1       7.623   7.669  15.896  0.00  0.00    +0.000 HD
ENDROOT
BRANCH   3   5
ATOM      5  N   UNL     1       7.587   5.749  16.654  0.00  0.00    +0.000 N 
ATOM      6  H   UNL     1       8.503   5.319  16.762  0.00  0.00    +0.000 HD
BRANCH   5   7
ATOM      7  C   UNL     1       6.469   5.015  16.350  0.00  0.00    +0.000 C 
ATOM      8  S   UNL     1       5.649   5.089  14.898  0.00  0.00    +0.000 S 
BRANCH   7   9
ATOM      9  N   UNL     1       6.050   4.146  17.316  0.00  0.00    +0.000 N 
ATOM     10  H   UNL     1       6.252   3.166  17.151  0.00  0.00    +0.000 HD
BRANCH   9  11
ATOM     11  C   UNL     1       5.700   4.526  18.672  0.00  0.00    +0.000 C 
BRANCH  11  12
ATOM     12  C   UNL     1       4.237   4.734  18.794  0.00  0.00    +0.000 A 
ATOM     13  C   UNL     1       3.148   3.956  18.456  0.00  0.00    +0.000 A 
ATOM     14  C   UNL     1       2.002   4.655  18.904  0.00  0.00    +0.000 A 
ATOM     15  C   UNL     1       2.462   5.825  19.461  0.00  0.00    +0.000 A 
ATOM     16  O   UNL     1       3.818   5.886  19.394  0.00  0.00    +0.000 OA
ENDBRANCH  11  12
ENDBRANCH   9  11
ENDBRANCH   7   9
ENDBRANCH   5   7
ENDBRANCH   3   5
BRANCH   2  17
ATOM     17  C   UNL     1       8.148   9.196  17.972  0.00  0.00    +0.000 C 
BRANCH  17  18
ATOM     18  O   UNL     1       8.891   9.635  19.102  0.00  0.00    +0.000 OA
BRANCH  18  19
ATOM     19  C   UNL     1       9.636  10.776  18.935  0.00  0.00    +0.000 A 
ATOM     20  C   UNL     1      10.310  11.109  17.755  0.00  0.00    +0.000 A 
ATOM     21  C   UNL     1      11.044  12.297  17.662  0.00  0.00    +0.000 A 
ATOM     22  C   UNL     1      11.109  13.163  18.751  0.00  0.00    +0.000 A 
ATOM     23 CL   UNL     1      12.024  14.613  18.633  0.00  0.00    +0.000 Cl
ATOM     24  C   UNL     1      10.428  12.861  19.926  0.00  0.00    +0.000 A 
ATOM     25  C   UNL     1       9.688  11.678  20.015  0.00  0.00    +0.000 A 
ATOM     26 CL   UNL     1       8.863  11.351  21.499  0.00  0.00    +0.000 Cl
ENDBRANCH  18  19
ENDBRANCH  17  18
ENDBRANCH   2  17
TORSDOF 8
ENDMDL
MODEL 4
REMARK VINA RESULT:      -6.9      3.755      7.329
REMARK  Name = 
REMARK  8 active torsions:
REMARK  status: ('A' for Active; 'I' for Inactive)
REMARK    1  A    between atoms: C_2  and  C_3
REMARK    2  A    between atoms: C_3  and  O_4
REMARK    3  A    between atoms: O_4  and  C_5
REMARK    4  A    between atoms: N_13  and  N_14
REMARK    5  A    between atoms: N_14  and  C_15
REMARK    6  A    between atoms: C_15  and  N_17
REMARK    7  A    between atoms: N_17  and  C_18
REMARK    8  A    between atoms: C_18  and  C_19
REMARK                            x       y       z     vdW  Elec       q    Type
REMARK                         _______ _______ _______ _____ _____    ______ ____
ROOT
ATOM      1  O   UNL     1       4.486   3.049  16.715  0.00  0.00    +0.000 OA
ATOM      2  C   UNL     1       4.568   3.086  17.945  0.00  0.00    +0.000 C 
ATOM      3  N   UNL     1       5.659   3.634  18.598  0.00  0.00    +0.000 N 
ATOM      4  H   UNL     1       5.863   3.397  19.568  0.00  0.00    +0.000 HD
ENDROOT
BRANCH   3   5
ATOM      5  N   UNL     1       6.761   3.975  17.801  0.00  0.00    +0.000 N 
ATOM      6  H   UNL     1       7.230   3.192  17.349  0.00  0.00    +0.000 HD
BRANCH   5   7
ATOM      7  C   UNL     1       7.220   5.262  17.689  0.00  0.00    +0.000 C 
ATOM      8  S   UNL     1       7.896   6.142  18.937  0.00  0.00    +0.000 S 
BRANCH   7   9
ATOM      9  N   UNL     1       7.134   5.816  16.444  0.00  0.00    +0.000 N 
ATOM     10  H   UNL     1       8.007   6.140  16.041  0.00  0.00    +0.000 HD
BRANCH   9  11
ATOM     11  C   UNL     1       6.016   5.639  15.537  0.00  0.00    +0.000 C 
BRANCH  11  12
ATOM     12  C   UNL     1       6.457   4.966  14.292  0.00  0.00    +0.000 A 
ATOM     13  C   UNL     1       5.979   3.874  13.596  0.00  0.00    +0.000 A 
ATOM     14  C   UNL     1       6.765   3.771  12.424  0.00  0.00    +0.000 A 
ATOM     15  C   UNL     1       7.687   4.787  12.493  0.00  0.00    +0.000 A 
ATOM     16  O   UNL     1       7.513   5.516  13.626  0.00  0.00    +0.000 OA
ENDBRANCH  11  12
ENDBRANCH   9  11
ENDBRANCH   7   9
ENDBRANCH   5   7
ENDBRANCH   3   5
BRANCH   2  17
ATOM     17  C   UNL     1       3.463   2.585  18.862  0.00  0.00    +0.000 C 
BRANCH  17  18
ATOM     18  O   UNL     1       2.240   3.257  18.591  0.00  0.00    +0.000 OA
BRANCH  18  19
ATOM     19  C   UNL     1       2.129   4.538  19.073  0.00  0.00    +0.000 A 
ATOM     20  C   UNL     1       2.485   5.683  18.353  0.00  0.00    +0.000 A 
ATOM     21  C   UNL     1       2.333   6.957  18.913  0.00  0.00    +0.000 A 
ATOM     22  C   UNL     1       1.822   7.094  20.201  0.00  0.00    +0.000 A 
ATOM     23 CL   UNL     1       1.651   8.661  20.887  0.00  0.00    +0.000 Cl
ATOM     24  C   UNL     1       1.441   5.970  20.926  0.00  0.00    +0.000 A 
ATOM     25  C   UNL     1       1.585   4.699  20.362  0.00  0.00    +0.000 A 
ATOM     26 CL   UNL     1       1.097   3.336  21.308  0.00  0.00    +0.000 Cl
ENDBRANCH  18  19
ENDBRANCH  17  18
ENDBRANCH   2  17
TORSDOF 8
ENDMDL
MODEL 5
REMARK VINA RESULT:      -6.8      5.268      8.552
REMARK  Name = 
REMARK  8 active torsions:
REMARK  status: ('A' for Active; 'I' for Inactive)
REMARK    1  A    between atoms: C_2  and  C_3
REMARK    2  A    between atoms: C_3  and  O_4
REMARK    3  A    between atoms: O_4  and  C_5
REMARK    4  A    between atoms: N_13  and  N_14
REMARK    5  A    between atoms: N_14  and  C_15
REMARK    6  A    between atoms: C_15  and  N_17
REMARK    7  A    between atoms: N_17  and  C_18
REMARK    8  A    between atoms: C_18  and  C_19
REMARK                            x       y       z     vdW  Elec       q    Type
REMARK                         _______ _______ _______ _____ _____    ______ ____
ROOT
ATOM      1  O   UNL     1       2.403   7.336  18.168  0.00  0.00    +0.000 OA
ATOM      2  C   UNL     1       2.521   7.053  19.363  0.00  0.00    +0.000 C 
ATOM      3  N   UNL     1       3.415   6.098  19.814  0.00  0.00    +0.000 N 
ATOM      4  H   UNL     1       3.300   5.660  20.727  0.00  0.00    +0.000 HD
ENDROOT
BRANCH   3   5
ATOM      5  N   UNL     1       4.052   5.323  18.834  0.00  0.00    +0.000 N 
ATOM      6  H   UNL     1       3.537   5.214  17.963  0.00  0.00    +0.000 HD
BRANCH   5   7
ATOM      7  C   UNL     1       5.253   4.699  19.053  0.00  0.00    +0.000 C 
ATOM      8  S   UNL     1       6.741   5.454  18.993  0.00  0.00    +0.000 S 
BRANCH   7   9
ATOM      9  N   UNL     1       5.183   3.374  19.376  0.00  0.00    +0.000 N 
ATOM     10  H   UNL     1       5.806   3.063  20.113  0.00  0.00    +0.000 HD
BRANCH   9  11
ATOM     11  C   UNL     1       4.075   2.499  19.038  0.00  0.00    +0.000 C 
BRANCH  11  12
ATOM     12  C   UNL     1       2.942   2.710  19.970  0.00  0.00    +0.000 A 
ATOM     13  C   UNL     1       2.755   2.403  21.302  0.00  0.00    +0.000 A 
ATOM     14  C   UNL     1       1.497   2.942  21.664  0.00  0.00    +0.000 A 
ATOM     15  C   UNL     1       0.987   3.519  20.526  0.00  0.00    +0.000 A 
ATOM     16  O   UNL     1       1.855   3.378  19.489  0.00  0.00    +0.000 OA
ENDBRANCH  11  12
ENDBRANCH   9  11
ENDBRANCH   7   9
ENDBRANCH   5   7
ENDBRANCH   3   5
BRANCH   2  17
ATOM     17  C   UNL     1       1.737   7.759  20.460  0.00  0.00    +0.000 C 
BRANCH  17  18
ATOM     18  O   UNL     1       1.113   8.933  19.957  0.00  0.00    +0.000 OA
BRANCH  18  19
ATOM     19  C   UNL     1       0.340   9.641  20.845  0.00  0.00    +0.000 A 
ATOM     20  C   UNL     1       0.157   9.285  22.185  0.00  0.00    +0.000 A 
ATOM     21  C   UNL     1      -0.642  10.065  23.029  0.00  0.00    +0.000 A 
ATOM     22  C   UNL     1      -1.264  11.209  22.537  0.00  0.00    +0.000 A 
ATOM     23 CL   UNL     1      -2.254  12.154  23.577  0.00  0.00    +0.000 Cl
ATOM     24  C   UNL     1      -1.078  11.593  21.213  0.00  0.00    +0.000 A 
ATOM     25  C   UNL     1      -0.273  10.818  20.373  0.00  0.00    +0.000 A 
ATOM     26 CL   UNL     1      -0.076  11.339  18.736  0.00  0.00    +0.000 Cl
ENDBRANCH  18  19
ENDBRANCH  17  18
ENDBRANCH   2  17
TORSDOF 8
ENDMDL
MODEL 6
REMARK VINA RESULT:      -6.8      5.408      8.137
REMARK  Name = 
REMARK  8 active torsions:
REMARK  status: ('A' for Active; 'I' for Inactive)
REMARK    1  A    between atoms: C_2  and  C_3
REMARK    2  A    between atoms: C_3  and  O_4
REMARK    3  A    between atoms: O_4  and  C_5
REMARK    4  A    between atoms: N_13  and  N_14
REMARK    5  A    between atoms: N_14  and  C_15
REMARK    6  A    between atoms: C_15  and  N_17
REMARK    7  A    between atoms: N_17  and  C_18
REMARK    8  A    between atoms: C_18  and  C_19
REMARK                            x       y       z     vdW  Elec       q    Type
REMARK                         _______ _______ _______ _____ _____    ______ ____
ROOT
ATOM      1  O   UNL     1       8.621   7.574  18.905  0.00  0.00    +0.000 OA
ATOM      2  C   UNL     1       8.049   8.080  17.936  0.00  0.00    +0.000 C 
ATOM      3  N   UNL     1       7.423   7.319  16.964  0.00  0.00    +0.000 N 
ATOM      4  H   UNL     1       7.227   7.704  16.041  0.00  0.00    +0.000 HD
ENDROOT
BRANCH   3   5
ATOM      5  N   UNL     1       7.631   5.933  17.023  0.00  0.00    +0.000 N 
ATOM      6  H   UNL     1       8.552   5.618  16.726  0.00  0.00    +0.000 HD
BRANCH   5   7
ATOM      7  C   UNL     1       6.644   5.055  17.389  0.00  0.00    +0.000 C 
ATOM      8  S   UNL     1       5.760   5.155  18.802  0.00  0.00    +0.000 S 
BRANCH   7   9
ATOM      9  N   UNL     1       6.369   4.063  16.492  0.00  0.00    +0.000 N 
ATOM     10  H   UNL     1       6.591   3.120  16.792  0.00  0.00    +0.000 HD
BRANCH   9  11
ATOM     11  C   UNL     1       5.475   4.200  15.358  0.00  0.00    +0.000 C 
BRANCH  11  12
ATOM     12  C   UNL     1       6.244   4.253  14.092  0.00  0.00    +0.000 A 
ATOM     13  C   UNL     1       6.134   3.568  12.899  0.00  0.00    +0.000 A 
ATOM     14  C   UNL     1       7.098   4.126  12.026  0.00  0.00    +0.000 A 
ATOM     15  C   UNL     1       7.752   5.094  12.750  0.00  0.00    +0.000 A 
ATOM     16  O   UNL     1       7.245   5.176  14.008  0.00  0.00    +0.000 OA
ENDBRANCH  11  12
ENDBRANCH   9  11
ENDBRANCH   7   9
ENDBRANCH   5   7
ENDBRANCH   3   5
BRANCH   2  17
ATOM     17  C   UNL     1       7.929   9.584  17.741  0.00  0.00    +0.000 C 
BRANCH  17  18
ATOM     18  O   UNL     1       9.131  10.239  18.126  0.00  0.00    +0.000 OA
BRANCH  18  19
ATOM     19  C   UNL     1       9.118  11.612  18.080  0.00  0.00    +0.000 A 
ATOM     20  C   UNL     1       8.068  12.372  17.555  0.00  0.00    +0.000 A 
ATOM     21  C   UNL     1       8.128  13.770  17.552  0.00  0.00    +0.000 A 
ATOM     22  C   UNL     1       9.242  14.419  18.078  0.00  0.00    +0.000 A 
ATOM     23 CL   UNL     1       9.315  16.137  18.058  0.00  0.00    +0.000 Cl
ATOM     24  C   UNL     1      10.288  13.684  18.624  0.00  0.00    +0.000 A 
ATOM     25  C   UNL     1      10.223  12.287  18.634  0.00  0.00    +0.000 A 
ATOM     26 CL   UNL     1      11.551  11.421  19.325  0.00  0.00    +0.000 Cl
ENDBRANCH  18  19
ENDBRANCH  17  18
ENDBRANCH   2  17
TORSDOF 8
ENDMDL
MODEL 7
REMARK VINA RESULT:      -6.7      6.383      8.213
REMARK  Name = 
REMARK  8 active torsions:
REMARK  status: ('A' for Active; 'I' for Inactive)
REMARK    1  A    between atoms: C_2  and  C_3
REMARK    2  A    between atoms: C_3  and  O_4
REMARK    3  A    between atoms: O_4  and  C_5
REMARK    4  A    between atoms: N_13  and  N_14
REMARK    5  A    between atoms: N_14  and  C_15
REMARK    6  A    between atoms: C_15  and  N_17
REMARK    7  A    between atoms: N_17  and  C_18
REMARK    8  A    between atoms: C_18  and  C_19
REMARK                            x       y       z     vdW  Elec       q    Type
REMARK                         _______ _______ _______ _____ _____    ______ ____
ROOT
ATOM      1  O   UNL     1       7.499   7.515  16.986  0.00  0.00    +0.000 OA
ATOM      2  C   UNL     1       7.961   7.391  18.123  0.00  0.00    +0.000 C 
ATOM      3  N   UNL     1       8.537   8.448  18.807  0.00  0.00    +0.000 N 
ATOM      4  H   UNL     1       9.171   8.284  19.588  0.00  0.00    +0.000 HD
ENDROOT
BRANCH   3   5
ATOM      5  N   UNL     1       8.749   9.627  18.077  0.00  0.00    +0.000 N 
ATOM      6  H   UNL     1       8.600   9.550  17.073  0.00  0.00    +0.000 HD
BRANCH   5   7
ATOM      7  C   UNL     1       9.191  10.785  18.661  0.00  0.00    +0.000 C 
ATOM      8  S   UNL     1       9.484  10.975  20.294  0.00  0.00    +0.000 S 
BRANCH   7   9
ATOM      9  N   UNL     1       9.431  11.825  17.810  0.00  0.00    +0.000 N 
ATOM     10  H   UNL     1       8.624  12.380  17.548  0.00  0.00    +0.000 HD
BRANCH   9  11
ATOM     11  C   UNL     1      10.738  12.408  17.566  0.00  0.00    +0.000 C 
BRANCH  11  12
ATOM     12  C   UNL     1      10.646  13.886  17.506  0.00  0.00    +0.000 A 
ATOM     13  C   UNL     1      11.499  14.859  17.027  0.00  0.00    +0.000 A 
ATOM     14  C   UNL     1      10.815  16.091  17.160  0.00  0.00    +0.000 A 
ATOM     15  C   UNL     1       9.603  15.795  17.736  0.00  0.00    +0.000 A 
ATOM     16  O   UNL     1       9.492  14.458  17.956  0.00  0.00    +0.000 OA
ENDBRANCH  11  12
ENDBRANCH   9  11
ENDBRANCH   7   9
ENDBRANCH   5   7
ENDBRANCH   3   5
BRANCH   2  17
ATOM     17  C   UNL     1       7.896   6.087  18.904  0.00  0.00    +0.000 C 
BRANCH  17  18
ATOM     18  O   UNL     1       7.435   5.028  18.076  0.00  0.00    +0.000 OA
BRANCH  18  19
ATOM     19  C   UNL     1       6.081   4.799  18.076  0.00  0.00    +0.000 A 
ATOM     20  C   UNL     1       5.248   5.007  19.181  0.00  0.00    +0.000 A 
ATOM     21  C   UNL     1       3.874   4.757  19.098  0.00  0.00    +0.000 A 
ATOM     22  C   UNL     1       3.321   4.298  17.906  0.00  0.00    +0.000 A 
ATOM     23 CL   UNL     1       1.633   3.981  17.816  0.00  0.00    +0.000 Cl
ATOM     24  C   UNL     1       4.127   4.106  16.789  0.00  0.00    +0.000 A 
ATOM     25  C   UNL     1       5.498   4.363  16.870  0.00  0.00    +0.000 A 
ATOM     26 CL   UNL     1       6.455   4.106  15.453  0.00  0.00    +0.000 Cl
ENDBRANCH  18  19
ENDBRANCH  17  18
ENDBRANCH   2  17
TORSDOF 8
ENDMDL
MODEL 8
REMARK VINA RESULT:      -6.7      4.451      7.568
REMARK  Name = 
REMARK  8 active torsions:
REMARK  status: ('A' for Active; 'I' for Inactive)
REMARK    1  A    between atoms: C_2  and  C_3
REMARK    2  A    between atoms: C_3  and  O_4
REMARK    3  A    between atoms: O_4  and  C_5
REMARK    4  A    between atoms: N_13  and  N_14
REMARK    5  A    between atoms: N_14  and  C_15
REMARK    6  A    between atoms: C_15  and  N_17
REMARK    7  A    between atoms: N_17  and  C_18
REMARK    8  A    between atoms: C_18  and  C_19
REMARK                            x       y       z     vdW  Elec       q    Type
REMARK                         _______ _______ _______ _____ _____    ______ ____
ROOT
ATOM      1  O   UNL     1       3.943   5.794  19.644  0.00  0.00    +0.000 OA
ATOM      2  C   UNL     1       2.718   5.717  19.523  0.00  0.00    +0.000 C 
ATOM      3  N   UNL     1       2.118   4.937  18.550  0.00  0.00    +0.000 N 
ATOM      4  H   UNL     1       1.155   5.106  18.261  0.00  0.00    +0.000 HD
ENDROOT
BRANCH   3   5
ATOM      5  N   UNL     1       2.964   4.384  17.578  0.00  0.00    +0.000 N 
ATOM      6  H   UNL     1       2.944   4.845  16.670  0.00  0.00    +0.000 HD
BRANCH   5   7
ATOM      7  C   UNL     1       3.718   3.263  17.808  0.00  0.00    +0.000 C 
ATOM      8  S   UNL     1       3.096   1.765  18.209  0.00  0.00    +0.000 S 
BRANCH   7   9
ATOM      9  N   UNL     1       5.066   3.411  17.655  0.00  0.00    +0.000 N 
ATOM     10  H   UNL     1       5.639   2.644  17.989  0.00  0.00    +0.000 HD
BRANCH   9  11
ATOM     11  C   UNL     1       5.694   4.356  16.749  0.00  0.00    +0.000 C 
BRANCH  11  12
ATOM     12  C   UNL     1       6.626   5.242  17.485  0.00  0.00    +0.000 A 
ATOM     13  C   UNL     1       7.134   6.497  17.218  0.00  0.00    +0.000 A 
ATOM     14  C   UNL     1       7.904   6.866  18.346  0.00  0.00    +0.000 A 
ATOM     15  C   UNL     1       7.840   5.804  19.216  0.00  0.00    +0.000 A 
ATOM     16  O   UNL     1       7.070   4.809  18.700  0.00  0.00    +0.000 OA
ENDBRANCH  11  12
ENDBRANCH   9  11
ENDBRANCH   7   9
ENDBRANCH   5   7
ENDBRANCH   3   5
BRANCH   2  17
ATOM     17  C   UNL     1       1.749   6.425  20.458  0.00  0.00    +0.000 C 
BRANCH  17  18
ATOM     18  O   UNL     1       2.099   7.795  20.603  0.00  0.00    +0.000 OA
BRANCH  18  19
ATOM     19  C   UNL     1       1.306   8.699  19.942  0.00  0.00    +0.000 A 
ATOM     20  C   UNL     1       1.404   8.980  18.575  0.00  0.00    +0.000 A 
ATOM     21  C   UNL     1       0.551   9.912  17.973  0.00  0.00    +0.000 A 
ATOM     22  C   UNL     1      -0.410  10.571  18.736  0.00  0.00    +0.000 A 
ATOM     23 CL   UNL     1      -1.444  11.725  17.992  0.00  0.00    +0.000 Cl
ATOM     24  C   UNL     1      -0.538  10.292  20.092  0.00  0.00    +0.000 A 
ATOM     25  C   UNL     1       0.308   9.354  20.691  0.00  0.00    +0.000 A 
ATOM     26 CL   UNL     1       0.106   9.045  22.380  0.00  0.00    +0.000 Cl
ENDBRANCH  18  19
ENDBRANCH  17  18
ENDBRANCH   2  17
TORSDOF 8
ENDMDL
MODEL 9
REMARK VINA RESULT:      -6.7      4.624      8.561
REMARK  Name = 
REMARK  8 active torsions:
REMARK  status: ('A' for Active; 'I' for Inactive)
REMARK    1  A    between atoms: C_2  and  C_3
REMARK    2  A    between atoms: C_3  and  O_4
REMARK    3  A    between atoms: O_4  and  C_5
REMARK    4  A    between atoms: N_13  and  N_14
REMARK    5  A    between atoms: N_14  and  C_15
REMARK    6  A    between atoms: C_15  and  N_17
REMARK    7  A    between atoms: N_17  and  C_18
REMARK    8  A    between atoms: C_18  and  C_19
REMARK                            x       y       z     vdW  Elec       q    Type
REMARK                         _______ _______ _______ _____ _____    ______ ____
ROOT
ATOM      1  O   UNL     1       1.528   5.069  19.162  0.00  0.00    +0.000 OA
ATOM      2  C   UNL     1       2.317   5.878  19.656  0.00  0.00    +0.000 C 
ATOM      3  N   UNL     1       3.646   5.944  19.274  0.00  0.00    +0.000 N 
ATOM      4  H   UNL     1       4.344   6.381  19.875  0.00  0.00    +0.000 HD
ENDROOT
BRANCH   3   5
ATOM      5  N   UNL     1       4.110   4.919  18.437  0.00  0.00    +0.000 N 
ATOM      6  H   UNL     1       3.809   4.981  17.466  0.00  0.00    +0.000 HD
BRANCH   5   7
ATOM      7  C   UNL     1       4.860   3.870  18.900  0.00  0.00    +0.000 C 
ATOM      8  S   UNL     1       4.306   2.697  19.952  0.00  0.00    +0.000 S 
BRANCH   7   9
ATOM      9  N   UNL     1       6.135   3.793  18.418  0.00  0.00    +0.000 N 
ATOM     10  H   UNL     1       6.531   2.862  18.357  0.00  0.00    +0.000 HD
BRANCH   9  11
ATOM     11  C   UNL     1       6.795   4.840  17.660  0.00  0.00    +0.000 C 
BRANCH  11  12
ATOM     12  C   UNL     1       6.703   4.569  16.207  0.00  0.00    +0.000 A 
ATOM     13  C   UNL     1       5.903   3.729  15.459  0.00  0.00    +0.000 A 
ATOM     14  C   UNL     1       6.215   3.981  14.102  0.00  0.00    +0.000 A 
ATOM     15  C   UNL     1       7.202   4.937  14.109  0.00  0.00    +0.000 A 
ATOM     16  O   UNL     1       7.510   5.297  15.383  0.00  0.00    +0.000 OA
ENDBRANCH  11  12
ENDBRANCH   9  11
ENDBRANCH   7   9
ENDBRANCH   5   7
ENDBRANCH   3   5
BRANCH   2  17
ATOM     17  C   UNL     1       1.900   6.914  20.689  0.00  0.00    +0.000 C 
BRANCH  17  18
ATOM     18  O   UNL     1       1.544   8.138  20.059  0.00  0.00    +0.000 OA
BRANCH  18  19
ATOM     19  C   UNL     1       0.840   9.034  20.824  0.00  0.00    +0.000 A 
ATOM     20  C   UNL     1       0.318   8.749  22.090  0.00  0.00    +0.000 A 
ATOM     21  C   UNL     1      -0.383   9.722  22.811  0.00  0.00    +0.000 A 
ATOM     22  C   UNL     1      -0.567  10.992  22.270  0.00  0.00    +0.000 A 
ATOM     23 CL   UNL     1      -1.441  12.177  23.156  0.00  0.00    +0.000 Cl
ATOM     24  C   UNL     1      -0.038  11.304  21.022  0.00  0.00    +0.000 A 
ATOM     25  C   UNL     1       0.669  10.333  20.306  0.00  0.00    +0.000 A 
ATOM     26 CL   UNL     1       1.305  10.773  18.759  0.00  0.00    +0.000 Cl
ENDBRANCH  18  19
ENDBRANCH  17  18
ENDBRANCH   2  17
TORSDOF 8
ENDMDL
