MODEL 1
REMARK VINA RESULT:      -8.0      0.000      0.000
REMARK  Name = 
REMARK  6 active torsions:
REMARK  status: ('A' for Active; 'I' for Inactive)
REMARK    1  A    between atoms: S_2  and  C_3
REMARK    2  A    between atoms: S_2  and  N_9
REMARK    3  A    between atoms: N_9  and  C_10
REMARK    4  A    between atoms: N_9  and  S_17
REMARK    5  A    between atoms: C_10  and  C_11
REMARK    6  A    between atoms: S_17  and  C_18
REMARK                            x       y       z     vdW  Elec       q    Type
REMARK                         _______ _______ _______ _____ _____    ______ ____
ROOT
ATOM      1  N   UNL     1       3.282   5.303  17.552  0.00  0.00    +0.000 NA
ENDROOT
BRANCH   1   3
ATOM      2  O   UNL     1       2.282   2.953  16.560  0.00  0.00    +0.000 OA
ATOM      3  S   UNL     1       2.007   4.165  17.522  0.00  0.00    +0.000 S 
BRANCH   3   4
ATOM      4  C   UNL     1       2.186   3.537  19.216  0.00  0.00    +0.000 A 
ATOM      5  C   UNL     1       1.149   3.745  20.136  0.00  0.00    +0.000 A 
ATOM      6  C   UNL     1       1.246   3.261  21.441  0.00  0.00    +0.000 A 
ATOM      7  C   UNL     1       2.388   2.574  21.841  0.00  0.00    +0.000 A 
ATOM      8  C   UNL     1       3.439   2.381  20.942  0.00  0.00    +0.000 A 
ATOM      9  C   UNL     1       3.345   2.870  19.634  0.00  0.00    +0.000 A 
ENDBRANCH   3   4
ENDBRANCH   1   3
BRANCH   1  10
ATOM     10  C   UNL     1       3.456   6.082  18.809  0.00  0.00    +0.000 C 
BRANCH  10  11
ATOM     11  C   UNL     1       2.563   7.302  18.967  0.00  0.00    +0.000 A 
ATOM     12  C   UNL     1       1.934   7.597  20.187  0.00  0.00    +0.000 A 
ATOM     13  C   UNL     1       1.161   8.755  20.317  0.00  0.00    +0.000 A 
ATOM     14  C   UNL     1       1.018   9.628  19.240  0.00  0.00    +0.000 A 
ATOM     15  C   UNL     1       1.641   9.346  18.027  0.00  0.00    +0.000 A 
ATOM     16  C   UNL     1       2.410   8.190  17.893  0.00  0.00    +0.000 A 
ENDBRANCH  10  11
ENDBRANCH   1  10
BRANCH   1  17
ATOM     17  S   UNL     1       4.678   4.523  16.967  0.00  0.00    +0.000 S 
BRANCH  17  18
ATOM     18  C   UNL     1       6.025   5.533  17.565  0.00  0.00    +0.000 A 
ATOM     19  C   UNL     1       6.820   5.127  18.640  0.00  0.00    +0.000 A 
ATOM     20  C   UNL     1       7.845   5.956  19.103  0.00  0.00    +0.000 A 
ATOM     21  C   UNL     1       8.083   7.186  18.490  0.00  0.00    +0.000 A 
ATOM     22  C   UNL     1       7.304   7.586  17.407  0.00  0.00    +0.000 A 
ATOM     23  C   UNL     1       6.281   6.761  16.942  0.00  0.00    +0.000 A 
ENDBRANCH  17  18
ENDBRANCH   1  17
TORSDOF 6
ENDMDL
MODEL 2
REMARK VINA RESULT:      -8.0      0.085      1.011
REMARK  Name = 
REMARK  6 active torsions:
REMARK  status: ('A' for Active; 'I' for Inactive)
REMARK    1  A    between atoms: S_2  and  C_3
REMARK    2  A    between atoms: S_2  and  N_9
REMARK    3  A    between atoms: N_9  and  C_10
REMARK    4  A    between atoms: N_9  and  S_17
REMARK    5  A    between atoms: C_10  and  C_11
REMARK    6  A    between atoms: S_17  and  C_18
REMARK                            x       y       z     vdW  Elec       q    Type
REMARK                         _______ _______ _______ _____ _____    ______ ____
ROOT
ATOM      1  N   UNL     1       3.217   5.359  17.584  0.00  0.00    +0.000 NA
ENDROOT
BRANCH   1   3
ATOM      2  O   UNL     1       2.138   3.049  16.579  0.00  0.00    +0.000 OA
ATOM      3  S   UNL     1       1.921   4.245  17.577  0.00  0.00    +0.000 S 
BRANCH   3   4
ATOM      4  C   UNL     1       2.152   3.576  19.249  0.00  0.00    +0.000 A 
ATOM      5  C   UNL     1       1.140   3.755  20.203  0.00  0.00    +0.000 A 
ATOM      6  C   UNL     1       1.277   3.240  21.493  0.00  0.00    +0.000 A 
ATOM      7  C   UNL     1       2.433   2.549  21.843  0.00  0.00    +0.000 A 
ATOM      8  C   UNL     1       3.458   2.383  20.909  0.00  0.00    +0.000 A 
ATOM      9  C   UNL     1       3.325   2.904  19.617  0.00  0.00    +0.000 A 
ENDBRANCH   3   4
ENDBRANCH   1   3
BRANCH   1  10
ATOM     10  C   UNL     1       3.417   6.146  18.831  0.00  0.00    +0.000 C 
BRANCH  10  11
ATOM     11  C   UNL     1       2.565   7.397  18.975  0.00  0.00    +0.000 A 
ATOM     12  C   UNL     1       2.356   8.271  17.897  0.00  0.00    +0.000 A 
ATOM     13  C   UNL     1       1.524   9.385  18.045  0.00  0.00    +0.000 A 
ATOM     14  C   UNL     1       0.891   9.630  19.262  0.00  0.00    +0.000 A 
ATOM     15  C   UNL     1       1.090   8.768  20.337  0.00  0.00    +0.000 A 
ATOM     16  C   UNL     1       1.921   7.658  20.194  0.00  0.00    +0.000 A 
ENDBRANCH  10  11
ENDBRANCH   1  10
BRANCH   1  17
ATOM     17  S   UNL     1       4.594   4.547  16.994  0.00  0.00    +0.000 S 
BRANCH  17  18
ATOM     18  C   UNL     1       5.965   5.530  17.582  0.00  0.00    +0.000 A 
ATOM     19  C   UNL     1       6.764   5.104  18.646  0.00  0.00    +0.000 A 
ATOM     20  C   UNL     1       7.809   5.911  19.102  0.00  0.00    +0.000 A 
ATOM     21  C   UNL     1       8.063   7.140  18.493  0.00  0.00    +0.000 A 
ATOM     22  C   UNL     1       7.279   7.561  17.421  0.00  0.00    +0.000 A 
ATOM     23  C   UNL     1       6.236   6.757  16.963  0.00  0.00    +0.000 A 
ENDBRANCH  17  18
ENDBRANCH   1  17
TORSDOF 6
ENDMDL
MODEL 3
REMARK VINA RESULT:      -7.8      0.867      1.673
REMARK  Name = 
REMARK  6 active torsions:
REMARK  status: ('A' for Active; 'I' for Inactive)
REMARK    1  A    between atoms: S_2  and  C_3
REMARK    2  A    between atoms: S_2  and  N_9
REMARK    3  A    between atoms: N_9  and  C_10
REMARK    4  A    between atoms: N_9  and  S_17
REMARK    5  A    between atoms: C_10  and  C_11
REMARK    6  A    between atoms: S_17  and  C_18
REMARK                            x       y       z     vdW  Elec       q    Type
REMARK                         _______ _______ _______ _____ _____    ______ ____
ROOT
ATOM      1  N   UNL     1       3.737   4.536  17.294  0.00  0.00    +0.000 NA
ENDROOT
BRANCH   1   3
ATOM      2  O   UNL     1       4.186   1.834  17.308  0.00  0.00    +0.000 OA
ATOM      3  S   UNL     1       3.086   2.957  17.339  0.00  0.00    +0.000 S 
BRANCH   3   4
ATOM      4  C   UNL     1       2.432   3.000  19.032  0.00  0.00    +0.000 A 
ATOM      5  C   UNL     1       3.246   2.575  20.091  0.00  0.00    +0.000 A 
ATOM      6  C   UNL     1       2.781   2.611  21.406  0.00  0.00    +0.000 A 
ATOM      7  C   UNL     1       1.492   3.062  21.673  0.00  0.00    +0.000 A 
ATOM      8  C   UNL     1       0.662   3.465  20.624  0.00  0.00    +0.000 A 
ATOM      9  C   UNL     1       1.125   3.425  19.305  0.00  0.00    +0.000 A 
ENDBRANCH   3   4
ENDBRANCH   1   3
BRANCH   1  10
ATOM     10  C   UNL     1       3.887   5.237  18.599  0.00  0.00    +0.000 C 
BRANCH  10  11
ATOM     11  C   UNL     1       3.120   6.541  18.749  0.00  0.00    +0.000 A 
ATOM     12  C   UNL     1       3.073   7.488  17.714  0.00  0.00    +0.000 A 
ATOM     13  C   UNL     1       2.316   8.654  17.861  0.00  0.00    +0.000 A 
ATOM     14  C   UNL     1       1.596   8.880  19.033  0.00  0.00    +0.000 A 
ATOM     15  C   UNL     1       1.634   7.945  20.064  0.00  0.00    +0.000 A 
ATOM     16  C   UNL     1       2.391   6.782  19.922  0.00  0.00    +0.000 A 
ENDBRANCH  10  11
ENDBRANCH   1  10
BRANCH   1  17
ATOM     17  S   UNL     1       5.132   4.488  16.317  0.00  0.00    +0.000 S 
BRANCH  17  18
ATOM     18  C   UNL     1       6.325   5.471  17.211  0.00  0.00    +0.000 A 
ATOM     19  C   UNL     1       7.026   4.953  18.303  0.00  0.00    +0.000 A 
ATOM     20  C   UNL     1       7.930   5.759  19.001  0.00  0.00    +0.000 A 
ATOM     21  C   UNL     1       8.140   7.080  18.605  0.00  0.00    +0.000 A 
ATOM     22  C   UNL     1       7.456   7.595  17.507  0.00  0.00    +0.000 A 
ATOM     23  C   UNL     1       6.554   6.793  16.808  0.00  0.00    +0.000 A 
ENDBRANCH  17  18
ENDBRANCH   1  17
TORSDOF 6
ENDMDL
MODEL 4
REMARK VINA RESULT:      -7.8      0.838      1.289
REMARK  Name = 
REMARK  6 active torsions:
REMARK  status: ('A' for Active; 'I' for Inactive)
REMARK    1  A    between atoms: S_2  and  C_3
REMARK    2  A    between atoms: S_2  and  N_9
REMARK    3  A    between atoms: N_9  and  C_10
REMARK    4  A    between atoms: N_9  and  S_17
REMARK    5  A    between atoms: C_10  and  C_11
REMARK    6  A    between atoms: S_17  and  C_18
REMARK                            x       y       z     vdW  Elec       q    Type
REMARK                         _______ _______ _______ _____ _____    ______ ____
ROOT
ATOM      1  N   UNL     1       3.647   4.974  17.266  0.00  0.00    +0.000 NA
ENDROOT
BRANCH   1   3
ATOM      2  O   UNL     1       4.596   2.406  17.368  0.00  0.00    +0.000 OA
ATOM      3  S   UNL     1       3.305   3.300  17.314  0.00  0.00    +0.000 S 
BRANCH   3   4
ATOM      4  C   UNL     1       2.559   3.241  18.969  0.00  0.00    +0.000 A 
ATOM      5  C   UNL     1       3.319   2.759  20.044  0.00  0.00    +0.000 A 
ATOM      6  C   UNL     1       2.783   2.715  21.332  0.00  0.00    +0.000 A 
ATOM      7  C   UNL     1       1.478   3.144  21.554  0.00  0.00    +0.000 A 
ATOM      8  C   UNL     1       0.703   3.603  20.487  0.00  0.00    +0.000 A 
ATOM      9  C   UNL     1       1.237   3.643  19.194  0.00  0.00    +0.000 A 
ENDBRANCH   3   4
ENDBRANCH   1   3
BRANCH   1  10
ATOM     10  C   UNL     1       3.772   5.671  18.576  0.00  0.00    +0.000 C 
BRANCH  10  11
ATOM     11  C   UNL     1       2.897   6.899  18.765  0.00  0.00    +0.000 A 
ATOM     12  C   UNL     1       2.205   7.129  19.964  0.00  0.00    +0.000 A 
ATOM     13  C   UNL     1       1.450   8.294  20.128  0.00  0.00    +0.000 A 
ATOM     14  C   UNL     1       1.385   9.238  19.104  0.00  0.00    +0.000 A 
ATOM     15  C   UNL     1       2.070   9.020  17.912  0.00  0.00    +0.000 A 
ATOM     16  C   UNL     1       2.822   7.858  17.744  0.00  0.00    +0.000 A 
ENDBRANCH  10  11
ENDBRANCH   1  10
BRANCH   1  17
ATOM     17  S   UNL     1       4.942   5.201  16.183  0.00  0.00    +0.000 S 
BRANCH  17  18
ATOM     18  C   UNL     1       6.252   5.861  17.201  0.00  0.00    +0.000 A 
ATOM     19  C   UNL     1       6.874   5.087  18.185  0.00  0.00    +0.000 A 
ATOM     20  C   UNL     1       7.874   5.644  18.986  0.00  0.00    +0.000 A 
ATOM     21  C   UNL     1       8.260   6.971  18.802  0.00  0.00    +0.000 A 
ATOM     22  C   UNL     1       7.655   7.742  17.811  0.00  0.00    +0.000 A 
ATOM     23  C   UNL     1       6.658   7.189  17.009  0.00  0.00    +0.000 A 
ENDBRANCH  17  18
ENDBRANCH   1  17
TORSDOF 6
ENDMDL
MODEL 5
REMARK VINA RESULT:      -7.8      0.862      1.644
REMARK  Name = 
REMARK  6 active torsions:
REMARK  status: ('A' for Active; 'I' for Inactive)
REMARK    1  A    between atoms: S_2  and  C_3
REMARK    2  A    between atoms: S_2  and  N_9
REMARK    3  A    between atoms: N_9  and  C_10
REMARK    4  A    between atoms: N_9  and  S_17
REMARK    5  A    between atoms: C_10  and  C_11
REMARK    6  A    between atoms: S_17  and  C_18
REMARK                            x       y       z     vdW  Elec       q    Type
REMARK                         _______ _______ _______ _____ _____    ______ ____
ROOT
ATOM      1  N   UNL     1       3.708   4.731  17.272  0.00  0.00    +0.000 NA
ENDROOT
BRANCH   1   3
ATOM      2  O   UNL     1       4.420   2.087  17.355  0.00  0.00    +0.000 OA
ATOM      3  S   UNL     1       3.215   3.096  17.329  0.00  0.00    +0.000 S 
BRANCH   3   4
ATOM      4  C   UNL     1       2.503   3.102  18.998  0.00  0.00    +0.000 A 
ATOM      5  C   UNL     1       3.286   2.669  20.078  0.00  0.00    +0.000 A 
ATOM      6  C   UNL     1       2.776   2.676  21.376  0.00  0.00    +0.000 A 
ATOM      7  C   UNL     1       1.473   3.107  21.606  0.00  0.00    +0.000 A 
ATOM      8  C   UNL     1       0.674   3.518  20.537  0.00  0.00    +0.000 A 
ATOM      9  C   UNL     1       1.183   3.507  19.233  0.00  0.00    +0.000 A 
ENDBRANCH   3   4
ENDBRANCH   1   3
BRANCH   1  10
ATOM     10  C   UNL     1       3.837   5.438  18.577  0.00  0.00    +0.000 C 
BRANCH  10  11
ATOM     11  C   UNL     1       2.987   6.686  18.747  0.00  0.00    +0.000 A 
ATOM     12  C   UNL     1       2.294   6.945  19.940  0.00  0.00    +0.000 A 
ATOM     13  C   UNL     1       1.563   8.128  20.087  0.00  0.00    +0.000 A 
ATOM     14  C   UNL     1       1.524   9.061  19.052  0.00  0.00    +0.000 A 
ATOM     15  C   UNL     1       2.209   8.814  17.865  0.00  0.00    +0.000 A 
ATOM     16  C   UNL     1       2.937   7.634  17.715  0.00  0.00    +0.000 A 
ENDBRANCH  10  11
ENDBRANCH   1  10
BRANCH   1  17
ATOM     17  S   UNL     1       5.064   4.823  16.246  0.00  0.00    +0.000 S 
BRANCH  17  18
ATOM     18  C   UNL     1       6.277   5.718  17.204  0.00  0.00    +0.000 A 
ATOM     19  C   UNL     1       6.582   7.054  16.930  0.00  0.00    +0.000 A 
ATOM     20  C   UNL     1       7.559   7.715  17.679  0.00  0.00    +0.000 A 
ATOM     21  C   UNL     1       8.227   7.048  18.706  0.00  0.00    +0.000 A 
ATOM     22  C   UNL     1       7.913   5.722  18.993  0.00  0.00    +0.000 A 
ATOM     23  C   UNL     1       6.938   5.059  18.249  0.00  0.00    +0.000 A 
ENDBRANCH  17  18
ENDBRANCH   1  17
TORSDOF 6
ENDMDL
MODEL 6
REMARK VINA RESULT:      -7.8      0.865      1.372
REMARK  Name = 
REMARK  6 active torsions:
REMARK  status: ('A' for Active; 'I' for Inactive)
REMARK    1  A    between atoms: S_2  and  C_3
REMARK    2  A    between atoms: S_2  and  N_9
REMARK    3  A    between atoms: N_9  and  C_10
REMARK    4  A    between atoms: N_9  and  S_17
REMARK    5  A    between atoms: C_10  and  C_11
REMARK    6  A    between atoms: S_17  and  C_18
REMARK                            x       y       z     vdW  Elec       q    Type
REMARK                         _______ _______ _______ _____ _____    ______ ____
ROOT
ATOM      1  N   UNL     1       3.692   4.647  17.296  0.00  0.00    +0.000 NA
ENDROOT
BRANCH   1   3
ATOM      2  O   UNL     1       4.367   1.992  17.351  0.00  0.00    +0.000 OA
ATOM      3  S   UNL     1       3.176   3.019  17.360  0.00  0.00    +0.000 S 
BRANCH   3   4
ATOM      4  C   UNL     1       2.508   3.028  19.048  0.00  0.00    +0.000 A 
ATOM      5  C   UNL     1       1.176   3.416  19.254  0.00  0.00    +0.000 A 
ATOM      6  C   UNL     1       0.625   3.419  20.536  0.00  0.00    +0.000 A 
ATOM      7  C   UNL     1       1.406   3.043  21.626  0.00  0.00    +0.000 A 
ATOM      8  C   UNL     1       2.740   2.677  21.436  0.00  0.00    +0.000 A 
ATOM      9  C   UNL     1       3.295   2.679  20.152  0.00  0.00    +0.000 A 
ENDBRANCH   3   4
ENDBRANCH   1   3
BRANCH   1  10
ATOM     10  C   UNL     1       3.830   5.357  18.598  0.00  0.00    +0.000 C 
BRANCH  10  11
ATOM     11  C   UNL     1       2.986   6.609  18.768  0.00  0.00    +0.000 A 
ATOM     12  C   UNL     1       2.316   6.885  19.970  0.00  0.00    +0.000 A 
ATOM     13  C   UNL     1       1.590   8.071  20.115  0.00  0.00    +0.000 A 
ATOM     14  C   UNL     1       1.535   8.992  19.070  0.00  0.00    +0.000 A 
ATOM     15  C   UNL     1       2.199   8.729  17.875  0.00  0.00    +0.000 A 
ATOM     16  C   UNL     1       2.921   7.545  17.726  0.00  0.00    +0.000 A 
ENDBRANCH  10  11
ENDBRANCH   1  10
BRANCH   1  17
ATOM     17  S   UNL     1       5.049   4.715  16.270  0.00  0.00    +0.000 S 
BRANCH  17  18
ATOM     18  C   UNL     1       6.253   5.649  17.201  0.00  0.00    +0.000 A 
ATOM     19  C   UNL     1       6.521   6.990  16.909  0.00  0.00    +0.000 A 
ATOM     20  C   UNL     1       7.493   7.683  17.636  0.00  0.00    +0.000 A 
ATOM     21  C   UNL     1       8.192   7.043  18.659  0.00  0.00    +0.000 A 
ATOM     22  C   UNL     1       7.915   5.712  18.965  0.00  0.00    +0.000 A 
ATOM     23  C   UNL     1       6.946   5.017  18.242  0.00  0.00    +0.000 A 
ENDBRANCH  17  18
ENDBRANCH   1  17
TORSDOF 6
ENDMDL
MODEL 7
REMARK VINA RESULT:      -7.7      0.996      5.093
REMARK  Name = 
REMARK  6 active torsions:
REMARK  status: ('A' for Active; 'I' for Inactive)
REMARK    1  A    between atoms: S_2  and  C_3
REMARK    2  A    between atoms: S_2  and  N_9
REMARK    3  A    between atoms: N_9  and  C_10
REMARK    4  A    between atoms: N_9  and  S_17
REMARK    5  A    between atoms: C_10  and  C_11
REMARK    6  A    between atoms: S_17  and  C_18
REMARK                            x       y       z     vdW  Elec       q    Type
REMARK                         _______ _______ _______ _____ _____    ______ ____
ROOT
ATOM      1  N   UNL     1       3.861   5.179  17.541  0.00  0.00    +0.000 NA
ENDROOT
BRANCH   1   3
ATOM      2  O   UNL     1       5.299   4.789  15.242  0.00  0.00    +0.000 OA
ATOM      3  S   UNL     1       5.270   4.562  16.797  0.00  0.00    +0.000 S 
BRANCH   3   4
ATOM      4  C   UNL     1       6.467   5.722  17.516  0.00  0.00    +0.000 A 
ATOM      5  C   UNL     1       7.163   5.356  18.677  0.00  0.00    +0.000 A 
ATOM      6  C   UNL     1       8.102   6.216  19.246  0.00  0.00    +0.000 A 
ATOM      7  C   UNL     1       8.347   7.456  18.664  0.00  0.00    +0.000 A 
ATOM      8  C   UNL     1       7.644   7.843  17.521  0.00  0.00    +0.000 A 
ATOM      9  C   UNL     1       6.698   6.984  16.952  0.00  0.00    +0.000 A 
ENDBRANCH   3   4
ENDBRANCH   1   3
BRANCH   1  10
ATOM     10  C   UNL     1       3.459   6.564  17.169  0.00  0.00    +0.000 C 
BRANCH  10  11
ATOM     11  C   UNL     1       2.649   7.325  18.206  0.00  0.00    +0.000 A 
ATOM     12  C   UNL     1       2.545   6.874  19.531  0.00  0.00    +0.000 A 
ATOM     13  C   UNL     1       1.837   7.624  20.476  0.00  0.00    +0.000 A 
ATOM     14  C   UNL     1       1.237   8.828  20.109  0.00  0.00    +0.000 A 
ATOM     15  C   UNL     1       1.337   9.284  18.798  0.00  0.00    +0.000 A 
ATOM     16  C   UNL     1       2.040   8.538  17.853  0.00  0.00    +0.000 A 
ENDBRANCH  10  11
ENDBRANCH   1  10
BRANCH   1  17
ATOM     17  S   UNL     1       2.646   3.994  17.401  0.00  0.00    +0.000 S 
BRANCH  17  18
ATOM     18  C   UNL     1       2.371   3.451  19.080  0.00  0.00    +0.000 A 
ATOM     19  C   UNL     1       3.418   2.976  19.874  0.00  0.00    +0.000 A 
ATOM     20  C   UNL     1       3.162   2.529  21.173  0.00  0.00    +0.000 A 
ATOM     21  C   UNL     1       1.865   2.562  21.684  0.00  0.00    +0.000 A 
ATOM     22  C   UNL     1       0.821   3.051  20.901  0.00  0.00    +0.000 A 
ATOM     23  C   UNL     1       1.073   3.499  19.605  0.00  0.00    +0.000 A 
ENDBRANCH  17  18
ENDBRANCH   1  17
TORSDOF 6
ENDMDL
MODEL 8
REMARK VINA RESULT:      -7.6      0.988      5.140
REMARK  Name = 
REMARK  6 active torsions:
REMARK  status: ('A' for Active; 'I' for Inactive)
REMARK    1  A    between atoms: S_2  and  C_3
REMARK    2  A    between atoms: S_2  and  N_9
REMARK    3  A    between atoms: N_9  and  C_10
REMARK    4  A    between atoms: N_9  and  S_17
REMARK    5  A    between atoms: C_10  and  C_11
REMARK    6  A    between atoms: S_17  and  C_18
REMARK                            x       y       z     vdW  Elec       q    Type
REMARK                         _______ _______ _______ _____ _____    ______ ____
ROOT
ATOM      1  N   UNL     1       3.811   5.153  17.485  0.00  0.00    +0.000 NA
ENDROOT
BRANCH   1   3
ATOM      2  O   UNL     1       5.262   4.837  15.183  0.00  0.00    +0.000 OA
ATOM      3  S   UNL     1       5.204   4.523  16.723  0.00  0.00    +0.000 S 
BRANCH   3   4
ATOM      4  C   UNL     1       6.436   5.593  17.520  0.00  0.00    +0.000 A 
ATOM      5  C   UNL     1       6.769   6.817  16.923  0.00  0.00    +0.000 A 
ATOM      6  C   UNL     1       7.699   7.670  17.517  0.00  0.00    +0.000 A 
ATOM      7  C   UNL     1       8.313   7.302  18.710  0.00  0.00    +0.000 A 
ATOM      8  C   UNL     1       8.008   6.075  19.303  0.00  0.00    +0.000 A 
ATOM      9  C   UNL     1       7.079   5.216  18.706  0.00  0.00    +0.000 A 
ENDBRANCH   3   4
ENDBRANCH   1   3
BRANCH   1  10
ATOM     10  C   UNL     1       3.420   6.544  17.125  0.00  0.00    +0.000 C 
BRANCH  10  11
ATOM     11  C   UNL     1       2.685   7.330  18.198  0.00  0.00    +0.000 A 
ATOM     12  C   UNL     1       2.026   8.534  17.904  0.00  0.00    +0.000 A 
ATOM     13  C   UNL     1       1.313   9.208  18.900  0.00  0.00    +0.000 A 
ATOM     14  C   UNL     1       1.244   8.684  20.190  0.00  0.00    +0.000 A 
ATOM     15  C   UNL     1       1.892   7.488  20.491  0.00  0.00    +0.000 A 
ATOM     16  C   UNL     1       2.606   6.816  19.500  0.00  0.00    +0.000 A 
ENDBRANCH  10  11
ENDBRANCH   1  10
BRANCH   1  17
ATOM     17  S   UNL     1       2.580   3.983  17.352  0.00  0.00    +0.000 S 
BRANCH  17  18
ATOM     18  C   UNL     1       2.321   3.429  19.030  0.00  0.00    +0.000 A 
ATOM     19  C   UNL     1       1.048   3.412  19.605  0.00  0.00    +0.000 A 
ATOM     20  C   UNL     1       0.884   3.003  20.931  0.00  0.00    +0.000 A 
ATOM     21  C   UNL     1       1.989   2.603  21.682  0.00  0.00    +0.000 A 
ATOM     22  C   UNL     1       3.258   2.602  21.108  0.00  0.00    +0.000 A 
ATOM     23  C   UNL     1       3.425   3.009  19.785  0.00  0.00    +0.000 A 
ENDBRANCH  17  18
ENDBRANCH   1  17
TORSDOF 6
ENDMDL
MODEL 9
REMARK VINA RESULT:      -7.6      0.476      1.800
REMARK  Name = 
REMARK  6 active torsions:
REMARK  status: ('A' for Active; 'I' for Inactive)
REMARK    1  A    between atoms: S_2  and  C_3
REMARK    2  A    between atoms: S_2  and  N_9
REMARK    3  A    between atoms: N_9  and  C_10
REMARK    4  A    between atoms: N_9  and  S_17
REMARK    5  A    between atoms: C_10  and  C_11
REMARK    6  A    between atoms: S_17  and  C_18
REMARK                            x       y       z     vdW  Elec       q    Type
REMARK                         _______ _______ _______ _____ _____    ______ ____
ROOT
ATOM      1  N   UNL     1       3.517   4.889  17.399  0.00  0.00    +0.000 NA
ENDROOT
BRANCH   1   3
ATOM      2  O   UNL     1       3.152   2.254  16.743  0.00  0.00    +0.000 OA
ATOM      3  S   UNL     1       2.468   3.541  17.332  0.00  0.00    +0.000 S 
BRANCH   3   4
ATOM      4  C   UNL     1       2.291   3.267  19.118  0.00  0.00    +0.000 A 
ATOM      5  C   UNL     1       3.338   2.658  19.824  0.00  0.00    +0.000 A 
ATOM      6  C   UNL     1       3.243   2.447  21.200  0.00  0.00    +0.000 A 
ATOM      7  C   UNL     1       2.093   2.836  21.881  0.00  0.00    +0.000 A 
ATOM      8  C   UNL     1       1.033   3.423  21.186  0.00  0.00    +0.000 A 
ATOM      9  C   UNL     1       1.126   3.630  19.806  0.00  0.00    +0.000 A 
ENDBRANCH   3   4
ENDBRANCH   1   3
BRANCH   1  10
ATOM     10  C   UNL     1       3.618   5.595  18.706  0.00  0.00    +0.000 C 
BRANCH  10  11
ATOM     11  C   UNL     1       2.869   6.914  18.811  0.00  0.00    +0.000 A 
ATOM     12  C   UNL     1       2.808   7.812  17.734  0.00  0.00    +0.000 A 
ATOM     13  C   UNL     1       2.067   8.993  17.843  0.00  0.00    +0.000 A 
ATOM     14  C   UNL     1       1.377   9.281  19.019  0.00  0.00    +0.000 A 
ATOM     15  C   UNL     1       1.428   8.395  20.092  0.00  0.00    +0.000 A 
ATOM     16  C   UNL     1       2.169   7.218  19.988  0.00  0.00    +0.000 A 
ENDBRANCH  10  11
ENDBRANCH   1  10
BRANCH   1  17
ATOM     17  S   UNL     1       4.996   4.422  16.696  0.00  0.00    +0.000 S 
BRANCH  17  18
ATOM     18  C   UNL     1       6.189   5.550  17.399  0.00  0.00    +0.000 A 
ATOM     19  C   UNL     1       6.358   6.842  16.894  0.00  0.00    +0.000 A 
ATOM     20  C   UNL     1       7.322   7.689  17.447  0.00  0.00    +0.000 A 
ATOM     21  C   UNL     1       8.113   7.251  18.509  0.00  0.00    +0.000 A 
ATOM     22  C   UNL     1       7.935   5.970  19.028  0.00  0.00    +0.000 A 
ATOM     23  C   UNL     1       6.974   5.123  18.478  0.00  0.00    +0.000 A 
ENDBRANCH  17  18
ENDBRANCH   1  17
TORSDOF 6
ENDMDL
