MODEL 1
REMARK VINA RESULT:      -7.5      0.000      0.000
REMARK  Name = 
REMARK  6 active torsions:
REMARK  status: ('A' for Active; 'I' for Inactive)
REMARK    1  A    between atoms: C_1  and  C_2
REMARK    2  A    between atoms: C_7  and  C_8
REMARK    3  A    between atoms: C_9  and  O_10
REMARK    4  A    between atoms: O_10  and  C_11
REMARK    5  A    between atoms: C_12  and  C_13
REMARK    6  A    between atoms: N_27  and  C_28
REMARK                            x       y       z     vdW  Elec       q    Type
REMARK                         _______ _______ _______ _____ _____    ______ ____
ROOT
ATOM      1  C   UNL     1      -3.129  12.656  20.128  0.00  0.00    +0.000 A 
ATOM      2  C   UNL     1      -3.966  12.594  21.254  0.00  0.00    +0.000 A 
ATOM      3  C   UNL     1      -5.241  12.214  20.766  0.00  0.00    +0.000 A 
ATOM      4  N   UNL     1      -6.353  11.814  21.419  0.00  0.00    +0.000 NA
ATOM      5  C   UNL     1      -7.490  12.006  20.732  0.00  0.00    +0.000 A 
ATOM      6  C   UNL     1      -7.588  12.737  19.549  0.00  0.00    +0.000 A 
ATOM      7  C   UNL     1      -6.426  13.092  18.862  0.00  0.00    +0.000 A 
ATOM      8  C   UNL     1      -5.245  12.634  19.447  0.00  0.00    +0.000 A 
ATOM      9  N   UNL     1      -3.963  12.288  19.035  0.00  0.00    +0.000 N 
ENDROOT
BRANCH   2  10
ATOM     10  C   UNL     1      -3.642  12.835  22.648  0.00  0.00    +0.000 C 
ATOM     11  O   UNL     1      -3.153  11.932  23.329  0.00  0.00    +0.000 OA
ATOM     12  N   UNL     1      -3.891  14.112  23.181  0.00  0.00    +0.000 N 
ATOM     13  C   UNL     1      -3.676  14.346  24.608  0.00  0.00    +0.000 C 
ATOM     14  C   UNL     1      -2.756  15.557  24.871  0.00  0.00    +0.000 C 
ATOM     15  N   UNL     1      -3.177  16.793  24.175  0.00  0.00    +0.000 NA
ATOM     16  C   UNL     1      -3.396  16.525  22.740  0.00  0.00    +0.000 C 
ATOM     17  C   UNL     1      -4.329  15.324  22.460  0.00  0.00    +0.000 C 
ATOM     18  H   UNL     1      -2.461  17.502  24.283  0.00  0.00    +0.000 HD
ENDBRANCH   2  10
BRANCH   9  19
ATOM     19  C   UNL     1      -3.697  11.353  17.957  0.00  0.00    +0.000 A 
ATOM     20  C   UNL     1      -2.601  10.464  18.065  0.00  0.00    +0.000 A 
ATOM     21  C   UNL     1      -2.076   9.808  16.944  0.00  0.00    +0.000 A 
ATOM     22  C   UNL     1      -2.660   9.995  15.696  0.00  0.00    +0.000 A 
ATOM     23  C   UNL     1      -3.798  10.794  15.587  0.00  0.00    +0.000 A 
ATOM     24  C   UNL     1      -4.315  11.466  16.710  0.00  0.00    +0.000 A 
ENDBRANCH   9  19
BRANCH   1  25
ATOM     25  O   UNL     1      -1.817  12.863  19.952  0.00  0.00    +0.000 OA
BRANCH  25  34
ATOM     26  C   UNL     1      -0.528  10.363  21.147  0.00  0.00    +0.000 C 
ATOM     27  C   UNL     1      -0.035  11.705  20.717  0.00  0.00    +0.000 A 
ATOM     28  C   UNL     1       1.146  11.887  19.985  0.00  0.00    +0.000 A 
ATOM     29  C   UNL     1       1.645  13.177  19.795  0.00  0.00    +0.000 A 
ATOM     30  C   UNL     1       1.068  14.216  20.491  0.00  0.00    +0.000 A 
ATOM     31  F   UNL     1       1.735  15.378  20.623  0.00  0.00    +0.000 F 
ATOM     32  C   UNL     1      -0.083  13.994  21.235  0.00  0.00    +0.000 A 
ATOM     33  C   UNL     1      -0.170  14.646  22.581  0.00  0.00    +0.000 C 
ATOM     34  C   UNL     1      -0.808  12.838  20.971  0.00  0.00    +0.000 A 
ENDBRANCH  25  34
ENDBRANCH   1  25
TORSDOF 4
ENDMDL
MODEL 2
REMARK VINA RESULT:      -7.3      2.371      5.143
REMARK  Name = 
REMARK  6 active torsions:
REMARK  status: ('A' for Active; 'I' for Inactive)
REMARK    1  A    between atoms: C_1  and  C_2
REMARK    2  A    between atoms: C_7  and  C_8
REMARK    3  A    between atoms: C_9  and  O_10
REMARK    4  A    between atoms: O_10  and  C_11
REMARK    5  A    between atoms: C_12  and  C_13
REMARK    6  A    between atoms: N_27  and  C_28
REMARK                            x       y       z     vdW  Elec       q    Type
REMARK                         _______ _______ _______ _____ _____    ______ ____
ROOT
ATOM      1  C   UNL     1      -3.178  12.277  19.920  0.00  0.00    +0.000 A 
ATOM      2  C   UNL     1      -2.344  13.372  20.196  0.00  0.00    +0.000 A 
ATOM      3  C   UNL     1      -1.191  13.190  19.393  0.00  0.00    +0.000 A 
ATOM      4  N   UNL     1      -0.171  14.028  19.109  0.00  0.00    +0.000 NA
ATOM      5  C   UNL     1       0.963  13.409  18.745  0.00  0.00    +0.000 A 
ATOM      6  C   UNL     1       1.181  12.035  18.842  0.00  0.00    +0.000 A 
ATOM      7  C   UNL     1       0.103  11.183  19.082  0.00  0.00    +0.000 A 
ATOM      8  C   UNL     1      -1.133  11.825  19.176  0.00  0.00    +0.000 A 
ATOM      9  N   UNL     1      -2.469  11.516  18.948  0.00  0.00    +0.000 N 
ENDROOT
BRANCH   2  10
ATOM     10  C   UNL     1      -2.573  14.495  21.088  0.00  0.00    +0.000 C 
ATOM     11  O   UNL     1      -2.719  15.627  20.623  0.00  0.00    +0.000 OA
ATOM     12  N   UNL     1      -2.633  14.248  22.471  0.00  0.00    +0.000 N 
ATOM     13  C   UNL     1      -2.752  15.375  23.393  0.00  0.00    +0.000 C 
ATOM     14  C   UNL     1      -3.938  15.212  24.367  0.00  0.00    +0.000 C 
ATOM     15  N   UNL     1      -3.952  13.917  25.085  0.00  0.00    +0.000 NA
ATOM     16  C   UNL     1      -3.819  12.799  24.130  0.00  0.00    +0.000 C 
ATOM     17  C   UNL     1      -2.625  12.941  23.157  0.00  0.00    +0.000 C 
ATOM     18  H   UNL     1      -4.820  13.825  25.599  0.00  0.00    +0.000 HD
ENDBRANCH   2  10
BRANCH   9  19
ATOM     19  C   UNL     1      -2.954  10.940  17.708  0.00  0.00    +0.000 A 
ATOM     20  C   UNL     1      -2.294   9.813  17.162  0.00  0.00    +0.000 A 
ATOM     21  C   UNL     1      -2.469   9.438  15.823  0.00  0.00    +0.000 A 
ATOM     22  C   UNL     1      -3.339  10.156  15.012  0.00  0.00    +0.000 A 
ATOM     23  C   UNL     1      -4.070  11.211  15.558  0.00  0.00    +0.000 A 
ATOM     24  C   UNL     1      -3.881  11.598  16.897  0.00  0.00    +0.000 A 
ENDBRANCH   9  19
BRANCH   1  25
ATOM     25  O   UNL     1      -4.421  11.936  20.286  0.00  0.00    +0.000 OA
BRANCH  25  34
ATOM     26  C   UNL     1      -6.733  10.705  18.710  0.00  0.00    +0.000 C 
ATOM     27  C   UNL     1      -6.621  11.619  19.886  0.00  0.00    +0.000 A 
ATOM     28  C   UNL     1      -7.418  11.490  21.031  0.00  0.00    +0.000 A 
ATOM     29  C   UNL     1      -7.397  12.497  21.999  0.00  0.00    +0.000 A 
ATOM     30  C   UNL     1      -6.743  13.674  21.711  0.00  0.00    +0.000 A 
ATOM     31  F   UNL     1      -7.009  14.777  22.438  0.00  0.00    +0.000 F 
ATOM     32  C   UNL     1      -5.990  13.780  20.550  0.00  0.00    +0.000 A 
ATOM     33  C   UNL     1      -6.090  15.061  19.779  0.00  0.00    +0.000 C 
ATOM     34  C   UNL     1      -5.633  12.603  19.904  0.00  0.00    +0.000 A 
ENDBRANCH  25  34
ENDBRANCH   1  25
TORSDOF 4
ENDMDL
MODEL 3
REMARK VINA RESULT:      -7.2      2.791      6.512
REMARK  Name = 
REMARK  6 active torsions:
REMARK  status: ('A' for Active; 'I' for Inactive)
REMARK    1  A    between atoms: C_1  and  C_2
REMARK    2  A    between atoms: C_7  and  C_8
REMARK    3  A    between atoms: C_9  and  O_10
REMARK    4  A    between atoms: O_10  and  C_11
REMARK    5  A    between atoms: C_12  and  C_13
REMARK    6  A    between atoms: N_27  and  C_28
REMARK                            x       y       z     vdW  Elec       q    Type
REMARK                         _______ _______ _______ _____ _____    ______ ____
ROOT
ATOM      1  C   UNL     1      -0.134  13.581  18.924  0.00  0.00    +0.000 A 
ATOM      2  C   UNL     1      -1.006  12.636  19.487  0.00  0.00    +0.000 A 
ATOM      3  C   UNL     1      -0.201  11.516  19.814  0.00  0.00    +0.000 A 
ATOM      4  N   UNL     1      -0.472  10.419  20.552  0.00  0.00    +0.000 NA
ATOM      5  C   UNL     1       0.298   9.359  20.262  0.00  0.00    +0.000 A 
ATOM      6  C   UNL     1       1.162   9.282  19.170  0.00  0.00    +0.000 A 
ATOM      7  C   UNL     1       1.471  10.440  18.455  0.00  0.00    +0.000 A 
ATOM      8  C   UNL     1       0.877  11.602  18.950  0.00  0.00    +0.000 A 
ATOM      9  N   UNL     1       1.148  12.965  18.968  0.00  0.00    +0.000 N 
ENDROOT
BRANCH   2  10
ATOM     10  C   UNL     1      -2.433  12.739  19.729  0.00  0.00    +0.000 C 
ATOM     11  O   UNL     1      -2.856  13.521  20.583  0.00  0.00    +0.000 OA
ATOM     12  N   UNL     1      -3.301  11.938  18.965  0.00  0.00    +0.000 N 
ATOM     13  C   UNL     1      -4.730  11.944  19.267  0.00  0.00    +0.000 C 
ATOM     14  C   UNL     1      -5.590  12.244  18.021  0.00  0.00    +0.000 C 
ATOM     15  N   UNL     1      -5.283  11.383  16.857  0.00  0.00    +0.000 NA
ATOM     16  C   UNL     1      -3.833  11.388  16.582  0.00  0.00    +0.000 C 
ATOM     17  C   UNL     1      -2.958  11.074  17.818  0.00  0.00    +0.000 C 
ATOM     18  H   UNL     1      -5.785  11.722  16.045  0.00  0.00    +0.000 HD
ENDBRANCH   2  10
BRANCH   9  19
ATOM     19  C   UNL     1       2.414  13.520  19.411  0.00  0.00    +0.000 A 
ATOM     20  C   UNL     1       2.589  13.842  20.778  0.00  0.00    +0.000 A 
ATOM     21  C   UNL     1       3.616  14.696  21.204  0.00  0.00    +0.000 A 
ATOM     22  C   UNL     1       4.514  15.214  20.278  0.00  0.00    +0.000 A 
ATOM     23  C   UNL     1       4.413  14.832  18.941  0.00  0.00    +0.000 A 
ATOM     24  C   UNL     1       3.372  13.989  18.511  0.00  0.00    +0.000 A 
ENDBRANCH   9  19
BRANCH   1  25
ATOM     25  O   UNL     1      -0.273  14.849  18.512  0.00  0.00    +0.000 OA
BRANCH  25  34
ATOM     26  C   UNL     1       1.637  17.146  17.867  0.00  0.00    +0.000 C 
ATOM     27  C   UNL     1       0.248  17.044  18.405  0.00  0.00    +0.000 A 
ATOM     28  C   UNL     1      -0.797  17.880  17.987  0.00  0.00    +0.000 A 
ATOM     29  C   UNL     1      -2.010  17.859  18.677  0.00  0.00    +0.000 A 
ATOM     30  C   UNL     1      -2.083  17.161  19.861  0.00  0.00    +0.000 A 
ATOM     31  F   UNL     1      -3.087  17.416  20.722  0.00  0.00    +0.000 F 
ATOM     32  C   UNL     1      -1.017  16.369  20.264  0.00  0.00    +0.000 A 
ATOM     33  C   UNL     1      -0.639  16.406  21.714  0.00  0.00    +0.000 C 
ATOM     34  C   UNL     1      -0.070  16.028  19.305  0.00  0.00    +0.000 A 
ENDBRANCH  25  34
ENDBRANCH   1  25
TORSDOF 4
ENDMDL
MODEL 4
REMARK VINA RESULT:      -7.1      3.219      6.470
REMARK  Name = 
REMARK  6 active torsions:
REMARK  status: ('A' for Active; 'I' for Inactive)
REMARK    1  A    between atoms: C_1  and  C_2
REMARK    2  A    between atoms: C_7  and  C_8
REMARK    3  A    between atoms: C_9  and  O_10
REMARK    4  A    between atoms: O_10  and  C_11
REMARK    5  A    between atoms: C_12  and  C_13
REMARK    6  A    between atoms: N_27  and  C_28
REMARK                            x       y       z     vdW  Elec       q    Type
REMARK                         _______ _______ _______ _____ _____    ______ ____
ROOT
ATOM      1  C   UNL     1      -1.420  13.405  21.270  0.00  0.00    +0.000 A 
ATOM      2  C   UNL     1      -0.678  12.597  20.394  0.00  0.00    +0.000 A 
ATOM      3  C   UNL     1      -0.823  11.273  20.875  0.00  0.00    +0.000 A 
ATOM      4  N   UNL     1      -0.498  10.088  20.315  0.00  0.00    +0.000 NA
ATOM      5  C   UNL     1      -0.308   9.096  21.199  0.00  0.00    +0.000 A 
ATOM      6  C   UNL     1      -0.233   9.271  22.580  0.00  0.00    +0.000 A 
ATOM      7  C   UNL     1      -0.627  10.486  23.143  0.00  0.00    +0.000 A 
ATOM      8  C   UNL     1      -1.098  11.424  22.223  0.00  0.00    +0.000 A 
ATOM      9  N   UNL     1      -1.978  12.499  22.215  0.00  0.00    +0.000 N 
ENDROOT
BRANCH   2  10
ATOM     10  C   UNL     1       0.077  12.980  19.215  0.00  0.00    +0.000 C 
ATOM     11  O   UNL     1      -0.502  13.131  18.137  0.00  0.00    +0.000 OA
ATOM     12  N   UNL     1       1.463  13.179  19.344  0.00  0.00    +0.000 N 
ATOM     13  C   UNL     1       2.260  13.457  18.151  0.00  0.00    +0.000 C 
ATOM     14  C   UNL     1       3.114  14.734  18.301  0.00  0.00    +0.000 C 
ATOM     15  N   UNL     1       3.943  14.760  19.527  0.00  0.00    +0.000 NA
ATOM     16  C   UNL     1       3.116  14.466  20.714  0.00  0.00    +0.000 C 
ATOM     17  C   UNL     1       2.264  13.181  20.584  0.00  0.00    +0.000 C 
ATOM     18  H   UNL     1       4.369  15.674  19.627  0.00  0.00    +0.000 HD
ENDBRANCH   2  10
BRANCH   9  19
ATOM     19  C   UNL     1      -3.340  12.420  22.709  0.00  0.00    +0.000 A 
ATOM     20  C   UNL     1      -4.410  12.793  21.860  0.00  0.00    +0.000 A 
ATOM     21  C   UNL     1      -5.682  13.085  22.369  0.00  0.00    +0.000 A 
ATOM     22  C   UNL     1      -5.925  12.970  23.732  0.00  0.00    +0.000 A 
ATOM     23  C   UNL     1      -4.910  12.513  24.572  0.00  0.00    +0.000 A 
ATOM     24  C   UNL     1      -3.627  12.237  24.064  0.00  0.00    +0.000 A 
ENDBRANCH   9  19
BRANCH   1  25
ATOM     25  O   UNL     1      -1.742  14.706  21.292  0.00  0.00    +0.000 OA
BRANCH  25  34
ATOM     26  C   UNL     1      -0.515  17.492  21.019  0.00  0.00    +0.000 C 
ATOM     27  C   UNL     1      -1.633  16.901  21.814  0.00  0.00    +0.000 A 
ATOM     28  C   UNL     1      -2.873  17.533  21.975  0.00  0.00    +0.000 A 
ATOM     29  C   UNL     1      -3.792  17.018  22.892  0.00  0.00    +0.000 A 
ATOM     30  C   UNL     1      -3.381  16.021  23.747  0.00  0.00    +0.000 A 
ATOM     31  F   UNL     1      -4.094  15.766  24.862  0.00  0.00    +0.000 F 
ATOM     32  C   UNL     1      -2.132  15.439  23.582  0.00  0.00    +0.000 A 
ATOM     33  C   UNL     1      -1.331  15.161  24.818  0.00  0.00    +0.000 C 
ATOM     34  C   UNL     1      -1.490  15.627  22.364  0.00  0.00    +0.000 A 
ENDBRANCH  25  34
ENDBRANCH   1  25
TORSDOF 4
ENDMDL
MODEL 5
REMARK VINA RESULT:      -7.1      2.495      5.293
REMARK  Name = 
REMARK  6 active torsions:
REMARK  status: ('A' for Active; 'I' for Inactive)
REMARK    1  A    between atoms: C_1  and  C_2
REMARK    2  A    between atoms: C_7  and  C_8
REMARK    3  A    between atoms: C_9  and  O_10
REMARK    4  A    between atoms: O_10  and  C_11
REMARK    5  A    between atoms: C_12  and  C_13
REMARK    6  A    between atoms: N_27  and  C_28
REMARK                            x       y       z     vdW  Elec       q    Type
REMARK                         _______ _______ _______ _____ _____    ______ ____
ROOT
ATOM      1  C   UNL     1      -2.879  12.396  20.008  0.00  0.00    +0.000 A 
ATOM      2  C   UNL     1      -2.164  13.565  20.314  0.00  0.00    +0.000 A 
ATOM      3  C   UNL     1      -0.909  13.429  19.670  0.00  0.00    +0.000 A 
ATOM      4  N   UNL     1       0.078  14.326  19.460  0.00  0.00    +0.000 NA
ATOM      5  C   UNL     1       1.289  13.776  19.276  0.00  0.00    +0.000 A 
ATOM      6  C   UNL     1       1.587  12.431  19.485  0.00  0.00    +0.000 A 
ATOM      7  C   UNL     1       0.549  11.512  19.646  0.00  0.00    +0.000 A 
ATOM      8  C   UNL     1      -0.730  12.062  19.548  0.00  0.00    +0.000 A 
ATOM      9  N   UNL     1      -2.002  11.641  19.179  0.00  0.00    +0.000 N 
ENDROOT
BRANCH   2  10
ATOM     10  C   UNL     1      -2.581  14.713  21.099  0.00  0.00    +0.000 C 
ATOM     11  O   UNL     1      -2.869  15.770  20.534  0.00  0.00    +0.000 OA
ATOM     12  N   UNL     1      -2.652  14.577  22.496  0.00  0.00    +0.000 N 
ATOM     13  C   UNL     1      -2.962  15.748  23.314  0.00  0.00    +0.000 C 
ATOM     14  C   UNL     1      -4.146  15.496  24.272  0.00  0.00    +0.000 C 
ATOM     15  N   UNL     1      -4.000  14.278  25.099  0.00  0.00    +0.000 NA
ATOM     16  C   UNL     1      -3.678  13.115  24.250  0.00  0.00    +0.000 C 
ATOM     17  C   UNL     1      -2.483  13.346  23.295  0.00  0.00    +0.000 C 
ATOM     18  H   UNL     1      -4.864  14.105  25.600  0.00  0.00    +0.000 HD
ENDBRANCH   2  10
BRANCH   9  19
ATOM     19  C   UNL     1      -2.286  10.963  17.928  0.00  0.00    +0.000 A 
ATOM     20  C   UNL     1      -2.182  11.679  16.711  0.00  0.00    +0.000 A 
ATOM     21  C   UNL     1      -2.777  11.211  15.532  0.00  0.00    +0.000 A 
ATOM     22  C   UNL     1      -3.455   9.998  15.534  0.00  0.00    +0.000 A 
ATOM     23  C   UNL     1      -3.488   9.234  16.699  0.00  0.00    +0.000 A 
ATOM     24  C   UNL     1      -2.905   9.711  17.888  0.00  0.00    +0.000 A 
ENDBRANCH   9  19
BRANCH   1  25
ATOM     25  O   UNL     1      -4.132  11.982  20.240  0.00  0.00    +0.000 OA
BRANCH  25  34
ATOM     26  C   UNL     1      -5.663  12.277  17.611  0.00  0.00    +0.000 C 
ATOM     27  C   UNL     1      -6.043  12.084  19.042  0.00  0.00    +0.000 A 
ATOM     28  C   UNL     1      -7.046  11.194  19.452  0.00  0.00    +0.000 A 
ATOM     29  C   UNL     1      -7.483  11.215  20.778  0.00  0.00    +0.000 A 
ATOM     30  C   UNL     1      -7.054  12.236  21.597  0.00  0.00    +0.000 A 
ATOM     31  F   UNL     1      -7.724  12.501  22.735  0.00  0.00    +0.000 F 
ATOM     32  C   UNL     1      -6.084  13.121  21.148  0.00  0.00    +0.000 A 
ATOM     33  C   UNL     1      -6.273  14.572  21.470  0.00  0.00    +0.000 C 
ATOM     34  C   UNL     1      -5.331  12.745  20.042  0.00  0.00    +0.000 A 
ENDBRANCH  25  34
ENDBRANCH   1  25
TORSDOF 4
ENDMDL
MODEL 6
REMARK VINA RESULT:      -7.1     10.744     13.519
REMARK  Name = 
REMARK  6 active torsions:
REMARK  status: ('A' for Active; 'I' for Inactive)
REMARK    1  A    between atoms: C_1  and  C_2
REMARK    2  A    between atoms: C_7  and  C_8
REMARK    3  A    between atoms: C_9  and  O_10
REMARK    4  A    between atoms: O_10  and  C_11
REMARK    5  A    between atoms: C_12  and  C_13
REMARK    6  A    between atoms: N_27  and  C_28
REMARK                            x       y       z     vdW  Elec       q    Type
REMARK                         _______ _______ _______ _____ _____    ______ ____
ROOT
ATOM      1  C   UNL     1       8.873  14.784  21.194  0.00  0.00    +0.000 A 
ATOM      2  C   UNL     1       9.687  15.921  21.315  0.00  0.00    +0.000 A 
ATOM      3  C   UNL     1       9.167  16.652  22.412  0.00  0.00    +0.000 A 
ATOM      4  N   UNL     1       9.671  17.704  23.091  0.00  0.00    +0.000 NA
ATOM      5  C   UNL     1       8.746  18.447  23.718  0.00  0.00    +0.000 A 
ATOM      6  C   UNL     1       7.369  18.312  23.541  0.00  0.00    +0.000 A 
ATOM      7  C   UNL     1       6.867  17.188  22.883  0.00  0.00    +0.000 A 
ATOM      8  C   UNL     1       7.838  16.270  22.482  0.00  0.00    +0.000 A 
ATOM      9  N   UNL     1       7.923  14.903  22.246  0.00  0.00    +0.000 N 
ENDROOT
BRANCH   2  10
ATOM     10  C   UNL     1      10.845  16.306  20.528  0.00  0.00    +0.000 C 
ATOM     11  O   UNL     1      11.962  16.322  21.048  0.00  0.00    +0.000 OA
ATOM     12  N   UNL     1      10.652  16.641  19.176  0.00  0.00    +0.000 N 
ATOM     13  C   UNL     1      11.783  17.136  18.394  0.00  0.00    +0.000 C 
ATOM     14  C   UNL     1      11.986  16.339  17.089  0.00  0.00    +0.000 C 
ATOM     15  N   UNL     1      10.764  16.219  16.262  0.00  0.00    +0.000 NA
ATOM     16  C   UNL     1       9.637  15.727  17.079  0.00  0.00    +0.000 C 
ATOM     17  C   UNL     1       9.411  16.526  18.384  0.00  0.00    +0.000 C 
ATOM     18  H   UNL     1      10.936  15.576  15.497  0.00  0.00    +0.000 HD
ENDBRANCH   2  10
BRANCH   9  19
ATOM     19  C   UNL     1       7.486  13.901  23.201  0.00  0.00    +0.000 A 
ATOM     20  C   UNL     1       8.333  13.558  24.282  0.00  0.00    +0.000 A 
ATOM     21  C   UNL     1       8.148  12.376  25.011  0.00  0.00    +0.000 A 
ATOM     22  C   UNL     1       7.089  11.531  24.702  0.00  0.00    +0.000 A 
ATOM     23  C   UNL     1       6.190  11.899  23.703  0.00  0.00    +0.000 A 
ATOM     24  C   UNL     1       6.385  13.078  22.959  0.00  0.00    +0.000 A 
ENDBRANCH   9  19
BRANCH   1  25
ATOM     25  O   UNL     1       8.910  13.688  20.423  0.00  0.00    +0.000 OA
BRANCH  25  34
ATOM     26  C   UNL     1       9.205  10.954  21.758  0.00  0.00    +0.000 C 
ATOM     27  C   UNL     1       9.492  11.506  20.400  0.00  0.00    +0.000 A 
ATOM     28  C   UNL     1       9.180  10.823  19.217  0.00  0.00    +0.000 A 
ATOM     29  C   UNL     1       9.658  11.307  17.998  0.00  0.00    +0.000 A 
ATOM     30  C   UNL     1      10.579  12.330  18.011  0.00  0.00    +0.000 A 
ATOM     31  F   UNL     1      11.326  12.566  16.915  0.00  0.00    +0.000 F 
ATOM     32  C   UNL     1      10.892  12.963  19.206  0.00  0.00    +0.000 A 
ATOM     33  C   UNL     1      12.333  13.289  19.457  0.00  0.00    +0.000 C 
ATOM     34  C   UNL     1      10.020  12.790  20.274  0.00  0.00    +0.000 A 
ENDBRANCH  25  34
ENDBRANCH   1  25
TORSDOF 4
ENDMDL
MODEL 7
REMARK VINA RESULT:      -7.0      2.926      6.328
REMARK  Name = 
REMARK  6 active torsions:
REMARK  status: ('A' for Active; 'I' for Inactive)
REMARK    1  A    between atoms: C_1  and  C_2
REMARK    2  A    between atoms: C_7  and  C_8
REMARK    3  A    between atoms: C_9  and  O_10
REMARK    4  A    between atoms: O_10  and  C_11
REMARK    5  A    between atoms: C_12  and  C_13
REMARK    6  A    between atoms: N_27  and  C_28
REMARK                            x       y       z     vdW  Elec       q    Type
REMARK                         _______ _______ _______ _____ _____    ______ ____
ROOT
ATOM      1  C   UNL     1      -1.168  14.395  21.945  0.00  0.00    +0.000 A 
ATOM      2  C   UNL     1       0.096  13.826  21.717  0.00  0.00    +0.000 A 
ATOM      3  C   UNL     1      -0.116  12.425  21.673  0.00  0.00    +0.000 A 
ATOM      4  N   UNL     1       0.699  11.420  21.288  0.00  0.00    +0.000 NA
ATOM      5  C   UNL     1       0.389  10.228  21.821  0.00  0.00    +0.000 A 
ATOM      6  C   UNL     1      -0.540  10.034  22.842  0.00  0.00    +0.000 A 
ATOM      7  C   UNL     1      -1.410  11.070  23.186  0.00  0.00    +0.000 A 
ATOM      8  C   UNL     1      -1.265  12.226  22.419  0.00  0.00    +0.000 A 
ATOM      9  N   UNL     1      -2.060  13.289  22.004  0.00  0.00    +0.000 N 
ENDROOT
BRANCH   2  10
ATOM     10  C   UNL     1       1.376  14.484  21.534  0.00  0.00    +0.000 C 
ATOM     11  O   UNL     1       2.031  14.837  22.517  0.00  0.00    +0.000 OA
ATOM     12  N   UNL     1       1.840  14.690  20.223  0.00  0.00    +0.000 N 
ATOM     13  C   UNL     1       3.072  15.447  20.011  0.00  0.00    +0.000 C 
ATOM     14  C   UNL     1       4.087  14.681  19.138  0.00  0.00    +0.000 C 
ATOM     15  N   UNL     1       3.527  14.185  17.861  0.00  0.00    +0.000 NA
ATOM     16  C   UNL     1       2.280  13.434  18.104  0.00  0.00    +0.000 C 
ATOM     17  C   UNL     1       1.245  14.196  18.965  0.00  0.00    +0.000 C 
ATOM     18  H   UNL     1       4.204  13.583  17.406  0.00  0.00    +0.000 HD
ENDBRANCH   2  10
BRANCH   9  19
ATOM     19  C   UNL     1      -3.347  13.117  21.355  0.00  0.00    +0.000 A 
ATOM     20  C   UNL     1      -4.525  13.118  22.140  0.00  0.00    +0.000 A 
ATOM     21  C   UNL     1      -5.733  12.606  21.648  0.00  0.00    +0.000 A 
ATOM     22  C   UNL     1      -5.800  12.119  20.348  0.00  0.00    +0.000 A 
ATOM     23  C   UNL     1      -4.674  12.197  19.530  0.00  0.00    +0.000 A 
ATOM     24  C   UNL     1      -3.456  12.695  20.029  0.00  0.00    +0.000 A 
ENDBRANCH   9  19
BRANCH   1  25
ATOM     25  O   UNL     1      -1.628  15.653  21.992  0.00  0.00    +0.000 OA
BRANCH  25  34
ATOM     26  C   UNL     1      -2.777  18.483  22.098  0.00  0.00    +0.000 C 
ATOM     27  C   UNL     1      -2.892  17.261  22.949  0.00  0.00    +0.000 A 
ATOM     28  C   UNL     1      -4.107  16.817  23.487  0.00  0.00    +0.000 A 
ATOM     29  C   UNL     1      -4.104  15.789  24.433  0.00  0.00    +0.000 A 
ATOM     30  C   UNL     1      -2.898  15.373  24.950  0.00  0.00    +0.000 A 
ATOM     31  F   UNL     1      -2.875  14.673  26.101  0.00  0.00    +0.000 F 
ATOM     32  C   UNL     1      -1.713  15.860  24.417  0.00  0.00    +0.000 A 
ATOM     33  C   UNL     1      -0.621  16.221  25.379  0.00  0.00    +0.000 C 
ATOM     34  C   UNL     1      -1.769  16.464  23.167  0.00  0.00    +0.000 A 
ENDBRANCH  25  34
ENDBRANCH   1  25
TORSDOF 4
ENDMDL
MODEL 8
REMARK VINA RESULT:      -7.0      1.378      1.579
REMARK  Name = 
REMARK  6 active torsions:
REMARK  status: ('A' for Active; 'I' for Inactive)
REMARK    1  A    between atoms: C_1  and  C_2
REMARK    2  A    between atoms: C_7  and  C_8
REMARK    3  A    between atoms: C_9  and  O_10
REMARK    4  A    between atoms: O_10  and  C_11
REMARK    5  A    between atoms: C_12  and  C_13
REMARK    6  A    between atoms: N_27  and  C_28
REMARK                            x       y       z     vdW  Elec       q    Type
REMARK                         _______ _______ _______ _____ _____    ______ ____
ROOT
ATOM      1  C   UNL     1      -2.143  12.965  20.075  0.00  0.00    +0.000 A 
ATOM      2  C   UNL     1      -2.598  13.022  21.402  0.00  0.00    +0.000 A 
ATOM      3  C   UNL     1      -3.959  12.631  21.359  0.00  0.00    +0.000 A 
ATOM      4  N   UNL     1      -4.820  12.315  22.350  0.00  0.00    +0.000 NA
ATOM      5  C   UNL     1      -6.112  12.473  22.026  0.00  0.00    +0.000 A 
ATOM      6  C   UNL     1      -6.567  13.100  20.867  0.00  0.00    +0.000 A 
ATOM      7  C   UNL     1      -5.670  13.367  19.832  0.00  0.00    +0.000 A 
ATOM      8  C   UNL     1      -4.365  12.934  20.071  0.00  0.00    +0.000 A 
ATOM      9  N   UNL     1      -3.267  12.523  19.323  0.00  0.00    +0.000 N 
ENDROOT
BRANCH   2  10
ATOM     10  C   UNL     1      -1.867  13.376  22.605  0.00  0.00    +0.000 C 
ATOM     11  O   UNL     1      -1.169  12.531  23.169  0.00  0.00    +0.000 OA
ATOM     12  N   UNL     1      -1.974  14.692  23.089  0.00  0.00    +0.000 N 
ATOM     13  C   UNL     1      -1.337  15.040  24.357  0.00  0.00    +0.000 C 
ATOM     14  C   UNL     1      -0.413  16.270  24.230  0.00  0.00    +0.000 C 
ATOM     15  N   UNL     1      -1.060  17.445  23.604  0.00  0.00    +0.000 NA
ATOM     16  C   UNL     1      -1.703  17.061  22.332  0.00  0.00    +0.000 C 
ATOM     17  C   UNL     1      -2.645  15.840  22.447  0.00  0.00    +0.000 C 
ATOM     18  H   UNL     1      -0.364  18.161  23.432  0.00  0.00    +0.000 HD
ENDBRANCH   2  10
BRANCH   9  19
ATOM     19  C   UNL     1      -3.337  11.493  18.304  0.00  0.00    +0.000 A 
ATOM     20  C   UNL     1      -2.288  10.547  18.200  0.00  0.00    +0.000 A 
ATOM     21  C   UNL     1      -2.109   9.775  17.045  0.00  0.00    +0.000 A 
ATOM     22  C   UNL     1      -2.999   9.900  15.985  0.00  0.00    +0.000 A 
ATOM     23  C   UNL     1      -4.092  10.756  16.107  0.00  0.00    +0.000 A 
ATOM     24  C   UNL     1      -4.262  11.545  17.259  0.00  0.00    +0.000 A 
ENDBRANCH   9  19
BRANCH   1  25
ATOM     25  O   UNL     1      -0.947  13.126  19.492  0.00  0.00    +0.000 OA
BRANCH  25  34
ATOM     26  C   UNL     1       0.549  10.595  20.328  0.00  0.00    +0.000 C 
ATOM     27  C   UNL     1       0.936  11.897  19.708  0.00  0.00    +0.000 A 
ATOM     28  C   UNL     1       1.833  11.996  18.636  0.00  0.00    +0.000 A 
ATOM     29  C   UNL     1       2.299  13.252  18.245  0.00  0.00    +0.000 A 
ATOM     30  C   UNL     1       2.015  14.338  19.041  0.00  0.00    +0.000 A 
ATOM     31  F   UNL     1       2.738  15.467  18.909  0.00  0.00    +0.000 F 
ATOM     32  C   UNL     1       1.149  14.199  20.117  0.00  0.00    +0.000 A 
ATOM     33  C   UNL     1       1.518  14.890  21.394  0.00  0.00    +0.000 C 
ATOM     34  C   UNL     1       0.331  13.076  20.144  0.00  0.00    +0.000 A 
ENDBRANCH  25  34
ENDBRANCH   1  25
TORSDOF 4
ENDMDL
MODEL 9
REMARK VINA RESULT:      -7.0      2.980      5.591
REMARK  Name = 
REMARK  6 active torsions:
REMARK  status: ('A' for Active; 'I' for Inactive)
REMARK    1  A    between atoms: C_1  and  C_2
REMARK    2  A    between atoms: C_7  and  C_8
REMARK    3  A    between atoms: C_9  and  O_10
REMARK    4  A    between atoms: O_10  and  C_11
REMARK    5  A    between atoms: C_12  and  C_13
REMARK    6  A    between atoms: N_27  and  C_28
REMARK                            x       y       z     vdW  Elec       q    Type
REMARK                         _______ _______ _______ _____ _____    ______ ____
ROOT
ATOM      1  C   UNL     1      -1.292  12.891  20.113  0.00  0.00    +0.000 A 
ATOM      2  C   UNL     1       0.084  13.171  20.104  0.00  0.00    +0.000 A 
ATOM      3  C   UNL     1       0.652  12.279  19.160  0.00  0.00    +0.000 A 
ATOM      4  N   UNL     1       1.883  12.243  18.608  0.00  0.00    +0.000 NA
ATOM      5  C   UNL     1       2.247  11.033  18.157  0.00  0.00    +0.000 A 
ATOM      6  C   UNL     1       1.547   9.853  18.402  0.00  0.00    +0.000 A 
ATOM      7  C   UNL     1       0.254   9.916  18.923  0.00  0.00    +0.000 A 
ATOM      8  C   UNL     1      -0.227  11.210  19.123  0.00  0.00    +0.000 A 
ATOM      9  N   UNL     1      -1.459  11.854  19.153  0.00  0.00    +0.000 N 
ENDROOT
BRANCH   2  10
ATOM     10  C   UNL     1       0.820  14.167  20.861  0.00  0.00    +0.000 C 
ATOM     11  O   UNL     1       1.300  13.873  21.958  0.00  0.00    +0.000 OA
ATOM     12  N   UNL     1       0.974  15.449  20.306  0.00  0.00    +0.000 N 
ATOM     13  C   UNL     1       1.615  16.498  21.096  0.00  0.00    +0.000 C 
ATOM     14  C   UNL     1       2.782  17.169  20.342  0.00  0.00    +0.000 C 
ATOM     15  N   UNL     1       2.426  17.649  18.988  0.00  0.00    +0.000 NA
ATOM     16  C   UNL     1       1.772  16.573  18.217  0.00  0.00    +0.000 C 
ATOM     17  C   UNL     1       0.589  15.901  18.954  0.00  0.00    +0.000 C 
ATOM     18  H   UNL     1       3.264  17.952  18.506  0.00  0.00    +0.000 HD
ENDBRANCH   2  10
BRANCH   9  19
ATOM     19  C   UNL     1      -2.445  11.739  18.095  0.00  0.00    +0.000 A 
ATOM     20  C   UNL     1      -3.815  11.624  18.433  0.00  0.00    +0.000 A 
ATOM     21  C   UNL     1      -4.760  11.154  17.511  0.00  0.00    +0.000 A 
ATOM     22  C   UNL     1      -4.364  10.827  16.220  0.00  0.00    +0.000 A 
ATOM     23  C   UNL     1      -3.036  11.023  15.842  0.00  0.00    +0.000 A 
ATOM     24  C   UNL     1      -2.084  11.479  16.772  0.00  0.00    +0.000 A 
ENDBRANCH   9  19
BRANCH   1  25
ATOM     25  O   UNL     1      -2.352  13.448  20.714  0.00  0.00    +0.000 OA
BRANCH  25  34
ATOM     26  C   UNL     1      -1.546  11.530  22.953  0.00  0.00    +0.000 C 
ATOM     27  C   UNL     1      -2.522  12.652  22.821  0.00  0.00    +0.000 A 
ATOM     28  C   UNL     1      -2.701  13.630  23.810  0.00  0.00    +0.000 A 
ATOM     29  C   UNL     1      -3.768  14.525  23.705  0.00  0.00    +0.000 A 
ATOM     30  C   UNL     1      -4.722  14.303  22.738  0.00  0.00    +0.000 A 
ATOM     31  F   UNL     1      -5.925  14.901  22.841  0.00  0.00    +0.000 F 
ATOM     32  C   UNL     1      -4.531  13.303  21.794  0.00  0.00    +0.000 A 
ATOM     33  C   UNL     1      -5.714  12.456  21.437  0.00  0.00    +0.000 C 
ATOM     34  C   UNL     1      -3.243  12.804  21.637  0.00  0.00    +0.000 A 
ENDBRANCH  25  34
ENDBRANCH   1  25
TORSDOF 4
ENDMDL
