MODEL 1
REMARK VINA RESULT:      -7.6      0.000      0.000
REMARK  Name = 
REMARK  9 active torsions:
REMARK  status: ('A' for Active; 'I' for Inactive)
REMARK    1  A    between atoms: C_1  and  N_2
REMARK    2  A    between atoms: N_2  and  C_3
REMARK    3  A    between atoms: N_2  and  C_4
REMARK    4  A    between atoms: C_4  and  C_5
REMARK    5  A    between atoms: C_5  and  N_6
REMARK    6  A    between atoms: N_6  and  C_7
REMARK    7  A    between atoms: C_7  and  C_8
REMARK    8  A    between atoms: C_15  and  C_17
REMARK    9  A    between atoms: N_20  and  C_21
REMARK                            x       y       z     vdW  Elec       q    Type
REMARK                         _______ _______ _______ _____ _____    ______ ____
ROOT
ATOM      1  N   UNL     1       3.439   5.293  17.431  0.00  0.00    +0.000 N 
ATOM      2  C   UNL     1       3.604   6.651  17.719  0.00  0.00    +0.000 C 
ATOM      3  O   UNL     1       4.600   7.286  17.352  0.00  0.00    +0.000 OA
ENDROOT
BRANCH   2   4
ATOM      4  C   UNL     1       2.588   7.488  18.441  0.00  0.00    +0.000 A 
ATOM      5  C   UNL     1       2.021   8.619  17.709  0.00  0.00    +0.000 A 
ATOM      6  C   UNL     1       1.242   9.521  18.306  0.00  0.00    +0.000 A 
ATOM      7  N   UNL     1       0.911   9.386  19.640  0.00  0.00    +0.000 N 
ATOM      8  C   UNL     1      -0.003  10.329  20.258  0.00  0.00    +0.000 C 
ATOM      9  C   UNL     1       1.387   8.333  20.409  0.00  0.00    +0.000 A 
ATOM     10  O   UNL     1       1.081   8.134  21.580  0.00  0.00    +0.000 OA
ATOM     11  C   UNL     1       2.347   7.412  19.757  0.00  0.00    +0.000 A 
ENDBRANCH   2   4
BRANCH   1  12
ATOM     12  C   UNL     1       4.457   4.553  16.617  0.00  0.00    +0.000 C 
BRANCH  12  13
ATOM     13  C   UNL     1       5.722   4.032  17.339  0.00  0.00    +0.000 C 
BRANCH  13  15
ATOM     14  C   UNL     1       6.957   5.114  15.623  0.00  0.00    +0.000 C 
ATOM     15  N   UNL     1       7.056   4.565  16.988  0.00  0.00    +0.000 NA
ATOM     16  C   UNL     1       7.526   5.605  17.895  0.00  0.00    +0.000 C 
ENDBRANCH  13  15
ENDBRANCH  12  13
ENDBRANCH   1  12
BRANCH   1  17
ATOM     17  C   UNL     1       2.225   4.509  17.739  0.00  0.00    +0.000 C 
BRANCH  17  18
ATOM     18  C   UNL     1       2.237   3.860  19.101  0.00  0.00    +0.000 A 
ATOM     19  C   UNL     1       1.100   3.888  19.928  0.00  0.00    +0.000 A 
ATOM     20  C   UNL     1       1.093   3.219  21.157  0.00  0.00    +0.000 A 
ATOM     21  C   UNL     1       2.229   2.533  21.581  0.00  0.00    +0.000 A 
ATOM     22  C   UNL     1       3.370   2.554  20.792  0.00  0.00    +0.000 A 
ATOM     23  F   UNL     1       4.471   1.912  21.205  0.00  0.00    +0.000 F 
ATOM     24  C   UNL     1       3.390   3.218  19.575  0.00  0.00    +0.000 A 
ENDBRANCH  17  18
ENDBRANCH   1  17
TORSDOF 6
ENDMDL
MODEL 2
REMARK VINA RESULT:      -7.4      0.655      1.054
REMARK  Name = 
REMARK  9 active torsions:
REMARK  status: ('A' for Active; 'I' for Inactive)
REMARK    1  A    between atoms: C_1  and  N_2
REMARK    2  A    between atoms: N_2  and  C_3
REMARK    3  A    between atoms: N_2  and  C_4
REMARK    4  A    between atoms: C_4  and  C_5
REMARK    5  A    between atoms: C_5  and  N_6
REMARK    6  A    between atoms: N_6  and  C_7
REMARK    7  A    between atoms: C_7  and  C_8
REMARK    8  A    between atoms: C_15  and  C_17
REMARK    9  A    between atoms: N_20  and  C_21
REMARK                            x       y       z     vdW  Elec       q    Type
REMARK                         _______ _______ _______ _____ _____    ______ ____
ROOT
ATOM      1  N   UNL     1       3.516   5.411  17.490  0.00  0.00    +0.000 N 
ATOM      2  C   UNL     1       3.640   6.769  17.799  0.00  0.00    +0.000 C 
ATOM      3  O   UNL     1       4.637   7.428  17.484  0.00  0.00    +0.000 OA
ENDROOT
BRANCH   2   4
ATOM      4  C   UNL     1       2.574   7.577  18.481  0.00  0.00    +0.000 A 
ATOM      5  C   UNL     1       1.986   8.677  17.719  0.00  0.00    +0.000 A 
ATOM      6  C   UNL     1       1.159   9.557  18.282  0.00  0.00    +0.000 A 
ATOM      7  N   UNL     1       0.798   9.428  19.609  0.00  0.00    +0.000 N 
ATOM      8  C   UNL     1      -0.167  10.344  20.189  0.00  0.00    +0.000 C 
ATOM      9  C   UNL     1       1.291   8.403  20.405  0.00  0.00    +0.000 A 
ATOM     10  O   UNL     1       0.961   8.209  21.571  0.00  0.00    +0.000 OA
ATOM     11  C   UNL     1       2.301   7.510  19.792  0.00  0.00    +0.000 A 
ENDBRANCH   2   4
BRANCH   1  12
ATOM     12  C   UNL     1       4.585   4.701  16.717  0.00  0.00    +0.000 C 
BRANCH  12  13
ATOM     13  C   UNL     1       5.200   5.428  15.497  0.00  0.00    +0.000 C 
BRANCH  13  15
ATOM     14  C   UNL     1       7.267   4.698  16.414  0.00  0.00    +0.000 C 
ATOM     15  N   UNL     1       6.659   5.382  15.257  0.00  0.00    +0.000 NA
ATOM     16  C   UNL     1       7.028   4.682  14.033  0.00  0.00    +0.000 C 
ENDBRANCH  13  15
ENDBRANCH  12  13
ENDBRANCH   1  12
BRANCH   1  17
ATOM     17  C   UNL     1       2.306   4.599  17.735  0.00  0.00    +0.000 C 
BRANCH  17  18
ATOM     18  C   UNL     1       2.286   3.908  19.076  0.00  0.00    +0.000 A 
ATOM     19  C   UNL     1       1.125   3.898  19.869  0.00  0.00    +0.000 A 
ATOM     20  C   UNL     1       1.089   3.190  21.075  0.00  0.00    +0.000 A 
ATOM     21  C   UNL     1       2.221   2.504  21.512  0.00  0.00    +0.000 A 
ATOM     22  C   UNL     1       3.384   2.562  20.758  0.00  0.00    +0.000 A 
ATOM     23  F   UNL     1       4.480   1.919  21.184  0.00  0.00    +0.000 F 
ATOM     24  C   UNL     1       3.432   3.264  19.563  0.00  0.00    +0.000 A 
ENDBRANCH  17  18
ENDBRANCH   1  17
TORSDOF 6
ENDMDL
MODEL 3
REMARK VINA RESULT:      -7.1      0.880      1.315
REMARK  Name = 
REMARK  9 active torsions:
REMARK  status: ('A' for Active; 'I' for Inactive)
REMARK    1  A    between atoms: C_1  and  N_2
REMARK    2  A    between atoms: N_2  and  C_3
REMARK    3  A    between atoms: N_2  and  C_4
REMARK    4  A    between atoms: C_4  and  C_5
REMARK    5  A    between atoms: C_5  and  N_6
REMARK    6  A    between atoms: N_6  and  C_7
REMARK    7  A    between atoms: C_7  and  C_8
REMARK    8  A    between atoms: C_15  and  C_17
REMARK    9  A    between atoms: N_20  and  C_21
REMARK                            x       y       z     vdW  Elec       q    Type
REMARK                         _______ _______ _______ _____ _____    ______ ____
ROOT
ATOM      1  N   UNL     1       3.415   5.366  17.448  0.00  0.00    +0.000 N 
ATOM      2  C   UNL     1       3.684   6.710  17.726  0.00  0.00    +0.000 C 
ATOM      3  O   UNL     1       4.708   7.274  17.324  0.00  0.00    +0.000 OA
ENDROOT
BRANCH   2   4
ATOM      4  C   UNL     1       2.753   7.616  18.480  0.00  0.00    +0.000 A 
ATOM      5  C   UNL     1       2.485   7.277  19.876  0.00  0.00    +0.000 A 
ATOM      6  C   UNL     1       1.550   7.910  20.584  0.00  0.00    +0.000 A 
ATOM      7  N   UNL     1       0.829   8.945  20.023  0.00  0.00    +0.000 N 
ATOM      8  C   UNL     1      -0.129   9.680  20.828  0.00  0.00    +0.000 C 
ATOM      9  C   UNL     1       1.029   9.349  18.710  0.00  0.00    +0.000 A 
ATOM     10  O   UNL     1       0.456  10.296  18.179  0.00  0.00    +0.000 OA
ATOM     11  C   UNL     1       1.985   8.553  17.906  0.00  0.00    +0.000 A 
ENDBRANCH   2   4
BRANCH   1  12
ATOM     12  C   UNL     1       4.351   4.558  16.602  0.00  0.00    +0.000 C 
BRANCH  12  13
ATOM     13  C   UNL     1       5.602   3.953  17.282  0.00  0.00    +0.000 C 
BRANCH  13  15
ATOM     14  C   UNL     1       6.849   5.073  15.598  0.00  0.00    +0.000 C 
ATOM     15  N   UNL     1       6.954   4.434  16.923  0.00  0.00    +0.000 NA
ATOM     16  C   UNL     1       7.507   5.387  17.878  0.00  0.00    +0.000 C 
ENDBRANCH  13  15
ENDBRANCH  12  13
ENDBRANCH   1  12
BRANCH   1  17
ATOM     17  C   UNL     1       2.161   4.669  17.799  0.00  0.00    +0.000 C 
BRANCH  17  18
ATOM     18  C   UNL     1       2.203   3.949  19.124  0.00  0.00    +0.000 A 
ATOM     19  C   UNL     1       1.072   3.898  19.958  0.00  0.00    +0.000 A 
ATOM     20  C   UNL     1       1.095   3.165  21.149  0.00  0.00    +0.000 A 
ATOM     21  C   UNL     1       2.255   2.494  21.530  0.00  0.00    +0.000 A 
ATOM     22  C   UNL     1       3.389   2.592  20.737  0.00  0.00    +0.000 A 
ATOM     23  F   UNL     1       4.512   1.964  21.109  0.00  0.00    +0.000 F 
ATOM     24  C   UNL     1       3.379   3.320  19.556  0.00  0.00    +0.000 A 
ENDBRANCH  17  18
ENDBRANCH   1  17
TORSDOF 6
ENDMDL
MODEL 4
REMARK VINA RESULT:      -7.0      1.876      5.681
REMARK  Name = 
REMARK  9 active torsions:
REMARK  status: ('A' for Active; 'I' for Inactive)
REMARK    1  A    between atoms: C_1  and  N_2
REMARK    2  A    between atoms: N_2  and  C_3
REMARK    3  A    between atoms: N_2  and  C_4
REMARK    4  A    between atoms: C_4  and  C_5
REMARK    5  A    between atoms: C_5  and  N_6
REMARK    6  A    between atoms: N_6  and  C_7
REMARK    7  A    between atoms: C_7  and  C_8
REMARK    8  A    between atoms: C_15  and  C_17
REMARK    9  A    between atoms: N_20  and  C_21
REMARK                            x       y       z     vdW  Elec       q    Type
REMARK                         _______ _______ _______ _____ _____    ______ ____
ROOT
ATOM      1  N   UNL     1       2.515   7.311  19.213  0.00  0.00    +0.000 N 
ATOM      2  C   UNL     1       3.062   7.613  17.962  0.00  0.00    +0.000 C 
ATOM      3  O   UNL     1       2.674   8.575  17.288  0.00  0.00    +0.000 OA
ENDROOT
BRANCH   2   4
ATOM      4  C   UNL     1       4.196   6.856  17.333  0.00  0.00    +0.000 A 
ATOM      5  C   UNL     1       3.917   5.490  16.894  0.00  0.00    +0.000 A 
ATOM      6  C   UNL     1       4.888   4.675  16.481  0.00  0.00    +0.000 A 
ATOM      7  N   UNL     1       6.194   5.118  16.416  0.00  0.00    +0.000 N 
ATOM      8  C   UNL     1       7.228   4.248  15.887  0.00  0.00    +0.000 C 
ATOM      9  C   UNL     1       6.549   6.406  16.793  0.00  0.00    +0.000 A 
ATOM     10  O   UNL     1       7.681   6.869  16.704  0.00  0.00    +0.000 OA
ATOM     11  C   UNL     1       5.476   7.253  17.363  0.00  0.00    +0.000 A 
ENDBRANCH   2   4
BRANCH   1  12
ATOM     12  C   UNL     1       1.452   8.178  19.814  0.00  0.00    +0.000 C 
BRANCH  12  13
ATOM     13  C   UNL     1       1.348   8.232  21.356  0.00  0.00    +0.000 C 
BRANCH  13  15
ATOM     14  C   UNL     1       0.804  10.521  21.023  0.00  0.00    +0.000 C 
ATOM     15  N   UNL     1       1.175   9.528  22.049  0.00  0.00    +0.000 NA
ATOM     16  C   UNL     1       0.154   9.503  23.089  0.00  0.00    +0.000 C 
ENDBRANCH  13  15
ENDBRANCH  12  13
ENDBRANCH   1  12
BRANCH   1  17
ATOM     17  C   UNL     1       3.012   6.250  20.113  0.00  0.00    +0.000 C 
BRANCH  17  18
ATOM     18  C   UNL     1       2.225   4.965  20.049  0.00  0.00    +0.000 A 
ATOM     19  C   UNL     1       1.700   4.496  18.832  0.00  0.00    +0.000 A 
ATOM     20  C   UNL     1       1.038   3.266  18.766  0.00  0.00    +0.000 A 
ATOM     21  C   UNL     1       0.873   2.502  19.920  0.00  0.00    +0.000 A 
ATOM     22  C   UNL     1       1.339   2.992  21.132  0.00  0.00    +0.000 A 
ATOM     23  F   UNL     1       1.166   2.270  22.247  0.00  0.00    +0.000 F 
ATOM     24  C   UNL     1       1.993   4.213  21.210  0.00  0.00    +0.000 A 
ENDBRANCH  17  18
ENDBRANCH   1  17
TORSDOF 6
ENDMDL
MODEL 5
REMARK VINA RESULT:      -7.0      1.234      1.466
REMARK  Name = 
REMARK  9 active torsions:
REMARK  status: ('A' for Active; 'I' for Inactive)
REMARK    1  A    between atoms: C_1  and  N_2
REMARK    2  A    between atoms: N_2  and  C_3
REMARK    3  A    between atoms: N_2  and  C_4
REMARK    4  A    between atoms: C_4  and  C_5
REMARK    5  A    between atoms: C_5  and  N_6
REMARK    6  A    between atoms: N_6  and  C_7
REMARK    7  A    between atoms: C_7  and  C_8
REMARK    8  A    between atoms: C_15  and  C_17
REMARK    9  A    between atoms: N_20  and  C_21
REMARK                            x       y       z     vdW  Elec       q    Type
REMARK                         _______ _______ _______ _____ _____    ______ ____
ROOT
ATOM      1  N   UNL     1       4.496   4.900  17.402  0.00  0.00    +0.000 N 
ATOM      2  C   UNL     1       4.582   6.225  17.842  0.00  0.00    +0.000 C 
ATOM      3  O   UNL     1       5.647   6.854  17.835  0.00  0.00    +0.000 OA
ENDROOT
BRANCH   2   4
ATOM      4  C   UNL     1       3.407   7.034  18.309  0.00  0.00    +0.000 A 
ATOM      5  C   UNL     1       2.969   8.127  17.443  0.00  0.00    +0.000 A 
ATOM      6  C   UNL     1       2.050   9.009  17.837  0.00  0.00    +0.000 A 
ATOM      7  N   UNL     1       1.449   8.887  19.074  0.00  0.00    +0.000 N 
ATOM      8  C   UNL     1       0.392   9.805  19.458  0.00  0.00    +0.000 C 
ATOM      9  C   UNL     1       1.787   7.870  19.955  0.00  0.00    +0.000 A 
ATOM     10  O   UNL     1       1.247   7.683  21.041  0.00  0.00    +0.000 OA
ATOM     11  C   UNL     1       2.895   6.975  19.547  0.00  0.00    +0.000 A 
ENDBRANCH   2   4
BRANCH   1  12
ATOM     12  C   UNL     1       5.700   4.195  16.856  0.00  0.00    +0.000 C 
BRANCH  12  13
ATOM     13  C   UNL     1       5.565   3.487  15.487  0.00  0.00    +0.000 C 
BRANCH  13  15
ATOM     14  C   UNL     1       5.722   3.755  13.131  0.00  0.00    +0.000 C 
ATOM     15  N   UNL     1       6.497   3.810  14.385  0.00  0.00    +0.000 NA
ATOM     16  C   UNL     1       7.120   5.121  14.512  0.00  0.00    +0.000 C 
ENDBRANCH  13  15
ENDBRANCH  12  13
ENDBRANCH   1  12
BRANCH   1  17
ATOM     17  C   UNL     1       3.238   4.135  17.278  0.00  0.00    +0.000 C 
BRANCH  17  18
ATOM     18  C   UNL     1       2.650   3.692  18.595  0.00  0.00    +0.000 A 
ATOM     19  C   UNL     1       1.280   3.853  18.868  0.00  0.00    +0.000 A 
ATOM     20  C   UNL     1       0.728   3.371  20.060  0.00  0.00    +0.000 A 
ATOM     21  C   UNL     1       1.544   2.742  20.999  0.00  0.00    +0.000 A 
ATOM     22  C   UNL     1       2.905   2.636  20.755  0.00  0.00    +0.000 A 
ATOM     23  F   UNL     1       3.696   2.049  21.664  0.00  0.00    +0.000 F 
ATOM     24  C   UNL     1       3.464   3.115  19.580  0.00  0.00    +0.000 A 
ENDBRANCH  17  18
ENDBRANCH   1  17
TORSDOF 6
ENDMDL
MODEL 6
REMARK VINA RESULT:      -6.9      1.257      1.854
REMARK  Name = 
REMARK  9 active torsions:
REMARK  status: ('A' for Active; 'I' for Inactive)
REMARK    1  A    between atoms: C_1  and  N_2
REMARK    2  A    between atoms: N_2  and  C_3
REMARK    3  A    between atoms: N_2  and  C_4
REMARK    4  A    between atoms: C_4  and  C_5
REMARK    5  A    between atoms: C_5  and  N_6
REMARK    6  A    between atoms: N_6  and  C_7
REMARK    7  A    between atoms: C_7  and  C_8
REMARK    8  A    between atoms: C_15  and  C_17
REMARK    9  A    between atoms: N_20  and  C_21
REMARK                            x       y       z     vdW  Elec       q    Type
REMARK                         _______ _______ _______ _____ _____    ______ ____
ROOT
ATOM      1  N   UNL     1       3.740   5.173  17.389  0.00  0.00    +0.000 N 
ATOM      2  C   UNL     1       4.022   6.513  17.673  0.00  0.00    +0.000 C 
ATOM      3  O   UNL     1       5.088   7.046  17.342  0.00  0.00    +0.000 OA
ENDROOT
BRANCH   2   4
ATOM      4  C   UNL     1       3.062   7.450  18.347  0.00  0.00    +0.000 A 
ATOM      5  C   UNL     1       2.694   7.142  19.727  0.00  0.00    +0.000 A 
ATOM      6  C   UNL     1       1.727   7.807  20.360  0.00  0.00    +0.000 A 
ATOM      7  N   UNL     1       1.068   8.846  19.734  0.00  0.00    +0.000 N 
ATOM      8  C   UNL     1       0.075   9.615  20.461  0.00  0.00    +0.000 C 
ATOM      9  C   UNL     1       1.365   9.222  18.431  0.00  0.00    +0.000 A 
ATOM     10  O   UNL     1       0.850  10.171  17.848  0.00  0.00    +0.000 OA
ATOM     11  C   UNL     1       2.355   8.393  17.707  0.00  0.00    +0.000 A 
ENDBRANCH   2   4
BRANCH   1  12
ATOM     12  C   UNL     1       4.714   4.331  16.623  0.00  0.00    +0.000 C 
BRANCH  12  13
ATOM     13  C   UNL     1       4.803   4.538  15.092  0.00  0.00    +0.000 C 
BRANCH  13  15
ATOM     14  C   UNL     1       7.137   4.715  15.504  0.00  0.00    +0.000 C 
ATOM     15  N   UNL     1       6.109   4.799  14.449  0.00  0.00    +0.000 NA
ATOM     16  C   UNL     1       6.433   3.860  13.382  0.00  0.00    +0.000 C 
ENDBRANCH  13  15
ENDBRANCH  12  13
ENDBRANCH   1  12
BRANCH   1  17
ATOM     17  C   UNL     1       2.445   4.512  17.653  0.00  0.00    +0.000 C 
BRANCH  17  18
ATOM     18  C   UNL     1       2.353   3.851  19.006  0.00  0.00    +0.000 A 
ATOM     19  C   UNL     1       1.152   3.865  19.739  0.00  0.00    +0.000 A 
ATOM     20  C   UNL     1       1.052   3.185  20.957  0.00  0.00    +0.000 A 
ATOM     21  C   UNL     1       2.156   2.503  21.466  0.00  0.00    +0.000 A 
ATOM     22  C   UNL     1       3.356   2.538  20.772  0.00  0.00    +0.000 A 
ATOM     23  F   UNL     1       4.425   1.900  21.267  0.00  0.00    +0.000 F 
ATOM     24  C   UNL     1       3.469   3.213  19.565  0.00  0.00    +0.000 A 
ENDBRANCH  17  18
ENDBRANCH   1  17
TORSDOF 6
ENDMDL
MODEL 7
REMARK VINA RESULT:      -6.9      2.307      4.485
REMARK  Name = 
REMARK  9 active torsions:
REMARK  status: ('A' for Active; 'I' for Inactive)
REMARK    1  A    between atoms: C_1  and  N_2
REMARK    2  A    between atoms: N_2  and  C_3
REMARK    3  A    between atoms: N_2  and  C_4
REMARK    4  A    between atoms: C_4  and  C_5
REMARK    5  A    between atoms: C_5  and  N_6
REMARK    6  A    between atoms: N_6  and  C_7
REMARK    7  A    between atoms: C_7  and  C_8
REMARK    8  A    between atoms: C_15  and  C_17
REMARK    9  A    between atoms: N_20  and  C_21
REMARK                            x       y       z     vdW  Elec       q    Type
REMARK                         _______ _______ _______ _____ _____    ______ ____
ROOT
ATOM      1  N   UNL     1       3.559   4.799  19.822  0.00  0.00    +0.000 N 
ATOM      2  C   UNL     1       2.334   5.443  20.019  0.00  0.00    +0.000 C 
ATOM      3  O   UNL     1       1.342   4.852  20.460  0.00  0.00    +0.000 OA
ENDROOT
BRANCH   2   4
ATOM      4  C   UNL     1       2.105   6.907  19.776  0.00  0.00    +0.000 A 
ATOM      5  C   UNL     1       1.548   7.683  20.883  0.00  0.00    +0.000 A 
ATOM      6  C   UNL     1       1.150   8.945  20.725  0.00  0.00    +0.000 A 
ATOM      7  N   UNL     1       1.294   9.575  19.505  0.00  0.00    +0.000 N 
ATOM      8  C   UNL     1       0.933  10.974  19.366  0.00  0.00    +0.000 C 
ATOM      9  C   UNL     1       1.831   8.924  18.403  0.00  0.00    +0.000 A 
ATOM     10  O   UNL     1       2.032   9.452  17.314  0.00  0.00    +0.000 OA
ATOM     11  C   UNL     1       2.153   7.488  18.569  0.00  0.00    +0.000 A 
ENDBRANCH   2   4
BRANCH   1  12
ATOM     12  C   UNL     1       3.732   3.355  20.184  0.00  0.00    +0.000 C 
BRANCH  12  13
ATOM     13  C   UNL     1       3.796   2.323  19.034  0.00  0.00    +0.000 C 
BRANCH  13  15
ATOM     14  C   UNL     1       1.464   1.893  19.187  0.00  0.00    +0.000 C 
ATOM     15  N   UNL     1       2.588   2.014  18.239  0.00  0.00    +0.000 NA
ATOM     16  C   UNL     1       2.271   3.027  17.240  0.00  0.00    +0.000 C 
ENDBRANCH  13  15
ENDBRANCH  12  13
ENDBRANCH   1  12
BRANCH   1  17
ATOM     17  C   UNL     1       4.808   5.473  19.410  0.00  0.00    +0.000 C 
BRANCH  17  18
ATOM     18  C   UNL     1       5.045   5.479  17.919  0.00  0.00    +0.000 A 
ATOM     19  C   UNL     1       4.788   6.628  17.150  0.00  0.00    +0.000 A 
ATOM     20  C   UNL     1       5.082   6.652  15.782  0.00  0.00    +0.000 A 
ATOM     21  C   UNL     1       5.614   5.520  15.166  0.00  0.00    +0.000 A 
ATOM     22  C   UNL     1       5.812   4.369  15.914  0.00  0.00    +0.000 A 
ATOM     23  F   UNL     1       6.306   3.273  15.321  0.00  0.00    +0.000 F 
ATOM     24  C   UNL     1       5.520   4.332  17.269  0.00  0.00    +0.000 A 
ENDBRANCH  17  18
ENDBRANCH   1  17
TORSDOF 6
ENDMDL
MODEL 8
REMARK VINA RESULT:      -6.8      1.564      1.857
REMARK  Name = 
REMARK  9 active torsions:
REMARK  status: ('A' for Active; 'I' for Inactive)
REMARK    1  A    between atoms: C_1  and  N_2
REMARK    2  A    between atoms: N_2  and  C_3
REMARK    3  A    between atoms: N_2  and  C_4
REMARK    4  A    between atoms: C_4  and  C_5
REMARK    5  A    between atoms: C_5  and  N_6
REMARK    6  A    between atoms: N_6  and  C_7
REMARK    7  A    between atoms: C_7  and  C_8
REMARK    8  A    between atoms: C_15  and  C_17
REMARK    9  A    between atoms: N_20  and  C_21
REMARK                            x       y       z     vdW  Elec       q    Type
REMARK                         _______ _______ _______ _____ _____    ______ ____
ROOT
ATOM      1  N   UNL     1       3.836   6.502  18.159  0.00  0.00    +0.000 N 
ATOM      2  C   UNL     1       3.097   7.628  17.784  0.00  0.00    +0.000 C 
ATOM      3  O   UNL     1       3.209   8.149  16.668  0.00  0.00    +0.000 OA
ENDROOT
BRANCH   2   4
ATOM      4  C   UNL     1       2.064   8.284  18.654  0.00  0.00    +0.000 A 
ATOM      5  C   UNL     1       1.266   9.348  18.048  0.00  0.00    +0.000 A 
ATOM      6  C   UNL     1       0.443  10.107  18.772  0.00  0.00    +0.000 A 
ATOM      7  N   UNL     1       0.290   9.878  20.125  0.00  0.00    +0.000 N 
ATOM      8  C   UNL     1      -0.669  10.658  20.887  0.00  0.00    +0.000 C 
ATOM      9  C   UNL     1       0.992   8.877  20.782  0.00  0.00    +0.000 A 
ATOM     10  O   UNL     1       0.853   8.596  21.968  0.00  0.00    +0.000 OA
ATOM     11  C   UNL     1       1.989   8.128  19.983  0.00  0.00    +0.000 A 
ENDBRANCH   2   4
BRANCH   1  12
ATOM     12  C   UNL     1       4.776   5.847  17.192  0.00  0.00    +0.000 C 
BRANCH  12  13
ATOM     13  C   UNL     1       6.195   6.444  17.044  0.00  0.00    +0.000 C 
BRANCH  13  15
ATOM     14  C   UNL     1       7.584   4.627  17.687  0.00  0.00    +0.000 C 
ATOM     15  N   UNL     1       7.322   5.593  16.603  0.00  0.00    +0.000 NA
ATOM     16  C   UNL     1       7.059   4.872  15.365  0.00  0.00    +0.000 C 
ENDBRANCH  13  15
ENDBRANCH  12  13
ENDBRANCH   1  12
BRANCH   1  17
ATOM     17  C   UNL     1       3.665   5.767  19.429  0.00  0.00    +0.000 C 
BRANCH  17  18
ATOM     18  C   UNL     1       2.728   4.588  19.339  0.00  0.00    +0.000 A 
ATOM     19  C   UNL     1       1.634   4.463  20.214  0.00  0.00    +0.000 A 
ATOM     20  C   UNL     1       0.726   3.408  20.077  0.00  0.00    +0.000 A 
ATOM     21  C   UNL     1       0.914   2.455  19.078  0.00  0.00    +0.000 A 
ATOM     22  C   UNL     1       2.025   2.545  18.252  0.00  0.00    +0.000 A 
ATOM     23  F   UNL     1       2.220   1.620  17.303  0.00  0.00    +0.000 F 
ATOM     24  C   UNL     1       2.935   3.584  18.383  0.00  0.00    +0.000 A 
ENDBRANCH  17  18
ENDBRANCH   1  17
TORSDOF 6
ENDMDL
MODEL 9
REMARK VINA RESULT:      -6.7      1.481      1.709
REMARK  Name = 
REMARK  9 active torsions:
REMARK  status: ('A' for Active; 'I' for Inactive)
REMARK    1  A    between atoms: C_1  and  N_2
REMARK    2  A    between atoms: N_2  and  C_3
REMARK    3  A    between atoms: N_2  and  C_4
REMARK    4  A    between atoms: C_4  and  C_5
REMARK    5  A    between atoms: C_5  and  N_6
REMARK    6  A    between atoms: N_6  and  C_7
REMARK    7  A    between atoms: C_7  and  C_8
REMARK    8  A    between atoms: C_15  and  C_17
REMARK    9  A    between atoms: N_20  and  C_21
REMARK                            x       y       z     vdW  Elec       q    Type
REMARK                         _______ _______ _______ _____ _____    ______ ____
ROOT
ATOM      1  N   UNL     1       4.029   6.342  17.952  0.00  0.00    +0.000 N 
ATOM      2  C   UNL     1       3.269   7.470  17.630  0.00  0.00    +0.000 C 
ATOM      3  O   UNL     1       3.350   8.027  16.529  0.00  0.00    +0.000 OA
ENDROOT
BRANCH   2   4
ATOM      4  C   UNL     1       2.249   8.087  18.543  0.00  0.00    +0.000 A 
ATOM      5  C   UNL     1       1.453   9.187  18.001  0.00  0.00    +0.000 A 
ATOM      6  C   UNL     1       0.644   9.913  18.771  0.00  0.00    +0.000 A 
ATOM      7  N   UNL     1       0.501   9.615  20.112  0.00  0.00    +0.000 N 
ATOM      8  C   UNL     1      -0.445  10.360  20.922  0.00  0.00    +0.000 C 
ATOM      9  C   UNL     1       1.201   8.576  20.709  0.00  0.00    +0.000 A 
ATOM     10  O   UNL     1       1.071   8.233  21.880  0.00  0.00    +0.000 OA
ATOM     11  C   UNL     1       2.185   7.862  19.863  0.00  0.00    +0.000 A 
ENDBRANCH   2   4
BRANCH   1  12
ATOM     12  C   UNL     1       4.953   5.727  16.946  0.00  0.00    +0.000 C 
BRANCH  12  13
ATOM     13  C   UNL     1       6.297   6.441  16.666  0.00  0.00    +0.000 C 
BRANCH  13  15
ATOM     14  C   UNL     1       7.823   6.711  18.467  0.00  0.00    +0.000 C 
ATOM     15  N   UNL     1       7.553   5.923  17.249  0.00  0.00    +0.000 NA
ATOM     16  C   UNL     1       7.498   4.507  17.591  0.00  0.00    +0.000 C 
ENDBRANCH  13  15
ENDBRANCH  12  13
ENDBRANCH   1  12
BRANCH   1  17
ATOM     17  C   UNL     1       3.893   5.566  19.202  0.00  0.00    +0.000 C 
BRANCH  17  18
ATOM     18  C   UNL     1       3.136   4.270  19.047  0.00  0.00    +0.000 A 
ATOM     19  C   UNL     1       1.730   4.245  19.069  0.00  0.00    +0.000 A 
ATOM     20  C   UNL     1       1.034   3.051  18.848  0.00  0.00    +0.000 A 
ATOM     21  C   UNL     1       1.735   1.868  18.626  0.00  0.00    +0.000 A 
ATOM     22  C   UNL     1       3.122   1.882  18.663  0.00  0.00    +0.000 A 
ATOM     23  F   UNL     1       3.800   0.743  18.469  0.00  0.00    +0.000 F 
ATOM     24  C   UNL     1       3.823   3.058  18.886  0.00  0.00    +0.000 A 
ENDBRANCH  17  18
ENDBRANCH   1  17
TORSDOF 6
ENDMDL
