MODEL 1
REMARK VINA RESULT:      -9.1      0.000      0.000
REMARK  Name = 
REMARK  5 active torsions:
REMARK  status: ('A' for Active; 'I' for Inactive)
REMARK    1  A    between atoms: C_1  and  N_2
REMARK    2  A    between atoms: N_8  and  C_9
REMARK    3  A    between atoms: C_9  and  C_10
REMARK    4  A    between atoms: C_13  and  C_14
REMARK    5  A    between atoms: C_23  and  N_24
REMARK                            x       y       z     vdW  Elec       q    Type
REMARK                         _______ _______ _______ _____ _____    ______ ____
ROOT
ATOM      1  C   UNL     1      -6.390  11.050  18.371  0.00  0.00    +0.000 C 
ATOM      2  N   UNL     1      -5.338  12.044  18.294  0.00  0.00    +0.000 N 
ATOM      3  C   UNL     1      -4.294  11.564  17.505  0.00  0.00    +0.000 C 
ATOM      4  O   UNL     1      -4.454  11.073  16.391  0.00  0.00    +0.000 OA
ATOM      5  C   UNL     1      -3.045  11.532  18.204  0.00  0.00    +0.000 A 
ATOM      6  C   UNL     1      -2.841  12.065  19.497  0.00  0.00    +0.000 A 
ATOM      7  N   UNL     1      -1.562  11.922  19.877  0.00  0.00    +0.000 NA
ATOM      8  N   UNL     1      -0.984  11.336  18.784  0.00  0.00    +0.000 N 
ATOM      9  C   UNL     1      -1.918  10.803  17.929  0.00  0.00    +0.000 A 
ATOM     10  N   UNL     1      -3.884  12.630  20.152  0.00  0.00    +0.000 N 
ATOM     11  C   UNL     1      -5.098  12.706  19.493  0.00  0.00    +0.000 C 
ATOM     12  N   UNL     1      -6.096  13.221  20.179  0.00  0.00    +0.000 NA
ATOM     13  C   UNL     1      -5.566  13.199  21.575  0.00  0.00    +0.000 C 
ATOM     14  C   UNL     1      -5.084  14.541  22.127  0.00  0.00    +0.000 C 
ATOM     15  C   UNL     1      -3.732  14.249  22.801  0.00  0.00    +0.000 C 
ATOM     16  C   UNL     1      -3.496  12.753  22.687  0.00  0.00    +0.000 C 
ATOM     17  C   UNL     1      -4.304  12.309  21.508  0.00  0.00    +0.000 C 
ENDROOT
BRANCH   9  18
ATOM     18  N   UNL     1      -1.670   9.807  17.045  0.00  0.00    +0.000 N 
ATOM     19  H   UNL     1      -0.875   9.190  17.204  0.00  0.00    +0.000 HD
ATOM     20  H   UNL     1      -2.481   9.264  16.736  0.00  0.00    +0.000 HD
ENDBRANCH   9  18
BRANCH   8  21
ATOM     21  C   UNL     1       0.455  11.342  18.572  0.00  0.00    +0.000 C 
BRANCH  21  22
ATOM     22  C   UNL     1       1.100  10.005  18.890  0.00  0.00    +0.000 A 
ATOM     23  C   UNL     1       0.997   9.462  20.176  0.00  0.00    +0.000 A 
ATOM     24  C   UNL     1       1.479   8.173  20.447  0.00  0.00    +0.000 A 
ATOM     25  C   UNL     1       2.089   7.376  19.456  0.00  0.00    +0.000 A 
ATOM     26  C   UNL     1       2.269   7.973  18.201  0.00  0.00    +0.000 A 
ATOM     27  C   UNL     1       1.789   9.263  17.910  0.00  0.00    +0.000 A 
BRANCH  25  28
ATOM     28  C   UNL     1       2.484   5.973  19.727  0.00  0.00    +0.000 A 
ATOM     29  C   UNL     1       1.679   5.094  20.445  0.00  0.00    +0.000 A 
ATOM     30  C   UNL     1       2.074   3.769  20.637  0.00  0.00    +0.000 A 
ATOM     31  C   UNL     1       3.267   3.348  20.090  0.00  0.00    +0.000 A 
ATOM     32  C   UNL     1       4.008   4.270  19.359  0.00  0.00    +0.000 A 
ATOM     33  F   UNL     1       5.168   3.861  18.832  0.00  0.00    +0.000 F 
ATOM     34  N   UNL     1       3.647   5.557  19.160  0.00  0.00    +0.000 NA
ENDBRANCH  25  28
ENDBRANCH  21  22
ENDBRANCH   8  21
TORSDOF 4
ENDMDL
MODEL 2
REMARK VINA RESULT:      -9.0      1.009      1.215
REMARK  Name = 
REMARK  5 active torsions:
REMARK  status: ('A' for Active; 'I' for Inactive)
REMARK    1  A    between atoms: C_1  and  N_2
REMARK    2  A    between atoms: N_8  and  C_9
REMARK    3  A    between atoms: C_9  and  C_10
REMARK    4  A    between atoms: C_13  and  C_14
REMARK    5  A    between atoms: C_23  and  N_24
REMARK                            x       y       z     vdW  Elec       q    Type
REMARK                         _______ _______ _______ _____ _____    ______ ____
ROOT
ATOM      1  C   UNL     1      -6.160  11.148  18.290  0.00  0.00    +0.000 C 
ATOM      2  N   UNL     1      -5.088  12.122  18.238  0.00  0.00    +0.000 N 
ATOM      3  C   UNL     1      -4.021  11.609  17.502  0.00  0.00    +0.000 C 
ATOM      4  O   UNL     1      -4.144  11.099  16.392  0.00  0.00    +0.000 OA
ATOM      5  C   UNL     1      -2.803  11.569  18.252  0.00  0.00    +0.000 A 
ATOM      6  C   UNL     1      -2.642  12.124  19.543  0.00  0.00    +0.000 A 
ATOM      7  N   UNL     1      -1.383  11.967  19.978  0.00  0.00    +0.000 NA
ATOM      8  N   UNL     1      -0.772  11.350  18.921  0.00  0.00    +0.000 N 
ATOM      9  C   UNL     1      -1.678  10.816  18.038  0.00  0.00    +0.000 A 
ATOM     10  N   UNL     1      -3.702  12.719  20.143  0.00  0.00    +0.000 N 
ATOM     11  C   UNL     1      -4.885  12.802  19.433  0.00  0.00    +0.000 C 
ATOM     12  N   UNL     1      -5.902  13.348  20.067  0.00  0.00    +0.000 NA
ATOM     13  C   UNL     1      -5.430  13.344  21.484  0.00  0.00    +0.000 C 
ATOM     14  C   UNL     1      -4.948  14.689  22.030  0.00  0.00    +0.000 C 
ATOM     15  C   UNL     1      -3.631  14.387  22.766  0.00  0.00    +0.000 C 
ATOM     16  C   UNL     1      -3.416  12.885  22.689  0.00  0.00    +0.000 C 
ATOM     17  C   UNL     1      -4.183  12.432  21.486  0.00  0.00    +0.000 C 
ENDROOT
BRANCH   9  18
ATOM     18  N   UNL     1      -1.412   9.799  17.184  0.00  0.00    +0.000 N 
ATOM     19  H   UNL     1      -1.940   8.931  17.268  0.00  0.00    +0.000 HD
ATOM     20  H   UNL     1      -1.305  10.053  16.198  0.00  0.00    +0.000 HD
ENDBRANCH   9  18
BRANCH   8  21
ATOM     21  C   UNL     1       0.675  11.328  18.769  0.00  0.00    +0.000 C 
BRANCH  21  22
ATOM     22  C   UNL     1       1.273   9.961  19.048  0.00  0.00    +0.000 A 
ATOM     23  C   UNL     1       1.047   9.331  20.278  0.00  0.00    +0.000 A 
ATOM     24  C   UNL     1       1.487   8.018  20.500  0.00  0.00    +0.000 A 
ATOM     25  C   UNL     1       2.176   7.281  19.514  0.00  0.00    +0.000 A 
ATOM     26  C   UNL     1       2.477   7.961  18.326  0.00  0.00    +0.000 A 
ATOM     27  C   UNL     1       2.040   9.276  18.084  0.00  0.00    +0.000 A 
BRANCH  25  28
ATOM     28  C   UNL     1       2.528   5.856  19.720  0.00  0.00    +0.000 A 
ATOM     29  C   UNL     1       3.584   5.242  19.053  0.00  0.00    +0.000 A 
ATOM     30  C   UNL     1       3.905   3.909  19.314  0.00  0.00    +0.000 A 
ATOM     31  C   UNL     1       3.166   3.220  20.251  0.00  0.00    +0.000 A 
ATOM     32  C   UNL     1       2.143   3.902  20.901  0.00  0.00    +0.000 A 
ATOM     33  F   UNL     1       1.423   3.232  21.807  0.00  0.00    +0.000 F 
ATOM     34  N   UNL     1       1.813   5.192  20.666  0.00  0.00    +0.000 NA
ENDBRANCH  25  28
ENDBRANCH  21  22
ENDBRANCH   8  21
TORSDOF 4
ENDMDL
MODEL 3
REMARK VINA RESULT:      -9.0      0.903      1.036
REMARK  Name = 
REMARK  5 active torsions:
REMARK  status: ('A' for Active; 'I' for Inactive)
REMARK    1  A    between atoms: C_1  and  N_2
REMARK    2  A    between atoms: N_8  and  C_9
REMARK    3  A    between atoms: C_9  and  C_10
REMARK    4  A    between atoms: C_13  and  C_14
REMARK    5  A    between atoms: C_23  and  N_24
REMARK                            x       y       z     vdW  Elec       q    Type
REMARK                         _______ _______ _______ _____ _____    ______ ____
ROOT
ATOM      1  C   UNL     1      -5.984  11.626  19.723  0.00  0.00    +0.000 C 
ATOM      2  N   UNL     1      -4.844  12.471  19.433  0.00  0.00    +0.000 N 
ATOM      3  C   UNL     1      -4.060  11.881  18.442  0.00  0.00    +0.000 C 
ATOM      4  O   UNL     1      -4.512  11.451  17.384  0.00  0.00    +0.000 OA
ATOM      5  C   UNL     1      -2.712  11.659  18.866  0.00  0.00    +0.000 A 
ATOM      6  C   UNL     1      -2.174  12.118  20.091  0.00  0.00    +0.000 A 
ATOM      7  N   UNL     1      -0.877  11.792  20.197  0.00  0.00    +0.000 NA
ATOM      8  N   UNL     1      -0.623  11.169  19.005  0.00  0.00    +0.000 N 
ATOM      9  C   UNL     1      -1.776  10.793  18.361  0.00  0.00    +0.000 A 
ATOM     10  N   UNL     1      -2.973  12.797  20.950  0.00  0.00    +0.000 N 
ATOM     11  C   UNL     1      -4.274  13.056  20.557  0.00  0.00    +0.000 C 
ATOM     12  N   UNL     1      -5.029  13.679  21.437  0.00  0.00    +0.000 NA
ATOM     13  C   UNL     1      -4.232  13.541  22.693  0.00  0.00    +0.000 C 
ATOM     14  C   UNL     1      -3.466  14.788  23.137  0.00  0.00    +0.000 C 
ATOM     15  C   UNL     1      -2.059  14.296  23.515  0.00  0.00    +0.000 C 
ATOM     16  C   UNL     1      -2.060  12.786  23.350  0.00  0.00    +0.000 C 
ATOM     17  C   UNL     1      -3.146  12.492  22.362  0.00  0.00    +0.000 C 
ENDROOT
BRANCH   9  18
ATOM     18  N   UNL     1      -1.856   9.802  17.442  0.00  0.00    +0.000 N 
ATOM     19  H   UNL     1      -2.769   9.546  17.068  0.00  0.00    +0.000 HD
ATOM     20  H   UNL     1      -1.161   9.825  16.690  0.00  0.00    +0.000 HD
ENDBRANCH   9  18
BRANCH   8  21
ATOM     21  C   UNL     1       0.729  10.988  18.500  0.00  0.00    +0.000 C 
BRANCH  21  22
ATOM     22  C   UNL     1       1.319   9.640  18.872  0.00  0.00    +0.000 A 
ATOM     23  C   UNL     1       1.160   9.136  20.169  0.00  0.00    +0.000 A 
ATOM     24  C   UNL     1       1.590   7.840  20.489  0.00  0.00    +0.000 A 
ATOM     25  C   UNL     1       2.202   6.996  19.538  0.00  0.00    +0.000 A 
ATOM     26  C   UNL     1       2.439   7.553  18.274  0.00  0.00    +0.000 A 
ATOM     27  C   UNL     1       2.011   8.849  17.934  0.00  0.00    +0.000 A 
BRANCH  25  28
ATOM     28  C   UNL     1       2.541   5.589  19.859  0.00  0.00    +0.000 A 
ATOM     29  C   UNL     1       1.966   4.905  20.925  0.00  0.00    +0.000 A 
ATOM     30  C   UNL     1       2.285   3.566  21.160  0.00  0.00    +0.000 A 
ATOM     31  C   UNL     1       3.166   2.935  20.309  0.00  0.00    +0.000 A 
ATOM     32  C   UNL     1       3.681   3.670  19.247  0.00  0.00    +0.000 A 
ATOM     33  F   UNL     1       4.541   3.058  18.424  0.00  0.00    +0.000 F 
ATOM     34  N   UNL     1       3.389   4.966  18.999  0.00  0.00    +0.000 NA
ENDBRANCH  25  28
ENDBRANCH  21  22
ENDBRANCH   8  21
TORSDOF 4
ENDMDL
MODEL 4
REMARK VINA RESULT:      -8.7      0.873      1.284
REMARK  Name = 
REMARK  5 active torsions:
REMARK  status: ('A' for Active; 'I' for Inactive)
REMARK    1  A    between atoms: C_1  and  N_2
REMARK    2  A    between atoms: N_8  and  C_9
REMARK    3  A    between atoms: C_9  and  C_10
REMARK    4  A    between atoms: C_13  and  C_14
REMARK    5  A    between atoms: C_23  and  N_24
REMARK                            x       y       z     vdW  Elec       q    Type
REMARK                         _______ _______ _______ _____ _____    ______ ____
ROOT
ATOM      1  C   UNL     1      -5.960  11.553  19.126  0.00  0.00    +0.000 C 
ATOM      2  N   UNL     1      -4.807  12.423  19.010  0.00  0.00    +0.000 N 
ATOM      3  C   UNL     1      -3.894  11.877  18.108  0.00  0.00    +0.000 C 
ATOM      4  O   UNL     1      -4.201  11.477  16.988  0.00  0.00    +0.000 OA
ATOM      5  C   UNL     1      -2.606  11.658  18.693  0.00  0.00    +0.000 A 
ATOM      6  C   UNL     1      -2.236  12.083  19.990  0.00  0.00    +0.000 A 
ATOM      7  N   UNL     1      -0.957  11.771  20.249  0.00  0.00    +0.000 NA
ATOM      8  N   UNL     1      -0.543  11.192  19.080  0.00  0.00    +0.000 N 
ATOM      9  C   UNL     1      -1.599  10.823  18.283  0.00  0.00    +0.000 A 
ATOM     10  N   UNL     1      -3.148  12.722  20.761  0.00  0.00    +0.000 N 
ATOM     11  C   UNL     1      -4.393  12.977  20.216  0.00  0.00    +0.000 C 
ATOM     12  N   UNL     1      -5.264  13.560  21.012  0.00  0.00    +0.000 NA
ATOM     13  C   UNL     1      -4.630  13.390  22.353  0.00  0.00    +0.000 C 
ATOM     14  C   UNL     1      -3.948  14.631  22.931  0.00  0.00    +0.000 C 
ATOM     15  C   UNL     1      -2.591  14.145  23.469  0.00  0.00    +0.000 C 
ATOM     16  C   UNL     1      -2.545  12.641  23.256  0.00  0.00    +0.000 C 
ATOM     17  C   UNL     1      -3.493  12.367  22.130  0.00  0.00    +0.000 C 
ENDROOT
BRANCH   9  18
ATOM     18  N   UNL     1      -1.545   9.862  17.330  0.00  0.00    +0.000 N 
ATOM     19  H   UNL     1      -2.042   8.986  17.481  0.00  0.00    +0.000 HD
ATOM     20  H   UNL     1      -1.670  10.176  16.363  0.00  0.00    +0.000 HD
ENDBRANCH   9  18
BRANCH   8  21
ATOM     21  C   UNL     1       0.865  11.046  18.744  0.00  0.00    +0.000 C 
BRANCH  21  22
ATOM     22  C   UNL     1       1.353   9.615  18.874  0.00  0.00    +0.000 A 
ATOM     23  C   UNL     1       1.901   8.955  17.767  0.00  0.00    +0.000 A 
ATOM     24  C   UNL     1       2.470   7.680  17.905  0.00  0.00    +0.000 A 
ATOM     25  C   UNL     1       2.512   7.007  19.143  0.00  0.00    +0.000 A 
ATOM     26  C   UNL     1       1.874   7.642  20.218  0.00  0.00    +0.000 A 
ATOM     27  C   UNL     1       1.302   8.921  20.100  0.00  0.00    +0.000 A 
BRANCH  25  28
ATOM     28  C   UNL     1       3.222   5.715  19.298  0.00  0.00    +0.000 A 
ATOM     29  C   UNL     1       2.592   4.566  19.764  0.00  0.00    +0.000 A 
ATOM     30  C   UNL     1       3.293   3.362  19.850  0.00  0.00    +0.000 A 
ATOM     31  C   UNL     1       4.612   3.332  19.451  0.00  0.00    +0.000 A 
ATOM     32  C   UNL     1       5.171   4.510  18.968  0.00  0.00    +0.000 A 
ATOM     33  F   UNL     1       6.452   4.481  18.585  0.00  0.00    +0.000 F 
ATOM     34  N   UNL     1       4.514   5.687  18.875  0.00  0.00    +0.000 NA
ENDBRANCH  25  28
ENDBRANCH  21  22
ENDBRANCH   8  21
TORSDOF 4
ENDMDL
MODEL 5
REMARK VINA RESULT:      -8.7      1.334      1.892
REMARK  Name = 
REMARK  5 active torsions:
REMARK  status: ('A' for Active; 'I' for Inactive)
REMARK    1  A    between atoms: C_1  and  N_2
REMARK    2  A    between atoms: N_8  and  C_9
REMARK    3  A    between atoms: C_9  and  C_10
REMARK    4  A    between atoms: C_13  and  C_14
REMARK    5  A    between atoms: C_23  and  N_24
REMARK                            x       y       z     vdW  Elec       q    Type
REMARK                         _______ _______ _______ _____ _____    ______ ____
ROOT
ATOM      1  C   UNL     1      -5.590  11.772  19.503  0.00  0.00    +0.000 C 
ATOM      2  N   UNL     1      -4.384  12.554  19.325  0.00  0.00    +0.000 N 
ATOM      3  C   UNL     1      -3.571  11.954  18.363  0.00  0.00    +0.000 C 
ATOM      4  O   UNL     1      -3.974  11.595  17.260  0.00  0.00    +0.000 OA
ATOM      5  C   UNL     1      -2.270  11.632  18.865  0.00  0.00    +0.000 A 
ATOM      6  C   UNL     1      -1.791  12.009  20.141  0.00  0.00    +0.000 A 
ATOM      7  N   UNL     1      -0.526  11.598  20.318  0.00  0.00    +0.000 NA
ATOM      8  N   UNL     1      -0.229  11.007  19.120  0.00  0.00    +0.000 N 
ATOM      9  C   UNL     1      -1.356  10.730  18.386  0.00  0.00    +0.000 A 
ATOM     10  N   UNL     1      -2.604  12.703  20.974  0.00  0.00    +0.000 N 
ATOM     11  C   UNL     1      -3.857  13.058  20.508  0.00  0.00    +0.000 C 
ATOM     12  N   UNL     1      -4.632  13.693  21.363  0.00  0.00    +0.000 NA
ATOM     13  C   UNL     1      -3.932  13.456  22.660  0.00  0.00    +0.000 C 
ATOM     14  C   UNL     1      -3.125  14.635  23.207  0.00  0.00    +0.000 C 
ATOM     15  C   UNL     1      -1.779  14.041  23.656  0.00  0.00    +0.000 C 
ATOM     16  C   UNL     1      -1.859  12.541  23.426  0.00  0.00    +0.000 C 
ATOM     17  C   UNL     1      -2.891  12.355  22.358  0.00  0.00    +0.000 C 
ENDROOT
BRANCH   9  18
ATOM     18  N   UNL     1      -1.432   9.782  17.422  0.00  0.00    +0.000 N 
ATOM     19  H   UNL     1      -0.708   9.746  16.705  0.00  0.00    +0.000 HD
ATOM     20  H   UNL     1      -1.665   8.835  17.735  0.00  0.00    +0.000 HD
ENDBRANCH   9  18
BRANCH   8  21
ATOM     21  C   UNL     1       1.141  10.761  18.697  0.00  0.00    +0.000 C 
BRANCH  21  22
ATOM     22  C   UNL     1       1.550   9.307  18.847  0.00  0.00    +0.000 A 
ATOM     23  C   UNL     1       2.114   8.619  17.767  0.00  0.00    +0.000 A 
ATOM     24  C   UNL     1       2.610   7.317  17.930  0.00  0.00    +0.000 A 
ATOM     25  C   UNL     1       2.560   6.645  19.168  0.00  0.00    +0.000 A 
ATOM     26  C   UNL     1       1.906   7.312  20.213  0.00  0.00    +0.000 A 
ATOM     27  C   UNL     1       1.406   8.619  20.069  0.00  0.00    +0.000 A 
BRANCH  25  28
ATOM     28  C   UNL     1       3.196   5.318  19.354  0.00  0.00    +0.000 A 
ATOM     29  C   UNL     1       4.477   5.032  18.894  0.00  0.00    +0.000 A 
ATOM     30  C   UNL     1       5.050   3.782  19.132  0.00  0.00    +0.000 A 
ATOM     31  C   UNL     1       4.329   2.846  19.841  0.00  0.00    +0.000 A 
ATOM     32  C   UNL     1       3.066   3.208  20.296  0.00  0.00    +0.000 A 
ATOM     33  F   UNL     1       2.365   2.297  20.981  0.00  0.00    +0.000 F 
ATOM     34  N   UNL     1       2.490   4.411  20.078  0.00  0.00    +0.000 NA
ENDBRANCH  25  28
ENDBRANCH  21  22
ENDBRANCH   8  21
TORSDOF 4
ENDMDL
MODEL 6
REMARK VINA RESULT:      -8.6      0.836      1.427
REMARK  Name = 
REMARK  5 active torsions:
REMARK  status: ('A' for Active; 'I' for Inactive)
REMARK    1  A    between atoms: C_1  and  N_2
REMARK    2  A    between atoms: N_8  and  C_9
REMARK    3  A    between atoms: C_9  and  C_10
REMARK    4  A    between atoms: C_13  and  C_14
REMARK    5  A    between atoms: C_23  and  N_24
REMARK                            x       y       z     vdW  Elec       q    Type
REMARK                         _______ _______ _______ _____ _____    ______ ____
ROOT
ATOM      1  C   UNL     1      -6.252  11.162  18.276  0.00  0.00    +0.000 C 
ATOM      2  N   UNL     1      -5.160  12.114  18.240  0.00  0.00    +0.000 N 
ATOM      3  C   UNL     1      -4.093  11.580  17.519  0.00  0.00    +0.000 C 
ATOM      4  O   UNL     1      -4.211  11.073  16.406  0.00  0.00    +0.000 OA
ATOM      5  C   UNL     1      -2.887  11.514  18.286  0.00  0.00    +0.000 A 
ATOM      6  C   UNL     1      -2.734  12.066  19.580  0.00  0.00    +0.000 A 
ATOM      7  N   UNL     1      -1.484  11.882  20.033  0.00  0.00    +0.000 NA
ATOM      8  N   UNL     1      -0.871  11.253  18.984  0.00  0.00    +0.000 N 
ATOM      9  C   UNL     1      -1.775  10.738  18.088  0.00  0.00    +0.000 A 
ATOM     10  N   UNL     1      -3.789  12.682  20.165  0.00  0.00    +0.000 N 
ATOM     11  C   UNL     1      -4.961  12.790  19.438  0.00  0.00    +0.000 C 
ATOM     12  N   UNL     1      -5.975  13.357  20.058  0.00  0.00    +0.000 NA
ATOM     13  C   UNL     1      -5.523  13.342  21.481  0.00  0.00    +0.000 C 
ATOM     14  C   UNL     1      -5.021  14.676  22.035  0.00  0.00    +0.000 C 
ATOM     15  C   UNL     1      -3.721  14.347  22.789  0.00  0.00    +0.000 C 
ATOM     16  C   UNL     1      -3.536  12.841  22.715  0.00  0.00    +0.000 C 
ATOM     17  C   UNL     1      -4.295  12.404  21.501  0.00  0.00    +0.000 C 
ENDROOT
BRANCH   9  18
ATOM     18  N   UNL     1      -1.518   9.716  17.237  0.00  0.00    +0.000 N 
ATOM     19  H   UNL     1      -1.733   8.763  17.529  0.00  0.00    +0.000 HD
ATOM     20  H   UNL     1      -1.798   9.858  16.262  0.00  0.00    +0.000 HD
ENDBRANCH   9  18
BRANCH   8  21
ATOM     21  C   UNL     1       0.577  11.201  18.853  0.00  0.00    +0.000 C 
BRANCH  21  22
ATOM     22  C   UNL     1       1.123   9.787  18.935  0.00  0.00    +0.000 A 
ATOM     23  C   UNL     1       1.707   9.191  17.810  0.00  0.00    +0.000 A 
ATOM     24  C   UNL     1       2.326   7.937  17.908  0.00  0.00    +0.000 A 
ATOM     25  C   UNL     1       2.385   7.220  19.121  0.00  0.00    +0.000 A 
ATOM     26  C   UNL     1       1.712   7.788  20.212  0.00  0.00    +0.000 A 
ATOM     27  C   UNL     1       1.089   9.047  20.134  0.00  0.00    +0.000 A 
BRANCH  25  28
ATOM     28  C   UNL     1       3.146   5.954  19.235  0.00  0.00    +0.000 A 
ATOM     29  C   UNL     1       4.485   5.850  18.871  0.00  0.00    +0.000 A 
ATOM     30  C   UNL     1       5.171   4.646  19.038  0.00  0.00    +0.000 A 
ATOM     31  C   UNL     1       4.503   3.572  19.583  0.00  0.00    +0.000 A 
ATOM     32  C   UNL     1       3.175   3.753  19.953  0.00  0.00    +0.000 A 
ATOM     33  F   UNL     1       2.525   2.708  20.477  0.00  0.00    +0.000 F 
ATOM     34  N   UNL     1       2.488   4.907  19.800  0.00  0.00    +0.000 NA
ENDBRANCH  25  28
ENDBRANCH  21  22
ENDBRANCH   8  21
TORSDOF 4
ENDMDL
MODEL 7
REMARK VINA RESULT:      -8.2      2.132      3.570
REMARK  Name = 
REMARK  5 active torsions:
REMARK  status: ('A' for Active; 'I' for Inactive)
REMARK    1  A    between atoms: C_1  and  N_2
REMARK    2  A    between atoms: N_8  and  C_9
REMARK    3  A    between atoms: C_9  and  C_10
REMARK    4  A    between atoms: C_13  and  C_14
REMARK    5  A    between atoms: C_23  and  N_24
REMARK                            x       y       z     vdW  Elec       q    Type
REMARK                         _______ _______ _______ _____ _____    ______ ____
ROOT
ATOM      1  C   UNL     1      -4.542  14.291  23.127  0.00  0.00    +0.000 C 
ATOM      2  N   UNL     1      -3.919  13.065  22.671  0.00  0.00    +0.000 N 
ATOM      3  C   UNL     1      -2.533  13.217  22.663  0.00  0.00    +0.000 C 
ATOM      4  O   UNL     1      -1.891  13.655  23.615  0.00  0.00    +0.000 OA
ATOM      5  C   UNL     1      -1.961  12.987  21.372  0.00  0.00    +0.000 A 
ATOM      6  C   UNL     1      -2.682  12.509  20.253  0.00  0.00    +0.000 A 
ATOM      7  N   UNL     1      -1.875  12.357  19.192  0.00  0.00    +0.000 NA
ATOM      8  N   UNL     1      -0.650  12.706  19.691  0.00  0.00    +0.000 N 
ATOM      9  C   UNL     1      -0.750  13.394  20.876  0.00  0.00    +0.000 A 
ATOM     10  N   UNL     1      -4.010  12.266  20.378  0.00  0.00    +0.000 N 
ATOM     11  C   UNL     1      -4.587  12.448  21.621  0.00  0.00    +0.000 C 
ATOM     12  N   UNL     1      -5.886  12.243  21.689  0.00  0.00    +0.000 NA
ATOM     13  C   UNL     1      -6.281  12.230  20.249  0.00  0.00    +0.000 C 
ATOM     14  C   UNL     1      -6.550  10.851  19.645  0.00  0.00    +0.000 C 
ATOM     15  C   UNL     1      -5.821  10.845  18.289  0.00  0.00    +0.000 C 
ATOM     16  C   UNL     1      -5.212  12.225  18.109  0.00  0.00    +0.000 C 
ATOM     17  C   UNL     1      -5.048  12.773  19.492  0.00  0.00    +0.000 C 
ENDROOT
BRANCH   9  18
ATOM     18  N   UNL     1       0.196  14.235  21.359  0.00  0.00    +0.000 N 
ATOM     19  H   UNL     1       1.141  13.883  21.509  0.00  0.00    +0.000 HD
ATOM     20  H   UNL     1       0.229  15.168  20.939  0.00  0.00    +0.000 HD
ENDBRANCH   9  18
BRANCH   8  21
ATOM     21  C   UNL     1       0.591  12.330  19.031  0.00  0.00    +0.000 C 
BRANCH  21  22
ATOM     22  C   UNL     1       0.901  10.850  19.163  0.00  0.00    +0.000 A 
ATOM     23  C   UNL     1       1.397  10.134  18.068  0.00  0.00    +0.000 A 
ATOM     24  C   UNL     1       1.805   8.800  18.212  0.00  0.00    +0.000 A 
ATOM     25  C   UNL     1       1.730   8.122  19.447  0.00  0.00    +0.000 A 
ATOM     26  C   UNL     1       1.142   8.824  20.508  0.00  0.00    +0.000 A 
ATOM     27  C   UNL     1       0.731  10.163  20.382  0.00  0.00    +0.000 A 
BRANCH  25  28
ATOM     28  C   UNL     1       2.276   6.753  19.611  0.00  0.00    +0.000 A 
ATOM     29  C   UNL     1       3.380   6.297  18.897  0.00  0.00    +0.000 A 
ATOM     30  C   UNL     1       3.884   5.015  19.120  0.00  0.00    +0.000 A 
ATOM     31  C   UNL     1       3.278   4.219  20.067  0.00  0.00    +0.000 A 
ATOM     32  C   UNL     1       2.198   4.748  20.765  0.00  0.00    +0.000 A 
ATOM     33  F   UNL     1       1.607   3.973  21.682  0.00  0.00    +0.000 F 
ATOM     34  N   UNL     1       1.691   5.985  20.568  0.00  0.00    +0.000 NA
ENDBRANCH  25  28
ENDBRANCH  21  22
ENDBRANCH   8  21
TORSDOF 4
ENDMDL
MODEL 8
REMARK VINA RESULT:      -8.2      2.081      3.450
REMARK  Name = 
REMARK  5 active torsions:
REMARK  status: ('A' for Active; 'I' for Inactive)
REMARK    1  A    between atoms: C_1  and  N_2
REMARK    2  A    between atoms: N_8  and  C_9
REMARK    3  A    between atoms: C_9  and  C_10
REMARK    4  A    between atoms: C_13  and  C_14
REMARK    5  A    between atoms: C_23  and  N_24
REMARK                            x       y       z     vdW  Elec       q    Type
REMARK                         _______ _______ _______ _____ _____    ______ ____
ROOT
ATOM      1  C   UNL     1      -4.097  14.403  23.598  0.00  0.00    +0.000 C 
ATOM      2  N   UNL     1      -3.567  13.160  23.077  0.00  0.00    +0.000 N 
ATOM      3  C   UNL     1      -2.179  13.246  22.970  0.00  0.00    +0.000 C 
ATOM      4  O   UNL     1      -1.451  13.635  23.880  0.00  0.00    +0.000 OA
ATOM      5  C   UNL     1      -1.714  13.017  21.637  0.00  0.00    +0.000 A 
ATOM      6  C   UNL     1      -2.536  12.596  20.566  0.00  0.00    +0.000 A 
ATOM      7  N   UNL     1      -1.815  12.429  19.446  0.00  0.00    +0.000 NA
ATOM      8  N   UNL     1      -0.542  12.710  19.861  0.00  0.00    +0.000 N 
ATOM      9  C   UNL     1      -0.523  13.378  21.061  0.00  0.00    +0.000 A 
ATOM     10  N   UNL     1      -3.861  12.413  20.782  0.00  0.00    +0.000 N 
ATOM     11  C   UNL     1      -4.338  12.596  22.067  0.00  0.00    +0.000 C 
ATOM     12  N   UNL     1      -5.637  12.451  22.226  0.00  0.00    +0.000 NA
ATOM     13  C   UNL     1      -6.134  12.485  20.819  0.00  0.00    +0.000 C 
ATOM     14  C   UNL     1      -6.512  11.133  20.212  0.00  0.00    +0.000 C 
ATOM     15  C   UNL     1      -5.884  11.121  18.807  0.00  0.00    +0.000 C 
ATOM     16  C   UNL     1      -5.224  12.474  18.607  0.00  0.00    +0.000 C 
ATOM     17  C   UNL     1      -4.934  12.986  19.984  0.00  0.00    +0.000 C 
ENDROOT
BRANCH   9  18
ATOM     18  N   UNL     1       0.494  14.163  21.488  0.00  0.00    +0.000 N 
ATOM     19  H   UNL     1       0.310  15.146  21.687  0.00  0.00    +0.000 HD
ATOM     20  H   UNL     1       1.101  13.765  22.210  0.00  0.00    +0.000 HD
ENDBRANCH   9  18
BRANCH   8  21
ATOM     21  C   UNL     1       0.628  12.291  19.105  0.00  0.00    +0.000 C 
BRANCH  21  22
ATOM     22  C   UNL     1       0.924  10.809  19.256  0.00  0.00    +0.000 A 
ATOM     23  C   UNL     1       1.526  10.102  18.209  0.00  0.00    +0.000 A 
ATOM     24  C   UNL     1       1.918   8.766  18.383  0.00  0.00    +0.000 A 
ATOM     25  C   UNL     1       1.721   8.078  19.598  0.00  0.00    +0.000 A 
ATOM     26  C   UNL     1       1.031   8.772  20.601  0.00  0.00    +0.000 A 
ATOM     27  C   UNL     1       0.634  10.113  20.446  0.00  0.00    +0.000 A 
BRANCH  25  28
ATOM     28  C   UNL     1       2.248   6.708  19.805  0.00  0.00    +0.000 A 
ATOM     29  C   UNL     1       1.673   5.812  20.701  0.00  0.00    +0.000 A 
ATOM     30  C   UNL     1       2.179   4.517  20.828  0.00  0.00    +0.000 A 
ATOM     31  C   UNL     1       3.246   4.142  20.041  0.00  0.00    +0.000 A 
ATOM     32  C   UNL     1       3.753   5.077  19.146  0.00  0.00    +0.000 A 
ATOM     33  F   UNL     1       4.792   4.713  18.386  0.00  0.00    +0.000 F 
ATOM     34  N   UNL     1       3.282   6.336  19.005  0.00  0.00    +0.000 NA
ENDBRANCH  25  28
ENDBRANCH  21  22
ENDBRANCH   8  21
TORSDOF 4
ENDMDL
MODEL 9
REMARK VINA RESULT:      -8.0      3.854      5.834
REMARK  Name = 
REMARK  5 active torsions:
REMARK  status: ('A' for Active; 'I' for Inactive)
REMARK    1  A    between atoms: C_1  and  N_2
REMARK    2  A    between atoms: N_8  and  C_9
REMARK    3  A    between atoms: C_9  and  C_10
REMARK    4  A    between atoms: C_13  and  C_14
REMARK    5  A    between atoms: C_23  and  N_24
REMARK                            x       y       z     vdW  Elec       q    Type
REMARK                         _______ _______ _______ _____ _____    ______ ____
ROOT
ATOM      1  C   UNL     1       1.746  16.332  22.928  0.00  0.00    +0.000 C 
ATOM      2  N   UNL     1       1.006  15.989  21.731  0.00  0.00    +0.000 N 
ATOM      3  C   UNL     1       0.161  14.910  21.992  0.00  0.00    +0.000 C 
ATOM      4  O   UNL     1      -0.601  14.861  22.954  0.00  0.00    +0.000 OA
ATOM      5  C   UNL     1       0.411  13.794  21.132  0.00  0.00    +0.000 A 
ATOM      6  C   UNL     1       1.303  13.816  20.035  0.00  0.00    +0.000 A 
ATOM      7  N   UNL     1       1.301  12.637  19.393  0.00  0.00    +0.000 NA
ATOM      8  N   UNL     1       0.368  11.916  20.087  0.00  0.00    +0.000 N 
ATOM      9  C   UNL     1       0.085  12.475  21.309  0.00  0.00    +0.000 A 
ATOM     10  N   UNL     1       1.997  14.949  19.770  0.00  0.00    +0.000 N 
ATOM     11  C   UNL     1       1.756  16.056  20.563  0.00  0.00    +0.000 C 
ATOM     12  N   UNL     1       2.483  17.123  20.301  0.00  0.00    +0.000 NA
ATOM     13  C   UNL     1       3.564  16.564  19.436  0.00  0.00    +0.000 C 
ATOM     14  C   UNL     1       3.428  16.842  17.937  0.00  0.00    +0.000 C 
ATOM     15  C   UNL     1       3.718  15.501  17.241  0.00  0.00    +0.000 C 
ATOM     16  C   UNL     1       4.077  14.506  18.331  0.00  0.00    +0.000 C 
ATOM     17  C   UNL     1       3.438  15.031  19.579  0.00  0.00    +0.000 C 
ENDROOT
BRANCH   9  18
ATOM     18  N   UNL     1      -0.418  11.795  22.368  0.00  0.00    +0.000 N 
ATOM     19  H   UNL     1      -0.696  10.822  22.244  0.00  0.00    +0.000 HD
ATOM     20  H   UNL     1       0.078  11.910  23.256  0.00  0.00    +0.000 HD
ENDBRANCH   9  18
BRANCH   8  21
ATOM     21  C   UNL     1      -0.259  10.726  19.532  0.00  0.00    +0.000 C 
BRANCH  21  22
ATOM     22  C   UNL     1       0.728   9.595  19.307  0.00  0.00    +0.000 A 
ATOM     23  C   UNL     1       1.081   8.747  20.363  0.00  0.00    +0.000 A 
ATOM     24  C   UNL     1       1.892   7.625  20.138  0.00  0.00    +0.000 A 
ATOM     25  C   UNL     1       2.391   7.304  18.859  0.00  0.00    +0.000 A 
ATOM     26  C   UNL     1       2.106   8.216  17.833  0.00  0.00    +0.000 A 
ATOM     27  C   UNL     1       1.292   9.344  18.039  0.00  0.00    +0.000 A 
BRANCH  25  28
ATOM     28  C   UNL     1       3.145   6.051  18.615  0.00  0.00    +0.000 A 
ATOM     29  C   UNL     1       4.377   5.792  19.208  0.00  0.00    +0.000 A 
ATOM     30  C   UNL     1       5.028   4.578  18.982  0.00  0.00    +0.000 A 
ATOM     31  C   UNL     1       4.421   3.640  18.176  0.00  0.00    +0.000 A 
ATOM     32  C   UNL     1       3.177   3.952  17.640  0.00  0.00    +0.000 A 
ATOM     33  F   UNL     1       2.590   3.043  16.853  0.00  0.00    +0.000 F 
ATOM     34  N   UNL     1       2.527   5.119  17.842  0.00  0.00    +0.000 NA
ENDBRANCH  25  28
ENDBRANCH  21  22
ENDBRANCH   8  21
TORSDOF 4
ENDMDL
