MODEL 1
REMARK VINA RESULT:      -8.9      0.000      0.000
REMARK  Name = 
REMARK  5 active torsions:
REMARK  status: ('A' for Active; 'I' for Inactive)
REMARK    1  A    between atoms: C_1  and  C_2
REMARK    2  A    between atoms: C_2  and  C_3
REMARK    3  A    between atoms: C_7  and  N_8
REMARK    4  A    between atoms: C_9  and  C_11
REMARK    5  A    between atoms: C_24  and  C_25
REMARK                            x       y       z     vdW  Elec       q    Type
REMARK                         _______ _______ _______ _____ _____    ______ ____
ROOT
ATOM      1  C   UNL     1       4.583   5.549  17.565  0.00  0.00    +0.000 A 
ATOM      2  C   UNL     1       3.700   6.482  17.960  0.00  0.00    +0.000 A 
ATOM      3  N   UNL     1       3.077   6.458  19.170  0.00  0.00    +0.000 N 
ATOM      4  C   UNL     1       2.957   5.248  19.874  0.00  0.00    +0.000 A 
ATOM      5  C   UNL     1       1.923   5.091  20.821  0.00  0.00    +0.000 A 
ATOM      6  C   UNL     1       1.769   3.854  21.439  0.00  0.00    +0.000 A 
ATOM      7  C   UNL     1       2.641   2.798  21.131  0.00  0.00    +0.000 A 
ATOM      8  C   UNL     1       3.693   2.966  20.221  0.00  0.00    +0.000 A 
ATOM      9 CL   UNL     1       4.696   1.605  19.891  0.00  0.00    +0.000 Cl
ATOM     10  C   UNL     1       3.850   4.202  19.581  0.00  0.00    +0.000 A 
ATOM     11  C   UNL     1       4.914   4.508  18.575  0.00  0.00    +0.000 A 
ATOM     12  O   UNL     1       6.022   3.987  18.579  0.00  0.00    +0.000 OA
ATOM     13  O   UNL     1       1.053   6.107  21.158  0.00  0.00    +0.000 OA
ATOM     14  C   UNL     1       1.132   7.277  20.302  0.00  0.00    +0.000 C 
ATOM     15  C   UNL     1       0.552   8.493  21.020  0.00  0.00    +0.000 C 
ATOM     16  C   UNL     1       2.570   7.593  19.907  0.00  0.00    +0.000 C 
ENDROOT
BRANCH   1  18
ATOM     17  N   UNL     1       5.612   4.539  15.632  0.00  0.00    +0.000 N 
ATOM     18  C   UNL     1       5.144   5.697  16.204  0.00  0.00    +0.000 C 
ATOM     19  O   UNL     1       5.155   6.813  15.684  0.00  0.00    +0.000 OA
ATOM     20  H   UNL     1       5.615   3.700  16.214  0.00  0.00    +0.000 HD
BRANCH  17  25
ATOM     21  C   UNL     1       6.112   3.298  12.171  0.00  0.00    +0.000 A 
ATOM     22  C   UNL     1       7.210   4.059  11.752  0.00  0.00    +0.000 A 
ATOM     23  C   UNL     1       7.778   4.992  12.606  0.00  0.00    +0.000 A 
ATOM     24  C   UNL     1       7.258   5.168  13.888  0.00  0.00    +0.000 A 
ATOM     25  C   UNL     1       6.162   4.420  14.330  0.00  0.00    +0.000 A 
ATOM     26  C   UNL     1       5.584   3.498  13.461  0.00  0.00    +0.000 A 
BRANCH  21  28
ATOM     27  C   UNL     1       6.617   1.142  11.052  0.00  0.00    +0.000 C 
ATOM     28  C   UNL     1       5.563   2.213  11.284  0.00  0.00    +0.000 C 
ENDBRANCH  21  28
ENDBRANCH  17  25
ENDBRANCH   1  18
TORSDOF 3
ENDMDL
MODEL 2
REMARK VINA RESULT:      -8.4      3.416      7.771
REMARK  Name = 
REMARK  5 active torsions:
REMARK  status: ('A' for Active; 'I' for Inactive)
REMARK    1  A    between atoms: C_1  and  C_2
REMARK    2  A    between atoms: C_2  and  C_3
REMARK    3  A    between atoms: C_7  and  N_8
REMARK    4  A    between atoms: C_9  and  C_11
REMARK    5  A    between atoms: C_24  and  C_25
REMARK                            x       y       z     vdW  Elec       q    Type
REMARK                         _______ _______ _______ _____ _____    ______ ____
ROOT
ATOM      1  C   UNL     1       2.567   7.373  18.479  0.00  0.00    +0.000 A 
ATOM      2  C   UNL     1       2.007   6.576  19.406  0.00  0.00    +0.000 A 
ATOM      3  N   UNL     1       2.456   5.321  19.684  0.00  0.00    +0.000 N 
ATOM      4  C   UNL     1       3.208   4.617  18.730  0.00  0.00    +0.000 A 
ATOM      5  C   UNL     1       3.239   3.206  18.767  0.00  0.00    +0.000 A 
ATOM      6  C   UNL     1       3.915   2.528  17.759  0.00  0.00    +0.000 A 
ATOM      7  C   UNL     1       4.564   3.243  16.740  0.00  0.00    +0.000 A 
ATOM      8  C   UNL     1       4.568   4.644  16.724  0.00  0.00    +0.000 A 
ATOM      9 CL   UNL     1       5.370   5.432  15.420  0.00  0.00    +0.000 Cl
ATOM     10  C   UNL     1       3.878   5.339  17.726  0.00  0.00    +0.000 A 
ATOM     11  C   UNL     1       3.783   6.830  17.815  0.00  0.00    +0.000 A 
ATOM     12  O   UNL     1       4.657   7.590  17.417  0.00  0.00    +0.000 OA
ATOM     13  O   UNL     1       2.623   2.469  19.757  0.00  0.00    +0.000 OA
ATOM     14  C   UNL     1       1.749   3.236  20.626  0.00  0.00    +0.000 C 
ATOM     15  C   UNL     1       1.536   2.495  21.944  0.00  0.00    +0.000 C 
ATOM     16  C   UNL     1       2.325   4.612  20.936  0.00  0.00    +0.000 C 
ENDROOT
BRANCH   1  18
ATOM     17  N   UNL     1       1.096   9.110  19.272  0.00  0.00    +0.000 N 
ATOM     18  C   UNL     1       1.938   8.694  18.269  0.00  0.00    +0.000 C 
ATOM     19  O   UNL     1       2.200   9.322  17.242  0.00  0.00    +0.000 OA
ATOM     20  H   UNL     1       0.907   8.448  20.026  0.00  0.00    +0.000 HD
BRANCH  17  25
ATOM     21  C   UNL     1      -1.635  11.582  18.826  0.00  0.00    +0.000 A 
ATOM     22  C   UNL     1      -1.035  12.756  19.295  0.00  0.00    +0.000 A 
ATOM     23  C   UNL     1       0.266  12.732  19.771  0.00  0.00    +0.000 A 
ATOM     24  C   UNL     1       0.982  11.534  19.778  0.00  0.00    +0.000 A 
ATOM     25  C   UNL     1       0.405  10.348  19.315  0.00  0.00    +0.000 A 
ATOM     26  C   UNL     1      -0.910  10.375  18.854  0.00  0.00    +0.000 A 
BRANCH  21  28
ATOM     27  C   UNL     1      -3.380  10.262  17.654  0.00  0.00    +0.000 C 
ATOM     28  C   UNL     1      -3.008  11.628  18.211  0.00  0.00    +0.000 C 
ENDBRANCH  21  28
ENDBRANCH  17  25
ENDBRANCH   1  18
TORSDOF 3
ENDMDL
MODEL 3
REMARK VINA RESULT:      -8.1      4.393      7.436
REMARK  Name = 
REMARK  5 active torsions:
REMARK  status: ('A' for Active; 'I' for Inactive)
REMARK    1  A    between atoms: C_1  and  C_2
REMARK    2  A    between atoms: C_2  and  C_3
REMARK    3  A    between atoms: C_7  and  N_8
REMARK    4  A    between atoms: C_9  and  C_11
REMARK    5  A    between atoms: C_24  and  C_25
REMARK                            x       y       z     vdW  Elec       q    Type
REMARK                         _______ _______ _______ _____ _____    ______ ____
ROOT
ATOM      1  C   UNL     1       1.277   9.974  19.341  0.00  0.00    +0.000 A 
ATOM      2  C   UNL     1       1.105  11.178  18.768  0.00  0.00    +0.000 A 
ATOM      3  N   UNL     1       0.666  12.273  19.447  0.00  0.00    +0.000 N 
ATOM      4  C   UNL     1      -0.064  12.116  20.637  0.00  0.00    +0.000 A 
ATOM      5  C   UNL     1      -0.936  13.140  21.062  0.00  0.00    +0.000 A 
ATOM      6  C   UNL     1      -1.716  12.924  22.193  0.00  0.00    +0.000 A 
ATOM      7  C   UNL     1      -1.617  11.714  22.899  0.00  0.00    +0.000 A 
ATOM      8  C   UNL     1      -0.721  10.713  22.500  0.00  0.00    +0.000 A 
ATOM      9 CL   UNL     1      -0.687   9.254  23.415  0.00  0.00    +0.000 Cl
ATOM     10  C   UNL     1       0.059  10.912  21.354  0.00  0.00    +0.000 A 
ATOM     11  C   UNL     1       1.035   9.919  20.808  0.00  0.00    +0.000 A 
ATOM     12  O   UNL     1       1.653   9.122  21.503  0.00  0.00    +0.000 OA
ATOM     13  O   UNL     1      -1.055  14.346  20.402  0.00  0.00    +0.000 OA
ATOM     14  C   UNL     1      -0.392  14.395  19.112  0.00  0.00    +0.000 C 
ATOM     15  C   UNL     1      -0.131  15.845  18.710  0.00  0.00    +0.000 C 
ATOM     16  C   UNL     1       0.941  13.656  19.132  0.00  0.00    +0.000 C 
ENDROOT
BRANCH   1  18
ATOM     17  N   UNL     1       2.253   7.782  19.102  0.00  0.00    +0.000 N 
ATOM     18  C   UNL     1       1.725   8.875  18.458  0.00  0.00    +0.000 C 
ATOM     19  O   UNL     1       1.599   9.002  17.240  0.00  0.00    +0.000 OA
ATOM     20  H   UNL     1       2.373   7.850  20.113  0.00  0.00    +0.000 HD
BRANCH  17  25
ATOM     21  C   UNL     1       2.356   4.233  18.024  0.00  0.00    +0.000 A 
ATOM     22  C   UNL     1       3.573   4.181  17.334  0.00  0.00    +0.000 A 
ATOM     23  C   UNL     1       4.354   5.319  17.211  0.00  0.00    +0.000 A 
ATOM     24  C   UNL     1       3.929   6.519  17.782  0.00  0.00    +0.000 A 
ATOM     25  C   UNL     1       2.718   6.596  18.477  0.00  0.00    +0.000 A 
ATOM     26  C   UNL     1       1.929   5.453  18.581  0.00  0.00    +0.000 A 
BRANCH  21  28
ATOM     27  C   UNL     1       0.933   2.992  19.634  0.00  0.00    +0.000 C 
ATOM     28  C   UNL     1       1.560   2.976  18.248  0.00  0.00    +0.000 C 
ENDBRANCH  21  28
ENDBRANCH  17  25
ENDBRANCH   1  18
TORSDOF 3
ENDMDL
MODEL 4
REMARK VINA RESULT:      -8.0      3.414      8.285
REMARK  Name = 
REMARK  5 active torsions:
REMARK  status: ('A' for Active; 'I' for Inactive)
REMARK    1  A    between atoms: C_1  and  C_2
REMARK    2  A    between atoms: C_2  and  C_3
REMARK    3  A    between atoms: C_7  and  N_8
REMARK    4  A    between atoms: C_9  and  C_11
REMARK    5  A    between atoms: C_24  and  C_25
REMARK                            x       y       z     vdW  Elec       q    Type
REMARK                         _______ _______ _______ _____ _____    ______ ____
ROOT
ATOM      1  C   UNL     1       2.527   7.541  18.486  0.00  0.00    +0.000 A 
ATOM      2  C   UNL     1       1.965   6.721  19.391  0.00  0.00    +0.000 A 
ATOM      3  N   UNL     1       2.421   5.463  19.644  0.00  0.00    +0.000 N 
ATOM      4  C   UNL     1       3.184   4.785  18.679  0.00  0.00    +0.000 A 
ATOM      5  C   UNL     1       3.224   3.374  18.686  0.00  0.00    +0.000 A 
ATOM      6  C   UNL     1       3.912   2.723  17.667  0.00  0.00    +0.000 A 
ATOM      7  C   UNL     1       4.563   3.465  16.668  0.00  0.00    +0.000 A 
ATOM      8  C   UNL     1       4.557   4.866  16.684  0.00  0.00    +0.000 A 
ATOM      9 CL   UNL     1       5.364   5.688  15.404  0.00  0.00    +0.000 Cl
ATOM     10  C   UNL     1       3.856   5.534  17.697  0.00  0.00    +0.000 A 
ATOM     11  C   UNL     1       3.751   7.021  17.818  0.00  0.00    +0.000 A 
ATOM     12  O   UNL     1       4.623   7.796  17.444  0.00  0.00    +0.000 OA
ATOM     13  O   UNL     1       2.607   2.611  19.654  0.00  0.00    +0.000 OA
ATOM     14  C   UNL     1       1.721   3.353  20.534  0.00  0.00    +0.000 C 
ATOM     15  C   UNL     1       1.504   2.581  21.833  0.00  0.00    +0.000 C 
ATOM     16  C   UNL     1       2.287   4.725  20.879  0.00  0.00    +0.000 C 
ENDROOT
BRANCH   1  18
ATOM     17  N   UNL     1       0.968   9.210  19.258  0.00  0.00    +0.000 N 
ATOM     18  C   UNL     1       1.891   8.863  18.301  0.00  0.00    +0.000 C 
ATOM     19  O   UNL     1       2.217   9.551  17.333  0.00  0.00    +0.000 OA
ATOM     20  H   UNL     1       0.735   8.504  19.958  0.00  0.00    +0.000 HD
BRANCH  17  25
ATOM     21  C   UNL     1      -0.085  12.568  20.435  0.00  0.00    +0.000 A 
ATOM     22  C   UNL     1      -1.139  12.858  19.560  0.00  0.00    +0.000 A 
ATOM     23  C   UNL     1      -1.494  11.953  18.572  0.00  0.00    +0.000 A 
ATOM     24  C   UNL     1      -0.804  10.746  18.453  0.00  0.00    +0.000 A 
ATOM     25  C   UNL     1       0.252  10.433  19.315  0.00  0.00    +0.000 A 
ATOM     26  C   UNL     1       0.616  11.355  20.295  0.00  0.00    +0.000 A 
BRANCH  21  28
ATOM     27  C   UNL     1      -0.824  13.378  22.661  0.00  0.00    +0.000 C 
ATOM     28  C   UNL     1       0.231  13.501  21.572  0.00  0.00    +0.000 C 
ENDBRANCH  21  28
ENDBRANCH  17  25
ENDBRANCH   1  18
TORSDOF 3
ENDMDL
MODEL 5
REMARK VINA RESULT:      -7.9      4.309      7.147
REMARK  Name = 
REMARK  5 active torsions:
REMARK  status: ('A' for Active; 'I' for Inactive)
REMARK    1  A    between atoms: C_1  and  C_2
REMARK    2  A    between atoms: C_2  and  C_3
REMARK    3  A    between atoms: C_7  and  N_8
REMARK    4  A    between atoms: C_9  and  C_11
REMARK    5  A    between atoms: C_24  and  C_25
REMARK                            x       y       z     vdW  Elec       q    Type
REMARK                         _______ _______ _______ _____ _____    ______ ____
ROOT
ATOM      1  C   UNL     1       1.300   9.942  19.335  0.00  0.00    +0.000 A 
ATOM      2  C   UNL     1       1.126  11.150  18.769  0.00  0.00    +0.000 A 
ATOM      3  N   UNL     1       0.681  12.239  19.455  0.00  0.00    +0.000 N 
ATOM      4  C   UNL     1      -0.053  12.071  20.640  0.00  0.00    +0.000 A 
ATOM      5  C   UNL     1      -0.930  13.090  21.069  0.00  0.00    +0.000 A 
ATOM      6  C   UNL     1      -1.713  12.864  22.195  0.00  0.00    +0.000 A 
ATOM      7  C   UNL     1      -1.612  11.650  22.893  0.00  0.00    +0.000 A 
ATOM      8  C   UNL     1      -0.713  10.654  22.492  0.00  0.00    +0.000 A 
ATOM      9 CL   UNL     1      -0.677   9.189  23.397  0.00  0.00    +0.000 Cl
ATOM     10  C   UNL     1       0.072  10.863  21.350  0.00  0.00    +0.000 A 
ATOM     11  C   UNL     1       1.053   9.877  20.800  0.00  0.00    +0.000 A 
ATOM     12  O   UNL     1       1.671   9.077  21.492  0.00  0.00    +0.000 OA
ATOM     13  O   UNL     1      -1.050  14.300  20.417  0.00  0.00    +0.000 OA
ATOM     14  C   UNL     1      -0.382  14.360  19.129  0.00  0.00    +0.000 C 
ATOM     15  C   UNL     1      -0.125  15.813  18.738  0.00  0.00    +0.000 C 
ATOM     16  C   UNL     1       0.953  13.625  19.149  0.00  0.00    +0.000 C 
ENDROOT
BRANCH   1  18
ATOM     17  N   UNL     1       2.283   7.755  19.084  0.00  0.00    +0.000 N 
ATOM     18  C   UNL     1       1.754   8.851  18.446  0.00  0.00    +0.000 C 
ATOM     19  O   UNL     1       1.633   8.986  17.228  0.00  0.00    +0.000 OA
ATOM     20  H   UNL     1       2.399   7.816  20.097  0.00  0.00    +0.000 HD
BRANCH  17  25
ATOM     21  C   UNL     1       4.452   5.525  17.061  0.00  0.00    +0.000 A 
ATOM     22  C   UNL     1       3.746   4.317  17.115  0.00  0.00    +0.000 A 
ATOM     23  C   UNL     1       2.562   4.233  17.829  0.00  0.00    +0.000 A 
ATOM     24  C   UNL     1       2.068   5.357  18.492  0.00  0.00    +0.000 A 
ATOM     25  C   UNL     1       2.754   6.575  18.453  0.00  0.00    +0.000 A 
ATOM     26  C   UNL     1       3.954   6.648  17.748  0.00  0.00    +0.000 A 
BRANCH  21  28
ATOM     27  C   UNL     1       5.541   4.769  14.964  0.00  0.00    +0.000 C 
ATOM     28  C   UNL     1       5.680   5.645  16.200  0.00  0.00    +0.000 C 
ENDBRANCH  21  28
ENDBRANCH  17  25
ENDBRANCH   1  18
TORSDOF 3
ENDMDL
MODEL 6
REMARK VINA RESULT:      -7.5      4.827      7.882
REMARK  Name = 
REMARK  5 active torsions:
REMARK  status: ('A' for Active; 'I' for Inactive)
REMARK    1  A    between atoms: C_1  and  C_2
REMARK    2  A    between atoms: C_2  and  C_3
REMARK    3  A    between atoms: C_7  and  N_8
REMARK    4  A    between atoms: C_9  and  C_11
REMARK    5  A    between atoms: C_24  and  C_25
REMARK                            x       y       z     vdW  Elec       q    Type
REMARK                         _______ _______ _______ _____ _____    ______ ____
ROOT
ATOM      1  C   UNL     1       1.126   9.970  18.991  0.00  0.00    +0.000 A 
ATOM      2  C   UNL     1      -0.137  10.150  19.415  0.00  0.00    +0.000 A 
ATOM      3  N   UNL     1      -0.785  11.345  19.345  0.00  0.00    +0.000 N 
ATOM      4  C   UNL     1      -0.050  12.540  19.269  0.00  0.00    +0.000 A 
ATOM      5  C   UNL     1      -0.635  13.749  19.703  0.00  0.00    +0.000 A 
ATOM      6  C   UNL     1       0.143  14.902  19.703  0.00  0.00    +0.000 A 
ATOM      7  C   UNL     1       1.475  14.855  19.263  0.00  0.00    +0.000 A 
ATOM      8  C   UNL     1       2.044  13.663  18.794  0.00  0.00    +0.000 A 
ATOM      9 CL   UNL     1       3.692  13.699  18.297  0.00  0.00    +0.000 Cl
ATOM     10  C   UNL     1       1.276  12.491  18.802  0.00  0.00    +0.000 A 
ATOM     11  C   UNL     1       1.765  11.151  18.352  0.00  0.00    +0.000 A 
ATOM     12  O   UNL     1       2.609  10.996  17.478  0.00  0.00    +0.000 OA
ATOM     13  O   UNL     1      -1.942  13.838  20.133  0.00  0.00    +0.000 OA
ATOM     14  C   UNL     1      -2.603  12.559  20.325  0.00  0.00    +0.000 C 
ATOM     15  C   UNL     1      -4.118  12.739  20.288  0.00  0.00    +0.000 C 
ATOM     16  C   UNL     1      -2.212  11.553  19.249  0.00  0.00    +0.000 C 
ENDROOT
BRANCH   1  18
ATOM     17  N   UNL     1       2.149   8.014  18.020  0.00  0.00    +0.000 N 
ATOM     18  C   UNL     1       1.701   8.619  19.170  0.00  0.00    +0.000 C 
ATOM     19  O   UNL     1       1.743   8.135  20.301  0.00  0.00    +0.000 OA
ATOM     20  H   UNL     1       1.973   8.499  17.140  0.00  0.00    +0.000 HD
BRANCH  17  25
ATOM     21  C   UNL     1       2.517   4.322  18.073  0.00  0.00    +0.000 A 
ATOM     22  C   UNL     1       3.893   4.171  17.864  0.00  0.00    +0.000 A 
ATOM     23  C   UNL     1       4.699   5.285  17.692  0.00  0.00    +0.000 A 
ATOM     24  C   UNL     1       4.138   6.562  17.733  0.00  0.00    +0.000 A 
ATOM     25  C   UNL     1       2.766   6.739  17.941  0.00  0.00    +0.000 A 
ATOM     26  C   UNL     1       1.959   5.614  18.095  0.00  0.00    +0.000 A 
BRANCH  21  28
ATOM     27  C   UNL     1       0.952   3.292  19.700  0.00  0.00    +0.000 C 
ATOM     28  C   UNL     1       1.660   3.120  18.365  0.00  0.00    +0.000 C 
ENDBRANCH  21  28
ENDBRANCH  17  25
ENDBRANCH   1  18
TORSDOF 3
ENDMDL
MODEL 7
REMARK VINA RESULT:      -7.4      5.108      8.647
REMARK  Name = 
REMARK  5 active torsions:
REMARK  status: ('A' for Active; 'I' for Inactive)
REMARK    1  A    between atoms: C_1  and  C_2
REMARK    2  A    between atoms: C_2  and  C_3
REMARK    3  A    between atoms: C_7  and  N_8
REMARK    4  A    between atoms: C_9  and  C_11
REMARK    5  A    between atoms: C_24  and  C_25
REMARK                            x       y       z     vdW  Elec       q    Type
REMARK                         _______ _______ _______ _____ _____    ______ ____
ROOT
ATOM      1  C   UNL     1       1.181  10.620  19.738  0.00  0.00    +0.000 A 
ATOM      2  C   UNL     1       1.549  11.710  19.041  0.00  0.00    +0.000 A 
ATOM      3  N   UNL     1       1.415  12.980  19.514  0.00  0.00    +0.000 N 
ATOM      4  C   UNL     1       0.481  13.258  20.525  0.00  0.00    +0.000 A 
ATOM      5  C   UNL     1      -0.032  14.566  20.663  0.00  0.00    +0.000 A 
ATOM      6  C   UNL     1      -1.022  14.796  21.612  0.00  0.00    +0.000 A 
ATOM      7  C   UNL     1      -1.481  13.746  22.422  0.00  0.00    +0.000 A 
ATOM      8  C   UNL     1      -0.944  12.457  22.314  0.00  0.00    +0.000 A 
ATOM      9 CL   UNL     1      -1.588  11.228  23.335  0.00  0.00    +0.000 Cl
ATOM     10  C   UNL     1       0.044  12.207  21.352  0.00  0.00    +0.000 A 
ATOM     11  C   UNL     1       0.684  10.876  21.117  0.00  0.00    +0.000 A 
ATOM     12  O   UNL     1       0.849  10.038  21.994  0.00  0.00    +0.000 OA
ATOM     13  O   UNL     1       0.401  15.625  19.893  0.00  0.00    +0.000 OA
ATOM     14  C   UNL     1       1.253  15.253  18.778  0.00  0.00    +0.000 C 
ATOM     15  C   UNL     1       2.075  16.455  18.320  0.00  0.00    +0.000 C 
ATOM     16  C   UNL     1       2.212  14.129  19.149  0.00  0.00    +0.000 C 
ENDROOT
BRANCH   1  18
ATOM     17  N   UNL     1       1.904   8.323  19.850  0.00  0.00    +0.000 N 
ATOM     18  C   UNL     1       1.357   9.313  19.070  0.00  0.00    +0.000 C 
ATOM     19  O   UNL     1       1.013   9.195  17.894  0.00  0.00    +0.000 OA
ATOM     20  H   UNL     1       2.220   8.587  20.784  0.00  0.00    +0.000 HD
BRANCH  17  25
ATOM     21  C   UNL     1       1.765   4.615  19.861  0.00  0.00    +0.000 A 
ATOM     22  C   UNL     1       2.587   4.296  18.775  0.00  0.00    +0.000 A 
ATOM     23  C   UNL     1       3.178   5.304  18.028  0.00  0.00    +0.000 A 
ATOM     24  C   UNL     1       2.957   6.640  18.365  0.00  0.00    +0.000 A 
ATOM     25  C   UNL     1       2.139   6.983  19.446  0.00  0.00    +0.000 A 
ATOM     26  C   UNL     1       1.534   5.967  20.182  0.00  0.00    +0.000 A 
BRANCH  21  28
ATOM     27  C   UNL     1       2.308   2.946  21.616  0.00  0.00    +0.000 C 
ATOM     28  C   UNL     1       1.210   3.522  20.735  0.00  0.00    +0.000 C 
ENDBRANCH  21  28
ENDBRANCH  17  25
ENDBRANCH   1  18
TORSDOF 3
ENDMDL
MODEL 8
REMARK VINA RESULT:      -7.4      2.872      8.140
REMARK  Name = 
REMARK  5 active torsions:
REMARK  status: ('A' for Active; 'I' for Inactive)
REMARK    1  A    between atoms: C_1  and  C_2
REMARK    2  A    between atoms: C_2  and  C_3
REMARK    3  A    between atoms: C_7  and  N_8
REMARK    4  A    between atoms: C_9  and  C_11
REMARK    5  A    between atoms: C_24  and  C_25
REMARK                            x       y       z     vdW  Elec       q    Type
REMARK                         _______ _______ _______ _____ _____    ______ ____
ROOT
ATOM      1  C   UNL     1       2.077   6.818  19.960  0.00  0.00    +0.000 A 
ATOM      2  C   UNL     1       3.103   7.002  19.110  0.00  0.00    +0.000 A 
ATOM      3  N   UNL     1       3.798   5.977  18.545  0.00  0.00    +0.000 N 
ATOM      4  C   UNL     1       3.803   4.711  19.154  0.00  0.00    +0.000 A 
ATOM      5  C   UNL     1       4.869   3.820  18.906  0.00  0.00    +0.000 A 
ATOM      6  C   UNL     1       4.899   2.610  19.590  0.00  0.00    +0.000 A 
ATOM      7  C   UNL     1       3.874   2.285  20.493  0.00  0.00    +0.000 A 
ATOM      8  C   UNL     1       2.794   3.151  20.709  0.00  0.00    +0.000 A 
ATOM      9 CL   UNL     1       1.598   2.675  21.853  0.00  0.00    +0.000 Cl
ATOM     10  C   UNL     1       2.760   4.380  20.037  0.00  0.00    +0.000 A 
ATOM     11  C   UNL     1       1.680   5.403  20.192  0.00  0.00    +0.000 A 
ATOM     12  O   UNL     1       0.515   5.127  20.450  0.00  0.00    +0.000 OA
ATOM     13  O   UNL     1       5.889   4.099  18.019  0.00  0.00    +0.000 OA
ATOM     14  C   UNL     1       5.908   5.467  17.533  0.00  0.00    +0.000 C 
ATOM     15  C   UNL     1       6.694   5.550  16.227  0.00  0.00    +0.000 C 
ATOM     16  C   UNL     1       4.502   5.999  17.283  0.00  0.00    +0.000 C 
ENDROOT
BRANCH   1  18
ATOM     17  N   UNL     1       1.086   8.985  19.594  0.00  0.00    +0.000 N 
ATOM     18  C   UNL     1       1.449   8.035  20.518  0.00  0.00    +0.000 C 
ATOM     19  O   UNL     1       1.294   8.120  21.736  0.00  0.00    +0.000 OA
ATOM     20  H   UNL     1       1.352   8.816  18.623  0.00  0.00    +0.000 HD
BRANCH  17  25
ATOM     21  C   UNL     1      -1.526  11.621  19.595  0.00  0.00    +0.000 A 
ATOM     22  C   UNL     1      -0.903  12.637  20.330  0.00  0.00    +0.000 A 
ATOM     23  C   UNL     1       0.372  12.449  20.838  0.00  0.00    +0.000 A 
ATOM     24  C   UNL     1       1.041  11.246  20.611  0.00  0.00    +0.000 A 
ATOM     25  C   UNL     1       0.441  10.216  19.879  0.00  0.00    +0.000 A 
ATOM     26  C   UNL     1      -0.849  10.404  19.387  0.00  0.00    +0.000 A 
BRANCH  21  28
ATOM     27  C   UNL     1      -2.983  11.064  17.666  0.00  0.00    +0.000 C 
ATOM     28  C   UNL     1      -2.866  11.864  18.955  0.00  0.00    +0.000 C 
ENDBRANCH  21  28
ENDBRANCH  17  25
ENDBRANCH   1  18
TORSDOF 3
ENDMDL
MODEL 9
REMARK VINA RESULT:      -7.4      5.136      8.504
REMARK  Name = 
REMARK  5 active torsions:
REMARK  status: ('A' for Active; 'I' for Inactive)
REMARK    1  A    between atoms: C_1  and  C_2
REMARK    2  A    between atoms: C_2  and  C_3
REMARK    3  A    between atoms: C_7  and  N_8
REMARK    4  A    between atoms: C_9  and  C_11
REMARK    5  A    between atoms: C_24  and  C_25
REMARK                            x       y       z     vdW  Elec       q    Type
REMARK                         _______ _______ _______ _____ _____    ______ ____
ROOT
ATOM      1  C   UNL     1      -0.006  10.426  20.044  0.00  0.00    +0.000 A 
ATOM      2  C   UNL     1      -0.923  10.270  19.073  0.00  0.00    +0.000 A 
ATOM      3  N   UNL     1      -1.934  11.155  18.851  0.00  0.00    +0.000 N 
ATOM      4  C   UNL     1      -2.357  12.010  19.881  0.00  0.00    +0.000 A 
ATOM      5  C   UNL     1      -3.667  12.537  19.859  0.00  0.00    +0.000 A 
ATOM      6  C   UNL     1      -4.093  13.307  20.935  0.00  0.00    +0.000 A 
ATOM      7  C   UNL     1      -3.225  13.564  22.008  0.00  0.00    +0.000 A 
ATOM      8  C   UNL     1      -1.911  13.075  22.012  0.00  0.00    +0.000 A 
ATOM      9 CL   UNL     1      -0.928  13.423  23.382  0.00  0.00    +0.000 Cl
ATOM     10  C   UNL     1      -1.474  12.286  20.941  0.00  0.00    +0.000 A 
ATOM     11  C   UNL     1      -0.108  11.684  20.830  0.00  0.00    +0.000 A 
ATOM     12  O   UNL     1       0.898  12.195  21.306  0.00  0.00    +0.000 OA
ATOM     13  O   UNL     1      -4.546  12.316  18.819  0.00  0.00    +0.000 OA
ATOM     14  C   UNL     1      -4.109  11.316  17.861  0.00  0.00    +0.000 C 
ATOM     15  C   UNL     1      -4.842  11.502  16.535  0.00  0.00    +0.000 C 
ATOM     16  C   UNL     1      -2.610  11.401  17.598  0.00  0.00    +0.000 C 
ENDROOT
BRANCH   1  18
ATOM     17  N   UNL     1       1.342   8.713  19.012  0.00  0.00    +0.000 N 
ATOM     18  C   UNL     1       1.007   9.356  20.179  0.00  0.00    +0.000 C 
ATOM     19  O   UNL     1       1.474   9.117  21.293  0.00  0.00    +0.000 OA
ATOM     20  H   UNL     1       0.812   8.960  18.176  0.00  0.00    +0.000 HD
BRANCH  17  25
ATOM     21  C   UNL     1       4.118   6.714  17.575  0.00  0.00    +0.000 A 
ATOM     22  C   UNL     1       4.211   5.659  18.490  0.00  0.00    +0.000 A 
ATOM     23  C   UNL     1       3.368   5.612  19.589  0.00  0.00    +0.000 A 
ATOM     24  C   UNL     1       2.419   6.617  19.781  0.00  0.00    +0.000 A 
ATOM     25  C   UNL     1       2.307   7.682  18.881  0.00  0.00    +0.000 A 
ATOM     26  C   UNL     1       3.169   7.733  17.788  0.00  0.00    +0.000 A 
BRANCH  21  28
ATOM     27  C   UNL     1       5.307   5.282  15.935  0.00  0.00    +0.000 C 
ATOM     28  C   UNL     1       4.960   6.710  16.328  0.00  0.00    +0.000 C 
ENDBRANCH  21  28
ENDBRANCH  17  25
ENDBRANCH   1  18
TORSDOF 3
ENDMDL
