MODEL 1
REMARK VINA RESULT:      -7.9      0.000      0.000
REMARK  Name = 
REMARK  8 active torsions:
REMARK  status: ('A' for Active; 'I' for Inactive)
REMARK    1  A    between atoms: C_2  and  C_4
REMARK    2  A    between atoms: C_4  and  N_5
REMARK    3  A    between atoms: C_8  and  O_9
REMARK    4  A    between atoms: C_8  and  C_10
REMARK    5  A    between atoms: C_10  and  C_11
REMARK    6  A    between atoms: C_11  and  C_13
REMARK    7  A    between atoms: C_14  and  C_15
REMARK    8  A    between atoms: C_16  and  C_17
REMARK                            x       y       z     vdW  Elec       q    Type
REMARK                         _______ _______ _______ _____ _____    ______ ____
ROOT
ATOM      1  N   UNL     1       6.729   4.459  17.616  0.00  0.00    +0.000 N 
ATOM      2  C   UNL     1       5.584   4.097  18.327  0.00  0.00    +0.000 C 
ATOM      3  O   UNL     1       5.527   3.780  19.507  0.00  0.00    +0.000 OA
ATOM      4  C   UNL     1       4.408   4.013  17.304  0.00  0.00    +0.000 C 
ATOM      5  C   UNL     1       5.129   4.203  15.996  0.00  0.00    +0.000 A 
ATOM      6  C   UNL     1       4.635   4.132  14.704  0.00  0.00    +0.000 A 
ATOM      7  C   UNL     1       5.523   4.342  13.647  0.00  0.00    +0.000 A 
ATOM      8  C   UNL     1       6.880   4.609  13.894  0.00  0.00    +0.000 A 
ATOM      9  C   UNL     1       7.372   4.673  15.200  0.00  0.00    +0.000 A 
ATOM     10  C   UNL     1       6.481   4.471  16.238  0.00  0.00    +0.000 A 
ENDROOT
BRANCH   4  11
ATOM     11  O   UNL     1       3.819   2.713  17.315  0.00  0.00    +0.000 OA
ATOM     12  H   UNL     1       2.975   2.801  17.795  0.00  0.00    +0.000 HD
ENDBRANCH   4  11
BRANCH   1  13
ATOM     13  C   UNL     1       8.041   4.601  18.212  0.00  0.00    +0.000 C 
BRANCH  13  15
ATOM     14  N   UNL     1       8.068   5.559  20.469  0.00  0.00    +0.000 N 
ATOM     15  C   UNL     1       8.107   5.821  19.129  0.00  0.00    +0.000 C 
ATOM     16  O   UNL     1       8.111   6.975  18.711  0.00  0.00    +0.000 OA
ATOM     17  H   UNL     1       8.059   6.335  21.115  0.00  0.00    +0.000 HD
ATOM     18  H   UNL     1       7.957   4.615  20.827  0.00  0.00    +0.000 HD
ENDBRANCH  13  15
ENDBRANCH   1  13
BRANCH   4  19
ATOM     19  C   UNL     1       3.316   5.041  17.576  0.00  0.00    +0.000 C 
BRANCH  19  20
ATOM     20  C   UNL     1       2.076   4.432  18.181  0.00  0.00    +0.000 C 
ATOM     21  O   UNL     1       1.149   4.079  17.457  0.00  0.00    +0.000 OA
BRANCH  20  22
ATOM     22  C   UNL     1       2.033   4.287  19.670  0.00  0.00    +0.000 C 
ATOM     23  C   UNL     1       1.965   5.289  20.562  0.00  0.00    +0.000 C 
BRANCH  23  24
ATOM     24  C   UNL     1       1.890   6.697  20.260  0.00  0.00    +0.000 C 
ATOM     25  C   UNL     1       1.096   7.575  20.888  0.00  0.00    +0.000 C 
BRANCH  25  26
ATOM     26  C   UNL     1       1.125   8.973  20.455  0.00  0.00    +0.000 A 
ATOM     27  C   UNL     1       0.879   9.993  21.381  0.00  0.00    +0.000 A 
ATOM     28  C   UNL     1       0.795  11.320  20.955  0.00  0.00    +0.000 A 
ATOM     29  C   UNL     1       0.956  11.632  19.606  0.00  0.00    +0.000 A 
ATOM     30  C   UNL     1       1.205  10.619  18.680  0.00  0.00    +0.000 A 
ATOM     31  C   UNL     1       1.288   9.291  19.103  0.00  0.00    +0.000 A 
ENDBRANCH  25  26
ENDBRANCH  23  24
ENDBRANCH  20  22
ENDBRANCH  19  20
ENDBRANCH   4  19
TORSDOF 8
ENDMDL
MODEL 2
REMARK VINA RESULT:      -7.8      0.983      1.343
REMARK  Name = 
REMARK  8 active torsions:
REMARK  status: ('A' for Active; 'I' for Inactive)
REMARK    1  A    between atoms: C_2  and  C_4
REMARK    2  A    between atoms: C_4  and  N_5
REMARK    3  A    between atoms: C_8  and  O_9
REMARK    4  A    between atoms: C_8  and  C_10
REMARK    5  A    between atoms: C_10  and  C_11
REMARK    6  A    between atoms: C_11  and  C_13
REMARK    7  A    between atoms: C_14  and  C_15
REMARK    8  A    between atoms: C_16  and  C_17
REMARK                            x       y       z     vdW  Elec       q    Type
REMARK                         _______ _______ _______ _____ _____    ______ ____
ROOT
ATOM      1  N   UNL     1       6.724   5.297  17.768  0.00  0.00    +0.000 N 
ATOM      2  C   UNL     1       5.706   4.773  18.564  0.00  0.00    +0.000 C 
ATOM      3  O   UNL     1       5.693   4.710  19.786  0.00  0.00    +0.000 OA
ATOM      4  C   UNL     1       4.651   4.132  17.609  0.00  0.00    +0.000 C 
ATOM      5  C   UNL     1       5.341   4.245  16.276  0.00  0.00    +0.000 A 
ATOM      6  C   UNL     1       4.946   3.760  15.040  0.00  0.00    +0.000 A 
ATOM      7  C   UNL     1       5.778   3.993  13.943  0.00  0.00    +0.000 A 
ATOM      8  C   UNL     1       6.986   4.694  14.098  0.00  0.00    +0.000 A 
ATOM      9  C   UNL     1       7.381   5.175  15.349  0.00  0.00    +0.000 A 
ATOM     10  C   UNL     1       6.544   4.943  16.425  0.00  0.00    +0.000 A 
ENDROOT
BRANCH   4  11
ATOM     11  O   UNL     1       4.468   2.749  17.912  0.00  0.00    +0.000 OA
ATOM     12  H   UNL     1       4.202   2.321  17.077  0.00  0.00    +0.000 HD
ENDBRANCH   4  11
BRANCH   1  13
ATOM     13  C   UNL     1       7.911   5.942  18.291  0.00  0.00    +0.000 C 
BRANCH  13  15
ATOM     14  N   UNL     1       8.655   8.197  18.901  0.00  0.00    +0.000 N 
ATOM     15  C   UNL     1       7.866   7.453  18.071  0.00  0.00    +0.000 C 
ATOM     16  O   UNL     1       7.115   7.992  17.263  0.00  0.00    +0.000 OA
ATOM     17  H   UNL     1       8.622   9.204  18.827  0.00  0.00    +0.000 HD
ATOM     18  H   UNL     1       9.201   7.772  19.645  0.00  0.00    +0.000 HD
ENDBRANCH  13  15
ENDBRANCH   1  13
BRANCH   4  19
ATOM     19  C   UNL     1       3.296   4.826  17.677  0.00  0.00    +0.000 C 
BRANCH  19  20
ATOM     20  C   UNL     1       2.257   4.013  18.411  0.00  0.00    +0.000 C 
ATOM     21  O   UNL     1       1.429   3.362  17.780  0.00  0.00    +0.000 OA
BRANCH  20  22
ATOM     22  C   UNL     1       2.287   4.042  19.907  0.00  0.00    +0.000 C 
ATOM     23  C   UNL     1       1.983   5.094  20.685  0.00  0.00    +0.000 C 
BRANCH  23  24
ATOM     24  C   UNL     1       1.540   6.390  20.233  0.00  0.00    +0.000 C 
ATOM     25  C   UNL     1       1.628   7.522  20.944  0.00  0.00    +0.000 C 
BRANCH  25  26
ATOM     26  C   UNL     1       1.120   8.760  20.350  0.00  0.00    +0.000 A 
ATOM     27  C   UNL     1       1.463   9.091  19.034  0.00  0.00    +0.000 A 
ATOM     28  C   UNL     1       1.075  10.321  18.498  0.00  0.00    +0.000 A 
ATOM     29  C   UNL     1       0.345  11.220  19.272  0.00  0.00    +0.000 A 
ATOM     30  C   UNL     1      -0.002  10.893  20.582  0.00  0.00    +0.000 A 
ATOM     31  C   UNL     1       0.386   9.665  21.122  0.00  0.00    +0.000 A 
ENDBRANCH  25  26
ENDBRANCH  23  24
ENDBRANCH  20  22
ENDBRANCH  19  20
ENDBRANCH   4  19
TORSDOF 8
ENDMDL
MODEL 3
REMARK VINA RESULT:      -7.7      2.723      8.047
REMARK  Name = 
REMARK  8 active torsions:
REMARK  status: ('A' for Active; 'I' for Inactive)
REMARK    1  A    between atoms: C_2  and  C_4
REMARK    2  A    between atoms: C_4  and  N_5
REMARK    3  A    between atoms: C_8  and  O_9
REMARK    4  A    between atoms: C_8  and  C_10
REMARK    5  A    between atoms: C_10  and  C_11
REMARK    6  A    between atoms: C_11  and  C_13
REMARK    7  A    between atoms: C_14  and  C_15
REMARK    8  A    between atoms: C_16  and  C_17
REMARK                            x       y       z     vdW  Elec       q    Type
REMARK                         _______ _______ _______ _____ _____    ______ ____
ROOT
ATOM      1  N   UNL     1       3.087   4.018  19.480  0.00  0.00    +0.000 N 
ATOM      2  C   UNL     1       4.406   3.577  19.584  0.00  0.00    +0.000 C 
ATOM      3  O   UNL     1       4.813   2.640  20.257  0.00  0.00    +0.000 OA
ATOM      4  C   UNL     1       5.300   4.597  18.811  0.00  0.00    +0.000 C 
ATOM      5  C   UNL     1       4.304   5.672  18.464  0.00  0.00    +0.000 A 
ATOM      6  C   UNL     1       4.513   6.898  17.855  0.00  0.00    +0.000 A 
ATOM      7  C   UNL     1       3.409   7.728  17.650  0.00  0.00    +0.000 A 
ATOM      8  C   UNL     1       2.126   7.328  18.060  0.00  0.00    +0.000 A 
ATOM      9  C   UNL     1       1.924   6.092  18.679  0.00  0.00    +0.000 A 
ATOM     10  C   UNL     1       3.024   5.276  18.869  0.00  0.00    +0.000 A 
ENDROOT
BRANCH   4  11
ATOM     11  O   UNL     1       6.292   5.156  19.671  0.00  0.00    +0.000 OA
ATOM     12  H   UNL     1       5.825   5.782  20.254  0.00  0.00    +0.000 HD
ENDBRANCH   4  11
BRANCH   1  13
ATOM     13  C   UNL     1       1.960   3.355  20.104  0.00  0.00    +0.000 C 
BRANCH  13  15
ATOM     14  N   UNL     1       2.053   1.175  18.986  0.00  0.00    +0.000 N 
ATOM     15  C   UNL     1       1.334   2.322  19.168  0.00  0.00    +0.000 C 
ATOM     16  O   UNL     1       0.296   2.523  18.545  0.00  0.00    +0.000 OA
ATOM     17  H   UNL     1       1.704   0.483  18.337  0.00  0.00    +0.000 HD
ATOM     18  H   UNL     1       2.965   1.040  19.411  0.00  0.00    +0.000 HD
ENDBRANCH  13  15
ENDBRANCH   1  13
BRANCH   4  19
ATOM     19  C   UNL     1       5.999   3.975  17.608  0.00  0.00    +0.000 C 
BRANCH  19  20
ATOM     20  C   UNL     1       7.345   4.595  17.326  0.00  0.00    +0.000 C 
ATOM     21  O   UNL     1       8.361   4.101  17.809  0.00  0.00    +0.000 OA
BRANCH  20  22
ATOM     22  C   UNL     1       7.378   5.809  16.453  0.00  0.00    +0.000 C 
ATOM     23  C   UNL     1       7.150   5.840  15.129  0.00  0.00    +0.000 C 
BRANCH  23  24
ATOM     24  C   UNL     1       6.801   4.715  14.298  0.00  0.00    +0.000 C 
ATOM     25  C   UNL     1       6.927   4.679  12.964  0.00  0.00    +0.000 C 
BRANCH  25  26
ATOM     26  C   UNL     1       6.515   3.464  12.258  0.00  0.00    +0.000 A 
ATOM     27  C   UNL     1       7.484   2.612  11.716  0.00  0.00    +0.000 A 
ATOM     28  C   UNL     1       7.098   1.512  10.947  0.00  0.00    +0.000 A 
ATOM     29  C   UNL     1       5.747   1.260  10.719  0.00  0.00    +0.000 A 
ATOM     30  C   UNL     1       4.777   2.104  11.260  0.00  0.00    +0.000 A 
ATOM     31  C   UNL     1       5.160   3.205  12.028  0.00  0.00    +0.000 A 
ENDBRANCH  25  26
ENDBRANCH  23  24
ENDBRANCH  20  22
ENDBRANCH  19  20
ENDBRANCH   4  19
TORSDOF 8
ENDMDL
MODEL 4
REMARK VINA RESULT:      -7.7      3.128      4.727
REMARK  Name = 
REMARK  8 active torsions:
REMARK  status: ('A' for Active; 'I' for Inactive)
REMARK    1  A    between atoms: C_2  and  C_4
REMARK    2  A    between atoms: C_4  and  N_5
REMARK    3  A    between atoms: C_8  and  O_9
REMARK    4  A    between atoms: C_8  and  C_10
REMARK    5  A    between atoms: C_10  and  C_11
REMARK    6  A    between atoms: C_11  and  C_13
REMARK    7  A    between atoms: C_14  and  C_15
REMARK    8  A    between atoms: C_16  and  C_17
REMARK                            x       y       z     vdW  Elec       q    Type
REMARK                         _______ _______ _______ _____ _____    ______ ____
ROOT
ATOM      1  N   UNL     1       4.162   4.529  17.214  0.00  0.00    +0.000 N 
ATOM      2  C   UNL     1       4.086   5.858  17.633  0.00  0.00    +0.000 C 
ATOM      3  O   UNL     1       4.889   6.748  17.390  0.00  0.00    +0.000 OA
ATOM      4  C   UNL     1       2.869   5.970  18.606  0.00  0.00    +0.000 C 
ATOM      5  C   UNL     1       2.465   4.527  18.753  0.00  0.00    +0.000 A 
ATOM      6  C   UNL     1       1.498   3.967  19.572  0.00  0.00    +0.000 A 
ATOM      7  C   UNL     1       1.320   2.583  19.528  0.00  0.00    +0.000 A 
ATOM      8  C   UNL     1       2.109   1.785  18.681  0.00  0.00    +0.000 A 
ATOM      9  C   UNL     1       3.085   2.357  17.863  0.00  0.00    +0.000 A 
ATOM     10  C   UNL     1       3.246   3.730  17.910  0.00  0.00    +0.000 A 
ENDROOT
BRANCH   4  11
ATOM     11  O   UNL     1       3.284   6.460  19.880  0.00  0.00    +0.000 OA
ATOM     12  H   UNL     1       4.218   6.720  19.781  0.00  0.00    +0.000 HD
ENDBRANCH   4  11
BRANCH   1  13
ATOM     13  C   UNL     1       5.189   4.016  16.332  0.00  0.00    +0.000 C 
BRANCH  13  15
ATOM     14  N   UNL     1       6.783   4.146  18.191  0.00  0.00    +0.000 N 
ATOM     15  C   UNL     1       6.587   4.345  16.854  0.00  0.00    +0.000 C 
ATOM     16  O   UNL     1       7.467   4.836  16.153  0.00  0.00    +0.000 OA
ATOM     17  H   UNL     1       7.675   4.397  18.593  0.00  0.00    +0.000 HD
ATOM     18  H   UNL     1       6.032   3.842  18.803  0.00  0.00    +0.000 HD
ENDBRANCH  13  15
ENDBRANCH   1  13
BRANCH   4  19
ATOM     19  C   UNL     1       1.770   6.880  18.072  0.00  0.00    +0.000 C 
BRANCH  19  20
ATOM     20  C   UNL     1       2.072   8.345  18.272  0.00  0.00    +0.000 C 
ATOM     21  O   UNL     1       2.658   8.976  17.397  0.00  0.00    +0.000 OA
BRANCH  20  22
ATOM     22  C   UNL     1       1.636   8.971  19.560  0.00  0.00    +0.000 C 
ATOM     23  C   UNL     1       0.582   9.787  19.726  0.00  0.00    +0.000 C 
BRANCH  23  24
ATOM     24  C   UNL     1      -0.350  10.196  18.704  0.00  0.00    +0.000 C 
ATOM     25  C   UNL     1      -1.659   9.908  18.701  0.00  0.00    +0.000 C 
BRANCH  25  26
ATOM     26  C   UNL     1      -2.474  10.386  17.582  0.00  0.00    +0.000 A 
ATOM     27  C   UNL     1      -3.601  11.177  17.830  0.00  0.00    +0.000 A 
ATOM     28  C   UNL     1      -4.445  11.543  16.780  0.00  0.00    +0.000 A 
ATOM     29  C   UNL     1      -4.166  11.121  15.481  0.00  0.00    +0.000 A 
ATOM     30  C   UNL     1      -3.042  10.335  15.228  0.00  0.00    +0.000 A 
ATOM     31  C   UNL     1      -2.198   9.966  16.277  0.00  0.00    +0.000 A 
ENDBRANCH  25  26
ENDBRANCH  23  24
ENDBRANCH  20  22
ENDBRANCH  19  20
ENDBRANCH   4  19
TORSDOF 8
ENDMDL
MODEL 5
REMARK VINA RESULT:      -7.6      3.056      4.749
REMARK  Name = 
REMARK  8 active torsions:
REMARK  status: ('A' for Active; 'I' for Inactive)
REMARK    1  A    between atoms: C_2  and  C_4
REMARK    2  A    between atoms: C_4  and  N_5
REMARK    3  A    between atoms: C_8  and  O_9
REMARK    4  A    between atoms: C_8  and  C_10
REMARK    5  A    between atoms: C_10  and  C_11
REMARK    6  A    between atoms: C_11  and  C_13
REMARK    7  A    between atoms: C_14  and  C_15
REMARK    8  A    between atoms: C_16  and  C_17
REMARK                            x       y       z     vdW  Elec       q    Type
REMARK                         _______ _______ _______ _____ _____    ______ ____
ROOT
ATOM      1  N   UNL     1       4.156   4.767  17.139  0.00  0.00    +0.000 N 
ATOM      2  C   UNL     1       4.048   6.086  17.577  0.00  0.00    +0.000 C 
ATOM      3  O   UNL     1       4.831   6.999  17.349  0.00  0.00    +0.000 OA
ATOM      4  C   UNL     1       2.829   6.155  18.551  0.00  0.00    +0.000 C 
ATOM      5  C   UNL     1       2.459   4.702  18.676  0.00  0.00    +0.000 A 
ATOM      6  C   UNL     1       1.505   4.106  19.485  0.00  0.00    +0.000 A 
ATOM      7  C   UNL     1       1.359   2.719  19.420  0.00  0.00    +0.000 A 
ATOM      8  C   UNL     1       2.167   1.953  18.562  0.00  0.00    +0.000 A 
ATOM      9  C   UNL     1       3.131   2.560  17.753  0.00  0.00    +0.000 A 
ATOM     10  C   UNL     1       3.259   3.936  17.821  0.00  0.00    +0.000 A 
ENDROOT
BRANCH   4  11
ATOM     11  O   UNL     1       3.231   6.635  19.833  0.00  0.00    +0.000 OA
ATOM     12  H   UNL     1       3.888   7.336  19.667  0.00  0.00    +0.000 HD
ENDBRANCH   4  11
BRANCH   1  13
ATOM     13  C   UNL     1       5.196   4.291  16.250  0.00  0.00    +0.000 C 
BRANCH  13  15
ATOM     14  N   UNL     1       6.689   4.106  18.186  0.00  0.00    +0.000 N 
ATOM     15  C   UNL     1       6.581   4.461  16.871  0.00  0.00    +0.000 C 
ATOM     16  O   UNL     1       7.529   4.960  16.272  0.00  0.00    +0.000 OA
ATOM     17  H   UNL     1       7.572   4.247  18.655  0.00  0.00    +0.000 HD
ATOM     18  H   UNL     1       5.886   3.792  18.724  0.00  0.00    +0.000 HD
ENDBRANCH  13  15
ENDBRANCH   1  13
BRANCH   4  19
ATOM     19  C   UNL     1       1.709   7.048  18.029  0.00  0.00    +0.000 C 
BRANCH  19  20
ATOM     20  C   UNL     1       1.957   8.513  18.292  0.00  0.00    +0.000 C 
ATOM     21  O   UNL     1       2.383   9.234  17.394  0.00  0.00    +0.000 OA
BRANCH  20  22
ATOM     22  C   UNL     1       1.664   9.028  19.666  0.00  0.00    +0.000 C 
ATOM     23  C   UNL     1       0.516   9.594  20.072  0.00  0.00    +0.000 C 
BRANCH  23  24
ATOM     24  C   UNL     1      -0.668   9.790  19.273  0.00  0.00    +0.000 C 
ATOM     25  C   UNL     1      -1.011  10.941  18.679  0.00  0.00    +0.000 C 
BRANCH  25  26
ATOM     26  C   UNL     1      -2.256  10.984  17.909  0.00  0.00    +0.000 A 
ATOM     27  C   UNL     1      -2.275  10.515  16.591  0.00  0.00    +0.000 A 
ATOM     28  C   UNL     1      -3.427  10.654  15.815  0.00  0.00    +0.000 A 
ATOM     29  C   UNL     1      -4.561  11.260  16.351  0.00  0.00    +0.000 A 
ATOM     30  C   UNL     1      -4.549  11.726  17.666  0.00  0.00    +0.000 A 
ATOM     31  C   UNL     1      -3.397  11.589  18.444  0.00  0.00    +0.000 A 
ENDBRANCH  25  26
ENDBRANCH  23  24
ENDBRANCH  20  22
ENDBRANCH  19  20
ENDBRANCH   4  19
TORSDOF 8
ENDMDL
MODEL 6
REMARK VINA RESULT:      -7.6      2.284      4.217
REMARK  Name = 
REMARK  8 active torsions:
REMARK  status: ('A' for Active; 'I' for Inactive)
REMARK    1  A    between atoms: C_2  and  C_4
REMARK    2  A    between atoms: C_4  and  N_5
REMARK    3  A    between atoms: C_8  and  O_9
REMARK    4  A    between atoms: C_8  and  C_10
REMARK    5  A    between atoms: C_10  and  C_11
REMARK    6  A    between atoms: C_11  and  C_13
REMARK    7  A    between atoms: C_14  and  C_15
REMARK    8  A    between atoms: C_16  and  C_17
REMARK                            x       y       z     vdW  Elec       q    Type
REMARK                         _______ _______ _______ _____ _____    ______ ____
ROOT
ATOM      1  N   UNL     1       4.705   4.397  16.946  0.00  0.00    +0.000 N 
ATOM      2  C   UNL     1       4.548   5.705  17.404  0.00  0.00    +0.000 C 
ATOM      3  O   UNL     1       5.221   6.676  17.087  0.00  0.00    +0.000 OA
ATOM      4  C   UNL     1       3.457   5.680  18.521  0.00  0.00    +0.000 C 
ATOM      5  C   UNL     1       3.220   4.202  18.680  0.00  0.00    +0.000 A 
ATOM      6  C   UNL     1       2.424   3.535  19.597  0.00  0.00    +0.000 A 
ATOM      7  C   UNL     1       2.381   2.141  19.541  0.00  0.00    +0.000 A 
ATOM      8  C   UNL     1       3.134   1.439  18.584  0.00  0.00    +0.000 A 
ATOM      9  C   UNL     1       3.940   2.118  17.667  0.00  0.00    +0.000 A 
ATOM     10  C   UNL     1       3.967   3.499  17.728  0.00  0.00    +0.000 A 
ENDROOT
BRANCH   4  11
ATOM     11  O   UNL     1       3.975   6.194  19.747  0.00  0.00    +0.000 OA
ATOM     12  H   UNL     1       4.035   7.160  19.633  0.00  0.00    +0.000 HD
ENDBRANCH   4  11
BRANCH   1  13
ATOM     13  C   UNL     1       5.660   4.003  15.932  0.00  0.00    +0.000 C 
BRANCH  13  15
ATOM     14  N   UNL     1       7.454   5.514  15.218  0.00  0.00    +0.000 N 
ATOM     15  C   UNL     1       7.027   4.641  16.177  0.00  0.00    +0.000 C 
ATOM     16  O   UNL     1       7.748   4.339  17.124  0.00  0.00    +0.000 OA
ATOM     17  H   UNL     1       8.373   5.923  15.310  0.00  0.00    +0.000 HD
ATOM     18  H   UNL     1       6.915   5.691  14.376  0.00  0.00    +0.000 HD
ENDBRANCH  13  15
ENDBRANCH   1  13
BRANCH   4  19
ATOM     19  C   UNL     1       2.214   6.480  18.148  0.00  0.00    +0.000 C 
BRANCH  19  20
ATOM     20  C   UNL     1       2.155   7.824  18.830  0.00  0.00    +0.000 C 
ATOM     21  O   UNL     1       1.952   7.891  20.039  0.00  0.00    +0.000 OA
BRANCH  20  22
ATOM     22  C   UNL     1       2.351   9.040  17.979  0.00  0.00    +0.000 C 
ATOM     23  C   UNL     1       1.668  10.193  18.076  0.00  0.00    +0.000 C 
BRANCH  23  24
ATOM     24  C   UNL     1       0.636  10.495  19.037  0.00  0.00    +0.000 C 
ATOM     25  C   UNL     1       0.795  11.277  20.114  0.00  0.00    +0.000 C 
BRANCH  25  26
ATOM     26  C   UNL     1      -0.350  11.477  21.004  0.00  0.00    +0.000 A 
ATOM     27  C   UNL     1      -1.376  12.352  20.632  0.00  0.00    +0.000 A 
ATOM     28  C   UNL     1      -2.414  12.633  21.522  0.00  0.00    +0.000 A 
ATOM     29  C   UNL     1      -2.431  12.042  22.783  0.00  0.00    +0.000 A 
ATOM     30  C   UNL     1      -1.412  11.166  23.158  0.00  0.00    +0.000 A 
ATOM     31  C   UNL     1      -0.372  10.885  22.271  0.00  0.00    +0.000 A 
ENDBRANCH  25  26
ENDBRANCH  23  24
ENDBRANCH  20  22
ENDBRANCH  19  20
ENDBRANCH   4  19
TORSDOF 8
ENDMDL
MODEL 7
REMARK VINA RESULT:      -7.4      2.370      4.394
REMARK  Name = 
REMARK  8 active torsions:
REMARK  status: ('A' for Active; 'I' for Inactive)
REMARK    1  A    between atoms: C_2  and  C_4
REMARK    2  A    between atoms: C_4  and  N_5
REMARK    3  A    between atoms: C_8  and  O_9
REMARK    4  A    between atoms: C_8  and  C_10
REMARK    5  A    between atoms: C_10  and  C_11
REMARK    6  A    between atoms: C_11  and  C_13
REMARK    7  A    between atoms: C_14  and  C_15
REMARK    8  A    between atoms: C_16  and  C_17
REMARK                            x       y       z     vdW  Elec       q    Type
REMARK                         _______ _______ _______ _____ _____    ______ ____
ROOT
ATOM      1  N   UNL     1       4.216   4.584  17.161  0.00  0.00    +0.000 N 
ATOM      2  C   UNL     1       4.160   5.889  17.652  0.00  0.00    +0.000 C 
ATOM      3  O   UNL     1       4.970   6.782  17.447  0.00  0.00    +0.000 OA
ATOM      4  C   UNL     1       2.958   5.961  18.645  0.00  0.00    +0.000 C 
ATOM      5  C   UNL     1       2.538   4.517  18.720  0.00  0.00    +0.000 A 
ATOM      6  C   UNL     1       1.576   3.923  19.519  0.00  0.00    +0.000 A 
ATOM      7  C   UNL     1       1.381   2.545  19.403  0.00  0.00    +0.000 A 
ATOM      8  C   UNL     1       2.150   1.787  18.504  0.00  0.00    +0.000 A 
ATOM      9  C   UNL     1       3.123   2.392  17.704  0.00  0.00    +0.000 A 
ATOM     10  C   UNL     1       3.300   3.758  17.824  0.00  0.00    +0.000 A 
ENDROOT
BRANCH   4  11
ATOM     11  O   UNL     1       3.393   6.376  19.939  0.00  0.00    +0.000 OA
ATOM     12  H   UNL     1       3.497   5.562  20.466  0.00  0.00    +0.000 HD
ENDBRANCH   4  11
BRANCH   1  13
ATOM     13  C   UNL     1       5.226   4.109  16.238  0.00  0.00    +0.000 C 
BRANCH  13  15
ATOM     14  N   UNL     1       6.829   4.146  18.093  0.00  0.00    +0.000 N 
ATOM     15  C   UNL     1       6.634   4.386  16.763  0.00  0.00    +0.000 C 
ATOM     16  O   UNL     1       7.524   4.873  16.071  0.00  0.00    +0.000 OA
ATOM     17  H   UNL     1       7.730   4.362  18.498  0.00  0.00    +0.000 HD
ATOM     18  H   UNL     1       6.073   3.845  18.700  0.00  0.00    +0.000 HD
ENDBRANCH  13  15
ENDBRANCH   1  13
BRANCH   4  19
ATOM     19  C   UNL     1       1.862   6.911  18.176  0.00  0.00    +0.000 C 
BRANCH  19  20
ATOM     20  C   UNL     1       1.900   8.244  18.881  0.00  0.00    +0.000 C 
ATOM     21  O   UNL     1       1.700   8.304  20.092  0.00  0.00    +0.000 OA
BRANCH  20  22
ATOM     22  C   UNL     1       2.186   9.457  18.052  0.00  0.00    +0.000 C 
ATOM     23  C   UNL     1       1.744  10.702  18.293  0.00  0.00    +0.000 C 
BRANCH  23  24
ATOM     24  C   UNL     1       0.934  11.120  19.411  0.00  0.00    +0.000 C 
ATOM     25  C   UNL     1      -0.399  11.003  19.478  0.00  0.00    +0.000 C 
BRANCH  25  26
ATOM     26  C   UNL     1      -1.080  11.487  20.680  0.00  0.00    +0.000 A 
ATOM     27  C   UNL     1      -0.708  10.996  21.936  0.00  0.00    +0.000 A 
ATOM     28  C   UNL     1      -1.426  11.368  23.074  0.00  0.00    +0.000 A 
ATOM     29  C   UNL     1      -2.515  12.230  22.962  0.00  0.00    +0.000 A 
ATOM     30  C   UNL     1      -2.888  12.725  21.712  0.00  0.00    +0.000 A 
ATOM     31  C   UNL     1      -2.173  12.353  20.572  0.00  0.00    +0.000 A 
ENDBRANCH  25  26
ENDBRANCH  23  24
ENDBRANCH  20  22
ENDBRANCH  19  20
ENDBRANCH   4  19
TORSDOF 8
ENDMDL
MODEL 8
REMARK VINA RESULT:      -7.3      2.801      4.566
REMARK  Name = 
REMARK  8 active torsions:
REMARK  status: ('A' for Active; 'I' for Inactive)
REMARK    1  A    between atoms: C_2  and  C_4
REMARK    2  A    between atoms: C_4  and  N_5
REMARK    3  A    between atoms: C_8  and  O_9
REMARK    4  A    between atoms: C_8  and  C_10
REMARK    5  A    between atoms: C_10  and  C_11
REMARK    6  A    between atoms: C_11  and  C_13
REMARK    7  A    between atoms: C_14  and  C_15
REMARK    8  A    between atoms: C_16  and  C_17
REMARK                            x       y       z     vdW  Elec       q    Type
REMARK                         _______ _______ _______ _____ _____    ______ ____
ROOT
ATOM      1  N   UNL     1       4.359   4.630  17.039  0.00  0.00    +0.000 N 
ATOM      2  C   UNL     1       4.238   5.906  17.589  0.00  0.00    +0.000 C 
ATOM      3  O   UNL     1       4.961   6.869  17.369  0.00  0.00    +0.000 OA
ATOM      4  C   UNL     1       3.109   5.844  18.665  0.00  0.00    +0.000 C 
ATOM      5  C   UNL     1       2.808   4.370  18.706  0.00  0.00    +0.000 A 
ATOM      6  C   UNL     1       1.954   3.671  19.543  0.00  0.00    +0.000 A 
ATOM      7  C   UNL     1       1.858   2.288  19.381  0.00  0.00    +0.000 A 
ATOM      8  C   UNL     1       2.616   1.628  18.398  0.00  0.00    +0.000 A 
ATOM      9  C   UNL     1       3.479   2.338  17.561  0.00  0.00    +0.000 A 
ATOM     10  C   UNL     1       3.559   3.709  17.728  0.00  0.00    +0.000 A 
ENDROOT
BRANCH   4  11
ATOM     11  O   UNL     1       3.603   6.244  19.943  0.00  0.00    +0.000 OA
ATOM     12  H   UNL     1       3.918   5.431  20.379  0.00  0.00    +0.000 HD
ENDBRANCH   4  11
BRANCH   1  13
ATOM     13  C   UNL     1       5.333   4.272  16.030  0.00  0.00    +0.000 C 
BRANCH  13  15
ATOM     14  N   UNL     1       7.274   5.710  15.610  0.00  0.00    +0.000 N 
ATOM     15  C   UNL     1       6.734   4.748  16.414  0.00  0.00    +0.000 C 
ATOM     16  O   UNL     1       7.383   4.252  17.330  0.00  0.00    +0.000 OA
ATOM     17  H   UNL     1       8.218   6.022  15.793  0.00  0.00    +0.000 HD
ATOM     18  H   UNL     1       6.791   6.053  14.785  0.00  0.00    +0.000 HD
ENDBRANCH  13  15
ENDBRANCH   1  13
BRANCH   4  19
ATOM     19  C   UNL     1       1.912   6.721  18.315  0.00  0.00    +0.000 C 
BRANCH  19  20
ATOM     20  C   UNL     1       1.943   8.060  19.010  0.00  0.00    +0.000 C 
ATOM     21  O   UNL     1       1.499   8.169  20.150  0.00  0.00    +0.000 OA
BRANCH  20  22
ATOM     22  C   UNL     1       2.524   9.216  18.258  0.00  0.00    +0.000 C 
ATOM     23  C   UNL     1       1.879  10.345  17.920  0.00  0.00    +0.000 C 
BRANCH  23  24
ATOM     24  C   UNL     1       0.512  10.676  18.240  0.00  0.00    +0.000 C 
ATOM     25  C   UNL     1      -0.565  10.089  17.701  0.00  0.00    +0.000 C 
BRANCH  25  26
ATOM     26  C   UNL     1      -1.890  10.547  18.122  0.00  0.00    +0.000 A 
ATOM     27  C   UNL     1      -3.034  10.039  17.495  0.00  0.00    +0.000 A 
ATOM     28  C   UNL     1      -4.293  10.552  17.812  0.00  0.00    +0.000 A 
ATOM     29  C   UNL     1      -4.414  11.571  18.754  0.00  0.00    +0.000 A 
ATOM     30  C   UNL     1      -3.278  12.078  19.385  0.00  0.00    +0.000 A 
ATOM     31  C   UNL     1      -2.018  11.569  19.069  0.00  0.00    +0.000 A 
ENDBRANCH  25  26
ENDBRANCH  23  24
ENDBRANCH  20  22
ENDBRANCH  19  20
ENDBRANCH   4  19
TORSDOF 8
ENDMDL
MODEL 9
REMARK VINA RESULT:      -7.3      6.025     10.190
REMARK  Name = 
REMARK  8 active torsions:
REMARK  status: ('A' for Active; 'I' for Inactive)
REMARK    1  A    between atoms: C_2  and  C_4
REMARK    2  A    between atoms: C_4  and  N_5
REMARK    3  A    between atoms: C_8  and  O_9
REMARK    4  A    between atoms: C_8  and  C_10
REMARK    5  A    between atoms: C_10  and  C_11
REMARK    6  A    between atoms: C_11  and  C_13
REMARK    7  A    between atoms: C_14  and  C_15
REMARK    8  A    between atoms: C_16  and  C_17
REMARK                            x       y       z     vdW  Elec       q    Type
REMARK                         _______ _______ _______ _____ _____    ______ ____
ROOT
ATOM      1  N   UNL     1      -3.208  12.183  20.015  0.00  0.00    +0.000 N 
ATOM      2  C   UNL     1      -1.822  12.085  20.136  0.00  0.00    +0.000 C 
ATOM      3  O   UNL     1      -1.135  12.529  21.046  0.00  0.00    +0.000 OA
ATOM      4  C   UNL     1      -1.282  11.446  18.818  0.00  0.00    +0.000 C 
ATOM      5  C   UNL     1      -2.527  11.399  17.972  0.00  0.00    +0.000 A 
ATOM      6  C   UNL     1      -2.674  11.020  16.648  0.00  0.00    +0.000 A 
ATOM      7  C   UNL     1      -3.951  11.074  16.085  0.00  0.00    +0.000 A 
ATOM      8  C   UNL     1      -5.050  11.511  16.844  0.00  0.00    +0.000 A 
ATOM      9  C   UNL     1      -4.893  11.897  18.177  0.00  0.00    +0.000 A 
ATOM     10  C   UNL     1      -3.625  11.831  18.725  0.00  0.00    +0.000 A 
ENDROOT
BRANCH   4  11
ATOM     11  O   UNL     1      -0.335  12.308  18.188  0.00  0.00    +0.000 OA
ATOM     12  H   UNL     1       0.545  11.974  18.439  0.00  0.00    +0.000 HD
ENDBRANCH   4  11
BRANCH   1  13
ATOM     13  C   UNL     1      -4.070  12.764  21.022  0.00  0.00    +0.000 C 
BRANCH  13  15
ATOM     14  N   UNL     1      -3.123  14.975  21.498  0.00  0.00    +0.000 N 
ATOM     15  C   UNL     1      -4.133  14.285  20.891  0.00  0.00    +0.000 C 
ATOM     16  O   UNL     1      -5.066  14.874  20.351  0.00  0.00    +0.000 OA
ATOM     17  H   UNL     1      -3.148  15.985  21.481  0.00  0.00    +0.000 HD
ATOM     18  H   UNL     1      -2.403  14.506  22.038  0.00  0.00    +0.000 HD
ENDBRANCH  13  15
ENDBRANCH   1  13
BRANCH   4  19
ATOM     19  C   UNL     1      -0.626  10.090  19.046  0.00  0.00    +0.000 C 
BRANCH  19  20
ATOM     20  C   UNL     1       0.844  10.198  19.371  0.00  0.00    +0.000 C 
ATOM     21  O   UNL     1       1.205  10.352  20.535  0.00  0.00    +0.000 OA
BRANCH  20  22
ATOM     22  C   UNL     1       1.812  10.110  18.233  0.00  0.00    +0.000 C 
ATOM     23  C   UNL     1       2.292   8.980  17.687  0.00  0.00    +0.000 C 
BRANCH  23  24
ATOM     24  C   UNL     1       1.946   7.633  18.070  0.00  0.00    +0.000 C 
ATOM     25  C   UNL     1       2.613   6.896  18.969  0.00  0.00    +0.000 C 
BRANCH  25  26
ATOM     26  C   UNL     1       2.144   5.537  19.240  0.00  0.00    +0.000 A 
ATOM     27  C   UNL     1       1.974   4.635  18.184  0.00  0.00    +0.000 A 
ATOM     28  C   UNL     1       1.422   3.375  18.420  0.00  0.00    +0.000 A 
ATOM     29  C   UNL     1       1.039   3.011  19.709  0.00  0.00    +0.000 A 
ATOM     30  C   UNL     1       1.210   3.905  20.767  0.00  0.00    +0.000 A 
ATOM     31  C   UNL     1       1.760   5.166  20.533  0.00  0.00    +0.000 A 
ENDBRANCH  25  26
ENDBRANCH  23  24
ENDBRANCH  20  22
ENDBRANCH  19  20
ENDBRANCH   4  19
TORSDOF 8
ENDMDL
