MODEL 1
REMARK VINA RESULT:      -8.9      0.000      0.000
REMARK  Name = 
REMARK  5 active torsions:
REMARK  status: ('A' for Active; 'I' for Inactive)
REMARK    1  A    between atoms: C_1  and  C_2
REMARK    2  A    between atoms: C_2  and  C_4
REMARK    3  A    between atoms: C_8  and  N_9
REMARK    4  A    between atoms: N_12  and  N_13
REMARK    5  A    between atoms: C_14  and  C_16
REMARK                            x       y       z     vdW  Elec       q    Type
REMARK                         _______ _______ _______ _____ _____    ______ ____
ROOT
ATOM      1  N   UNL     1       6.068   4.871  15.790  0.00  0.00    +0.000 N 
ATOM      2  C   UNL     1       5.323   5.938  16.256  0.00  0.00    +0.000 C 
ATOM      3  O   UNL     1       4.887   6.879  15.589  0.00  0.00    +0.000 OA
ATOM      4  N   UNL     1       5.117   5.929  17.628  0.00  0.00    +0.000 N 
ATOM      5  H   UNL     1       6.404   4.216  16.477  0.00  0.00    +0.000 HD
ATOM      6  H   UNL     1       5.093   5.073  18.169  0.00  0.00    +0.000 HD
ENDROOT
BRANCH   1  11
ATOM      7  C   UNL     1       6.204   3.471  12.328  0.00  0.00    +0.000 A 
ATOM      8  C   UNL     1       7.281   4.175  11.781  0.00  0.00    +0.000 A 
ATOM      9  C   UNL     1       7.944   5.125  12.546  0.00  0.00    +0.000 A 
ATOM     10  C   UNL     1       7.544   5.371  13.861  0.00  0.00    +0.000 A 
ATOM     11  C   UNL     1       6.480   4.672  14.442  0.00  0.00    +0.000 A 
ATOM     12  C   UNL     1       5.807   3.723  13.659  0.00  0.00    +0.000 A 
BRANCH   7  14
ATOM     13  C   UNL     1       6.196   1.177  11.126  0.00  0.00    +0.000 C 
ATOM     14  C   UNL     1       5.476   2.446  11.520  0.00  0.00    +0.000 C 
ATOM     15  O   UNL     1       4.307   2.644  11.194  0.00  0.00    +0.000 OA
ENDBRANCH   7  14
ENDBRANCH   1  11
BRANCH   4  16
ATOM     16  N   UNL     1       4.295   6.980  18.116  0.00  0.00    +0.000 N 
ATOM     17  C   UNL     1       2.985   6.715  18.450  0.00  0.00    +0.000 C 
ATOM     18  O   UNL     1       2.493   5.600  18.288  0.00  0.00    +0.000 OA
ATOM     19  H   UNL     1       4.779   7.860  18.281  0.00  0.00    +0.000 HD
BRANCH  17  20
ATOM     20  C   UNL     1       2.174   7.829  19.047  0.00  0.00    +0.000 A 
ATOM     21  C   UNL     1       1.786   8.864  18.188  0.00  0.00    +0.000 A 
ATOM     22  C   UNL     1       0.969   9.905  18.640  0.00  0.00    +0.000 A 
ATOM     23  C   UNL     1       0.525   9.940  19.966  0.00  0.00    +0.000 A 
ATOM     24  C   UNL     1      -0.354  10.946  20.405  0.00  0.00    +0.000 A 
ATOM     25  C   UNL     1      -0.782  10.989  21.731  0.00  0.00    +0.000 A 
ATOM     26  C   UNL     1      -0.312  10.048  22.640  0.00  0.00    +0.000 A 
ATOM     27  C   UNL     1       0.553   9.034  22.214  0.00  0.00    +0.000 A 
ATOM     28  C   UNL     1       0.962   8.944  20.869  0.00  0.00    +0.000 A 
ATOM     29  C   UNL     1       1.780   7.889  20.395  0.00  0.00    +0.000 A 
ENDBRANCH  17  20
ENDBRANCH   4  16
TORSDOF 4
ENDMDL
MODEL 2
REMARK VINA RESULT:      -8.7      3.253      5.206
REMARK  Name = 
REMARK  5 active torsions:
REMARK  status: ('A' for Active; 'I' for Inactive)
REMARK    1  A    between atoms: C_1  and  C_2
REMARK    2  A    between atoms: C_2  and  C_4
REMARK    3  A    between atoms: C_8  and  N_9
REMARK    4  A    between atoms: N_12  and  N_13
REMARK    5  A    between atoms: C_14  and  C_16
REMARK                            x       y       z     vdW  Elec       q    Type
REMARK                         _______ _______ _______ _____ _____    ______ ____
ROOT
ATOM      1  N   UNL     1       3.162   5.937  19.843  0.00  0.00    +0.000 N 
ATOM      2  C   UNL     1       2.284   7.004  19.841  0.00  0.00    +0.000 C 
ATOM      3  O   UNL     1       1.917   7.655  18.860  0.00  0.00    +0.000 OA
ATOM      4  N   UNL     1       1.838   7.374  21.101  0.00  0.00    +0.000 N 
ATOM      5  H   UNL     1       3.410   5.553  20.741  0.00  0.00    +0.000 HD
ATOM      6  H   UNL     1       1.770   6.717  21.869  0.00  0.00    +0.000 HD
ENDROOT
BRANCH   1  11
ATOM      7  C   UNL     1       5.679   5.507  17.115  0.00  0.00    +0.000 A 
ATOM      8  C   UNL     1       5.144   4.429  16.404  0.00  0.00    +0.000 A 
ATOM      9  C   UNL     1       3.968   3.832  16.840  0.00  0.00    +0.000 A 
ATOM     10  C   UNL     1       3.316   4.312  17.977  0.00  0.00    +0.000 A 
ATOM     11  C   UNL     1       3.818   5.399  18.701  0.00  0.00    +0.000 A 
ATOM     12  C   UNL     1       5.013   5.989  18.263  0.00  0.00    +0.000 A 
BRANCH   7  14
ATOM     13  C   UNL     1       7.572   7.224  17.540  0.00  0.00    +0.000 C 
ATOM     14  C   UNL     1       6.946   6.162  16.665  0.00  0.00    +0.000 C 
ATOM     15  O   UNL     1       7.461   5.827  15.600  0.00  0.00    +0.000 OA
ENDBRANCH   7  14
ENDBRANCH   1  11
BRANCH   4  16
ATOM     16  N   UNL     1       0.882   8.424  21.113  0.00  0.00    +0.000 N 
ATOM     17  C   UNL     1       1.018   9.454  22.018  0.00  0.00    +0.000 C 
ATOM     18  O   UNL     1       1.921   9.461  22.854  0.00  0.00    +0.000 OA
ATOM     19  H   UNL     1       0.197   8.388  20.360  0.00  0.00    +0.000 HD
BRANCH  17  20
ATOM     20  C   UNL     1       0.039  10.591  21.941  0.00  0.00    +0.000 A 
ATOM     21  C   UNL     1       0.195  11.493  20.882  0.00  0.00    +0.000 A 
ATOM     22  C   UNL     1      -0.713  12.539  20.690  0.00  0.00    +0.000 A 
ATOM     23  C   UNL     1      -1.797  12.713  21.558  0.00  0.00    +0.000 A 
ATOM     24  C   UNL     1      -2.750  13.719  21.327  0.00  0.00    +0.000 A 
ATOM     25  C   UNL     1      -3.820  13.902  22.201  0.00  0.00    +0.000 A 
ATOM     26  C   UNL     1      -3.930  13.104  23.334  0.00  0.00    +0.000 A 
ATOM     27  C   UNL     1      -2.995  12.089  23.570  0.00  0.00    +0.000 A 
ATOM     28  C   UNL     1      -1.933  11.857  22.675  0.00  0.00    +0.000 A 
ATOM     29  C   UNL     1      -1.013  10.795  22.851  0.00  0.00    +0.000 A 
ENDBRANCH  17  20
ENDBRANCH   4  16
TORSDOF 4
ENDMDL
MODEL 3
REMARK VINA RESULT:      -8.7      6.780      8.349
REMARK  Name = 
REMARK  5 active torsions:
REMARK  status: ('A' for Active; 'I' for Inactive)
REMARK    1  A    between atoms: C_1  and  C_2
REMARK    2  A    between atoms: C_2  and  C_4
REMARK    3  A    between atoms: C_8  and  N_9
REMARK    4  A    between atoms: N_12  and  N_13
REMARK    5  A    between atoms: C_14  and  C_16
REMARK                            x       y       z     vdW  Elec       q    Type
REMARK                         _______ _______ _______ _____ _____    ______ ____
ROOT
ATOM      1  N   UNL     1       7.354   6.450  18.501  0.00  0.00    +0.000 N 
ATOM      2  C   UNL     1       7.746   7.671  17.986  0.00  0.00    +0.000 C 
ATOM      3  O   UNL     1       7.389   8.169  16.916  0.00  0.00    +0.000 OA
ATOM      4  N   UNL     1       8.675   8.343  18.767  0.00  0.00    +0.000 N 
ATOM      5  H   UNL     1       7.789   6.158  19.361  0.00  0.00    +0.000 HD
ATOM      6  H   UNL     1       8.733   8.221  19.771  0.00  0.00    +0.000 HD
ENDROOT
BRANCH   1  11
ATOM      7  C   UNL     1       4.316   4.364  17.883  0.00  0.00    +0.000 A 
ATOM      8  C   UNL     1       4.679   3.673  16.724  0.00  0.00    +0.000 A 
ATOM      9  C   UNL     1       5.914   3.914  16.136  0.00  0.00    +0.000 A 
ATOM     10  C   UNL     1       6.795   4.834  16.705  0.00  0.00    +0.000 A 
ATOM     11  C   UNL     1       6.467   5.531  17.874  0.00  0.00    +0.000 A 
ATOM     12  C   UNL     1       5.213   5.292  18.455  0.00  0.00    +0.000 A 
BRANCH   7  14
ATOM     13  C   UNL     1       1.751   4.069  17.665  0.00  0.00    +0.000 C 
ATOM     14  C   UNL     1       2.990   4.122  18.530  0.00  0.00    +0.000 C 
ATOM     15  O   UNL     1       2.925   3.965  19.748  0.00  0.00    +0.000 OA
ENDBRANCH   7  14
ENDBRANCH   1  11
BRANCH   4  16
ATOM     16  N   UNL     1       9.037   9.631  18.290  0.00  0.00    +0.000 N 
ATOM     17  C   UNL     1       9.364  10.620  19.192  0.00  0.00    +0.000 C 
ATOM     18  O   UNL     1       9.301  10.430  20.406  0.00  0.00    +0.000 OA
ATOM     19  H   UNL     1       9.127   9.703  17.278  0.00  0.00    +0.000 HD
BRANCH  17  20
ATOM     20  C   UNL     1       9.829  11.941  18.648  0.00  0.00    +0.000 A 
ATOM     21  C   UNL     1      10.970  11.929  17.837  0.00  0.00    +0.000 A 
ATOM     22  C   UNL     1      11.432  13.100  17.229  0.00  0.00    +0.000 A 
ATOM     23  C   UNL     1      10.767  14.316  17.423  0.00  0.00    +0.000 A 
ATOM     24  C   UNL     1      11.186  15.481  16.758  0.00  0.00    +0.000 A 
ATOM     25  C   UNL     1      10.533  16.695  16.964  0.00  0.00    +0.000 A 
ATOM     26  C   UNL     1       9.475  16.765  17.864  0.00  0.00    +0.000 A 
ATOM     27  C   UNL     1       9.039  15.610  18.524  0.00  0.00    +0.000 A 
ATOM     28  C   UNL     1       9.654  14.365  18.295  0.00  0.00    +0.000 A 
ATOM     29  C   UNL     1       9.191  13.169  18.895  0.00  0.00    +0.000 A 
ENDBRANCH  17  20
ENDBRANCH   4  16
TORSDOF 4
ENDMDL
MODEL 4
REMARK VINA RESULT:      -8.5      0.755      1.651
REMARK  Name = 
REMARK  5 active torsions:
REMARK  status: ('A' for Active; 'I' for Inactive)
REMARK    1  A    between atoms: C_1  and  C_2
REMARK    2  A    between atoms: C_2  and  C_4
REMARK    3  A    between atoms: C_8  and  N_9
REMARK    4  A    between atoms: N_12  and  N_13
REMARK    5  A    between atoms: C_14  and  C_16
REMARK                            x       y       z     vdW  Elec       q    Type
REMARK                         _______ _______ _______ _____ _____    ______ ____
ROOT
ATOM      1  N   UNL     1       6.032   4.719  15.958  0.00  0.00    +0.000 N 
ATOM      2  C   UNL     1       5.291   5.758  16.489  0.00  0.00    +0.000 C 
ATOM      3  O   UNL     1       4.835   6.727  15.877  0.00  0.00    +0.000 OA
ATOM      4  N   UNL     1       5.115   5.685  17.863  0.00  0.00    +0.000 N 
ATOM      5  H   UNL     1       6.387   4.035  16.606  0.00  0.00    +0.000 HD
ATOM      6  H   UNL     1       5.107   4.804  18.364  0.00  0.00    +0.000 HD
ENDROOT
BRANCH   1  11
ATOM      7  C   UNL     1       6.046   3.544  12.411  0.00  0.00    +0.000 A 
ATOM      8  C   UNL     1       7.155   4.219  11.894  0.00  0.00    +0.000 A 
ATOM      9  C   UNL     1       7.881   5.078  12.709  0.00  0.00    +0.000 A 
ATOM     10  C   UNL     1       7.512   5.259  14.044  0.00  0.00    +0.000 A 
ATOM     11  C   UNL     1       6.416   4.586  14.595  0.00  0.00    +0.000 A 
ATOM     12  C   UNL     1       5.679   3.730  13.762  0.00  0.00    +0.000 A 
BRANCH   7  14
ATOM     13  C   UNL     1       3.919   3.086  11.005  0.00  0.00    +0.000 C 
ATOM     14  C   UNL     1       5.249   2.617  11.549  0.00  0.00    +0.000 C 
ATOM     15  O   UNL     1       5.686   1.497  11.292  0.00  0.00    +0.000 OA
ENDBRANCH   7  14
ENDBRANCH   1  11
BRANCH   4  16
ATOM     16  N   UNL     1       4.298   6.706  18.417  0.00  0.00    +0.000 N 
ATOM     17  C   UNL     1       2.939   6.502  18.523  0.00  0.00    +0.000 C 
ATOM     18  O   UNL     1       2.407   5.476  18.103  0.00  0.00    +0.000 OA
ATOM     19  H   UNL     1       4.806   7.501  18.798  0.00  0.00    +0.000 HD
BRANCH  17  20
ATOM     20  C   UNL     1       2.120   7.567  19.196  0.00  0.00    +0.000 A 
ATOM     21  C   UNL     1       1.802   7.367  20.545  0.00  0.00    +0.000 A 
ATOM     22  C   UNL     1       1.106   8.339  21.271  0.00  0.00    +0.000 A 
ATOM     23  C   UNL     1       0.705   9.534  20.662  0.00  0.00    +0.000 A 
ATOM     24  C   UNL     1       0.067  10.542  21.406  0.00  0.00    +0.000 A 
ATOM     25  C   UNL     1      -0.347  11.724  20.796  0.00  0.00    +0.000 A 
ATOM     26  C   UNL     1      -0.160  11.898  19.429  0.00  0.00    +0.000 A 
ATOM     27  C   UNL     1       0.485  10.908  18.678  0.00  0.00    +0.000 A 
ATOM     28  C   UNL     1       0.953   9.726  19.284  0.00  0.00    +0.000 A 
ATOM     29  C   UNL     1       1.669   8.738  18.564  0.00  0.00    +0.000 A 
ENDBRANCH  17  20
ENDBRANCH   4  16
TORSDOF 4
ENDMDL
MODEL 5
REMARK VINA RESULT:      -8.3      3.309      5.402
REMARK  Name = 
REMARK  5 active torsions:
REMARK  status: ('A' for Active; 'I' for Inactive)
REMARK    1  A    between atoms: C_1  and  C_2
REMARK    2  A    between atoms: C_2  and  C_4
REMARK    3  A    between atoms: C_8  and  N_9
REMARK    4  A    between atoms: N_12  and  N_13
REMARK    5  A    between atoms: C_14  and  C_16
REMARK                            x       y       z     vdW  Elec       q    Type
REMARK                         _______ _______ _______ _____ _____    ______ ____
ROOT
ATOM      1  N   UNL     1       3.153   5.946  19.878  0.00  0.00    +0.000 N 
ATOM      2  C   UNL     1       2.306   7.038  19.873  0.00  0.00    +0.000 C 
ATOM      3  O   UNL     1       1.983   7.716  18.896  0.00  0.00    +0.000 OA
ATOM      4  N   UNL     1       1.839   7.399  21.129  0.00  0.00    +0.000 N 
ATOM      5  H   UNL     1       3.367   5.539  20.774  0.00  0.00    +0.000 HD
ATOM      6  H   UNL     1       1.733   6.730  21.883  0.00  0.00    +0.000 HD
ENDROOT
BRANCH   1  11
ATOM      7  C   UNL     1       5.705   5.516  17.182  0.00  0.00    +0.000 A 
ATOM      8  C   UNL     1       5.175   4.443  16.460  0.00  0.00    +0.000 A 
ATOM      9  C   UNL     1       3.991   3.849  16.878  0.00  0.00    +0.000 A 
ATOM     10  C   UNL     1       3.325   4.328  18.008  0.00  0.00    +0.000 A 
ATOM     11  C   UNL     1       3.822   5.410  18.742  0.00  0.00    +0.000 A 
ATOM     12  C   UNL     1       5.025   5.996  18.323  0.00  0.00    +0.000 A 
BRANCH   7  14
ATOM     13  C   UNL     1       7.557   7.277  17.599  0.00  0.00    +0.000 C 
ATOM     14  C   UNL     1       6.980   6.167  16.751  0.00  0.00    +0.000 C 
ATOM     15  O   UNL     1       7.541   5.790  15.724  0.00  0.00    +0.000 OA
ENDBRANCH   7  14
ENDBRANCH   1  11
BRANCH   4  16
ATOM     16  N   UNL     1       0.913   8.475  21.136  0.00  0.00    +0.000 N 
ATOM     17  C   UNL     1       0.970   9.410  22.147  0.00  0.00    +0.000 C 
ATOM     18  O   UNL     1       1.772   9.308  23.074  0.00  0.00    +0.000 OA
ATOM     19  H   UNL     1       0.318   8.533  20.313  0.00  0.00    +0.000 HD
BRANCH  17  20
ATOM     20  C   UNL     1       0.033  10.582  22.072  0.00  0.00    +0.000 A 
ATOM     21  C   UNL     1      -1.002  10.630  23.013  0.00  0.00    +0.000 A 
ATOM     22  C   UNL     1      -1.877  11.719  23.064  0.00  0.00    +0.000 A 
ATOM     23  C   UNL     1      -1.741  12.787  22.170  0.00  0.00    +0.000 A 
ATOM     24  C   UNL     1      -2.574  13.916  22.264  0.00  0.00    +0.000 A 
ATOM     25  C   UNL     1      -2.449  14.971  21.362  0.00  0.00    +0.000 A 
ATOM     26  C   UNL     1      -1.514  14.895  20.336  0.00  0.00    +0.000 A 
ATOM     27  C   UNL     1      -0.670  13.783  20.238  0.00  0.00    +0.000 A 
ATOM     28  C   UNL     1      -0.747  12.727  21.166  0.00  0.00    +0.000 A 
ATOM     29  C   UNL     1       0.139  11.623  21.133  0.00  0.00    +0.000 A 
ENDBRANCH  17  20
ENDBRANCH   4  16
TORSDOF 4
ENDMDL
MODEL 6
REMARK VINA RESULT:      -8.2      7.082      8.139
REMARK  Name = 
REMARK  5 active torsions:
REMARK  status: ('A' for Active; 'I' for Inactive)
REMARK    1  A    between atoms: C_1  and  C_2
REMARK    2  A    between atoms: C_2  and  C_4
REMARK    3  A    between atoms: C_8  and  N_9
REMARK    4  A    between atoms: N_12  and  N_13
REMARK    5  A    between atoms: C_14  and  C_16
REMARK                            x       y       z     vdW  Elec       q    Type
REMARK                         _______ _______ _______ _____ _____    ______ ____
ROOT
ATOM      1  N   UNL     1       7.647   6.784  18.500  0.00  0.00    +0.000 N 
ATOM      2  C   UNL     1       8.008   8.023  18.006  0.00  0.00    +0.000 C 
ATOM      3  O   UNL     1       7.738   8.480  16.894  0.00  0.00    +0.000 OA
ATOM      4  N   UNL     1       8.797   8.770  18.869  0.00  0.00    +0.000 N 
ATOM      5  H   UNL     1       8.003   6.534  19.409  0.00  0.00    +0.000 HD
ATOM      6  H   UNL     1       8.751   8.665  19.876  0.00  0.00    +0.000 HD
ENDROOT
BRANCH   1  11
ATOM      7  C   UNL     1       6.359   4.698  15.680  0.00  0.00    +0.000 A 
ATOM      8  C   UNL     1       5.411   3.901  16.328  0.00  0.00    +0.000 A 
ATOM      9  C   UNL     1       5.217   4.036  17.696  0.00  0.00    +0.000 A 
ATOM     10  C   UNL     1       5.956   4.972  18.422  0.00  0.00    +0.000 A 
ATOM     11  C   UNL     1       6.901   5.796  17.799  0.00  0.00    +0.000 A 
ATOM     12  C   UNL     1       7.101   5.645  16.419  0.00  0.00    +0.000 A 
BRANCH   7  14
ATOM     13  C   UNL     1       5.726   3.608  13.417  0.00  0.00    +0.000 C 
ATOM     14  C   UNL     1       6.585   4.567  14.208  0.00  0.00    +0.000 C 
ATOM     15  O   UNL     1       7.458   5.241  13.663  0.00  0.00    +0.000 OA
ENDBRANCH   7  14
ENDBRANCH   1  11
BRANCH   4  16
ATOM     16  N   UNL     1       9.119  10.074  18.408  0.00  0.00    +0.000 N 
ATOM     17  C   UNL     1       9.547  11.024  19.310  0.00  0.00    +0.000 C 
ATOM     18  O   UNL     1       9.609  10.786  20.515  0.00  0.00    +0.000 OA
ATOM     19  H   UNL     1       9.104  10.186  17.396  0.00  0.00    +0.000 HD
BRANCH  17  20
ATOM     20  C   UNL     1       9.965  12.363  18.772  0.00  0.00    +0.000 A 
ATOM     21  C   UNL     1      10.783  12.366  17.636  0.00  0.00    +0.000 A 
ATOM     22  C   UNL     1      11.161  13.565  17.026  0.00  0.00    +0.000 A 
ATOM     23  C   UNL     1      10.734  14.795  17.541  0.00  0.00    +0.000 A 
ATOM     24  C   UNL     1      11.053  15.999  16.890  0.00  0.00    +0.000 A 
ATOM     25  C   UNL     1      10.642  17.223  17.413  0.00  0.00    +0.000 A 
ATOM     26  C   UNL     1       9.938  17.261  18.611  0.00  0.00    +0.000 A 
ATOM     27  C   UNL     1       9.602  16.069  19.264  0.00  0.00    +0.000 A 
ATOM     28  C   UNL     1       9.967  14.819  18.729  0.00  0.00    +0.000 A 
ATOM     29  C   UNL     1       9.582  13.596  19.330  0.00  0.00    +0.000 A 
ENDBRANCH  17  20
ENDBRANCH   4  16
TORSDOF 4
ENDMDL
MODEL 7
REMARK VINA RESULT:      -8.2      3.358      5.353
REMARK  Name = 
REMARK  5 active torsions:
REMARK  status: ('A' for Active; 'I' for Inactive)
REMARK    1  A    between atoms: C_1  and  C_2
REMARK    2  A    between atoms: C_2  and  C_4
REMARK    3  A    between atoms: C_8  and  N_9
REMARK    4  A    between atoms: N_12  and  N_13
REMARK    5  A    between atoms: C_14  and  C_16
REMARK                            x       y       z     vdW  Elec       q    Type
REMARK                         _______ _______ _______ _____ _____    ______ ____
ROOT
ATOM      1  N   UNL     1       2.713   5.876  20.071  0.00  0.00    +0.000 N 
ATOM      2  C   UNL     1       2.210   7.160  19.970  0.00  0.00    +0.000 C 
ATOM      3  O   UNL     1       2.119   7.837  18.944  0.00  0.00    +0.000 OA
ATOM      4  N   UNL     1       1.832   7.718  21.183  0.00  0.00    +0.000 N 
ATOM      5  H   UNL     1       2.779   5.484  20.997  0.00  0.00    +0.000 HD
ATOM      6  H   UNL     1       1.520   7.156  21.967  0.00  0.00    +0.000 HD
ENDROOT
BRANCH   1  11
ATOM      7  C   UNL     1       5.155   4.442  17.633  0.00  0.00    +0.000 A 
ATOM      8  C   UNL     1       4.326   3.643  16.841  0.00  0.00    +0.000 A 
ATOM      9  C   UNL     1       2.970   3.560  17.127  0.00  0.00    +0.000 A 
ATOM     10  C   UNL     1       2.432   4.280  18.195  0.00  0.00    +0.000 A 
ATOM     11  C   UNL     1       3.232   5.101  18.997  0.00  0.00    +0.000 A 
ATOM     12  C   UNL     1       4.604   5.170  18.711  0.00  0.00    +0.000 A 
BRANCH   7  14
ATOM     13  C   UNL     1       7.071   4.747  15.917  0.00  0.00    +0.000 C 
ATOM     14  C   UNL     1       6.618   4.542  17.345  0.00  0.00    +0.000 C 
ATOM     15  O   UNL     1       7.428   4.465  18.266  0.00  0.00    +0.000 OA
ENDBRANCH   7  14
ENDBRANCH   1  11
BRANCH   4  16
ATOM     16  N   UNL     1       1.249   9.009  21.091  0.00  0.00    +0.000 N 
ATOM     17  C   UNL     1      -0.057   9.192  21.490  0.00  0.00    +0.000 C 
ATOM     18  O   UNL     1      -0.749   8.252  21.878  0.00  0.00    +0.000 OA
ATOM     19  H   UNL     1       1.891   9.751  20.820  0.00  0.00    +0.000 HD
BRANCH  17  20
ATOM     20  C   UNL     1      -0.611  10.588  21.464  0.00  0.00    +0.000 A 
ATOM     21  C   UNL     1      -0.970  11.106  20.214  0.00  0.00    +0.000 A 
ATOM     22  C   UNL     1      -1.560  12.369  20.101  0.00  0.00    +0.000 A 
ATOM     23  C   UNL     1      -1.800  13.149  21.238  0.00  0.00    +0.000 A 
ATOM     24  C   UNL     1      -2.456  14.387  21.137  0.00  0.00    +0.000 A 
ATOM     25  C   UNL     1      -2.680  15.171  22.267  0.00  0.00    +0.000 A 
ATOM     26  C   UNL     1      -2.219  14.742  23.507  0.00  0.00    +0.000 A 
ATOM     27  C   UNL     1      -1.574  13.505  23.625  0.00  0.00    +0.000 A 
ATOM     28  C   UNL     1      -1.380  12.676  22.503  0.00  0.00    +0.000 A 
ATOM     29  C   UNL     1      -0.794  11.391  22.603  0.00  0.00    +0.000 A 
ENDBRANCH  17  20
ENDBRANCH   4  16
TORSDOF 4
ENDMDL
MODEL 8
REMARK VINA RESULT:      -8.2      4.926     11.303
REMARK  Name = 
REMARK  5 active torsions:
REMARK  status: ('A' for Active; 'I' for Inactive)
REMARK    1  A    between atoms: C_1  and  C_2
REMARK    2  A    between atoms: C_2  and  C_4
REMARK    3  A    between atoms: C_8  and  N_9
REMARK    4  A    between atoms: N_12  and  N_13
REMARK    5  A    between atoms: C_14  and  C_16
REMARK                            x       y       z     vdW  Elec       q    Type
REMARK                         _______ _______ _______ _____ _____    ______ ____
ROOT
ATOM      1  N   UNL     1      -2.663  11.967  18.100  0.00  0.00    +0.000 N 
ATOM      2  C   UNL     1      -1.815  10.877  18.093  0.00  0.00    +0.000 C 
ATOM      3  O   UNL     1      -2.125   9.701  18.296  0.00  0.00    +0.000 OA
ATOM      4  N   UNL     1      -0.482  11.197  17.881  0.00  0.00    +0.000 N 
ATOM      5  H   UNL     1      -2.241  12.874  17.978  0.00  0.00    +0.000 HD
ATOM      6  H   UNL     1      -0.195  12.013  17.353  0.00  0.00    +0.000 HD
ENDROOT
BRANCH   1  11
ATOM      7  C   UNL     1      -5.897  12.146  19.963  0.00  0.00    +0.000 A 
ATOM      8  C   UNL     1      -6.817  11.811  18.966  0.00  0.00    +0.000 A 
ATOM      9  C   UNL     1      -6.371  11.552  17.676  0.00  0.00    +0.000 A 
ATOM     10  C   UNL     1      -5.009  11.613  17.378  0.00  0.00    +0.000 A 
ATOM     11  C   UNL     1      -4.062  11.930  18.359  0.00  0.00    +0.000 A 
ATOM     12  C   UNL     1      -4.520  12.204  19.656  0.00  0.00    +0.000 A 
BRANCH   7  14
ATOM     13  C   UNL     1      -7.802  12.805  21.590  0.00  0.00    +0.000 C 
ATOM     14  C   UNL     1      -6.356  12.432  21.358  0.00  0.00    +0.000 C 
ATOM     15  O   UNL     1      -5.558  12.355  22.290  0.00  0.00    +0.000 OA
ENDBRANCH   7  14
ENDBRANCH   1  11
BRANCH   4  16
ATOM     16  N   UNL     1       0.396  10.082  17.801  0.00  0.00    +0.000 N 
ATOM     17  C   UNL     1       1.135   9.723  18.907  0.00  0.00    +0.000 C 
ATOM     18  O   UNL     1       1.093  10.375  19.949  0.00  0.00    +0.000 OA
ATOM     19  H   UNL     1       0.338   9.554  16.933  0.00  0.00    +0.000 HD
BRANCH  17  20
ATOM     20  C   UNL     1       1.983   8.486  18.813  0.00  0.00    +0.000 A 
ATOM     21  C   UNL     1       1.867   7.555  19.851  0.00  0.00    +0.000 A 
ATOM     22  C   UNL     1       2.563   6.343  19.811  0.00  0.00    +0.000 A 
ATOM     23  C   UNL     1       3.399   6.035  18.732  0.00  0.00    +0.000 A 
ATOM     24  C   UNL     1       4.045   4.789  18.654  0.00  0.00    +0.000 A 
ATOM     25  C   UNL     1       4.891   4.490  17.587  0.00  0.00    +0.000 A 
ATOM     26  C   UNL     1       5.128   5.446  16.605  0.00  0.00    +0.000 A 
ATOM     27  C   UNL     1       4.482   6.686  16.663  0.00  0.00    +0.000 A 
ATOM     28  C   UNL     1       3.587   6.991  17.707  0.00  0.00    +0.000 A 
ATOM     29  C   UNL     1       2.867   8.210  17.755  0.00  0.00    +0.000 A 
ENDBRANCH  17  20
ENDBRANCH   4  16
TORSDOF 4
ENDMDL
MODEL 9
REMARK VINA RESULT:      -8.1      3.624      5.593
REMARK  Name = 
REMARK  5 active torsions:
REMARK  status: ('A' for Active; 'I' for Inactive)
REMARK    1  A    between atoms: C_1  and  C_2
REMARK    2  A    between atoms: C_2  and  C_4
REMARK    3  A    between atoms: C_8  and  N_9
REMARK    4  A    between atoms: N_12  and  N_13
REMARK    5  A    between atoms: C_14  and  C_16
REMARK                            x       y       z     vdW  Elec       q    Type
REMARK                         _______ _______ _______ _____ _____    ______ ____
ROOT
ATOM      1  N   UNL     1       2.763   5.838  20.120  0.00  0.00    +0.000 N 
ATOM      2  C   UNL     1       2.323   7.147  20.098  0.00  0.00    +0.000 C 
ATOM      3  O   UNL     1       2.425   7.944  19.162  0.00  0.00    +0.000 OA
ATOM      4  N   UNL     1       1.763   7.577  21.292  0.00  0.00    +0.000 N 
ATOM      5  H   UNL     1       2.662   5.337  20.988  0.00  0.00    +0.000 HD
ATOM      6  H   UNL     1       1.308   6.944  21.939  0.00  0.00    +0.000 HD
ENDROOT
BRANCH   1  11
ATOM      7  C   UNL     1       5.511   4.735  17.840  0.00  0.00    +0.000 A 
ATOM      8  C   UNL     1       4.819   3.927  16.934  0.00  0.00    +0.000 A 
ATOM      9  C   UNL     1       3.453   3.728  17.091  0.00  0.00    +0.000 A 
ATOM     10  C   UNL     1       2.771   4.341  18.143  0.00  0.00    +0.000 A 
ATOM     11  C   UNL     1       3.432   5.169  19.057  0.00  0.00    +0.000 A 
ATOM     12  C   UNL     1       4.814   5.355  18.900  0.00  0.00    +0.000 A 
BRANCH   7  14
ATOM     13  C   UNL     1       7.741   5.616  18.821  0.00  0.00    +0.000 C 
ATOM     14  C   UNL     1       6.982   4.960  17.690  0.00  0.00    +0.000 C 
ATOM     15  O   UNL     1       7.551   4.606  16.660  0.00  0.00    +0.000 OA
ENDBRANCH   7  14
ENDBRANCH   1  11
BRANCH   4  16
ATOM     16  N   UNL     1       1.242   8.898  21.267  0.00  0.00    +0.000 N 
ATOM     17  C   UNL     1      -0.056   9.121  21.672  0.00  0.00    +0.000 C 
ATOM     18  O   UNL     1      -0.794   8.196  22.007  0.00  0.00    +0.000 OA
ATOM     19  H   UNL     1       1.920   9.622  21.038  0.00  0.00    +0.000 HD
BRANCH  17  20
ATOM     20  C   UNL     1      -0.543  10.542  21.718  0.00  0.00    +0.000 A 
ATOM     21  C   UNL     1      -1.128  10.975  22.913  0.00  0.00    +0.000 A 
ATOM     22  C   UNL     1      -1.544  12.301  23.071  0.00  0.00    +0.000 A 
ATOM     23  C   UNL     1      -1.390  13.226  22.032  0.00  0.00    +0.000 A 
ATOM     24  C   UNL     1      -1.742  14.575  22.210  0.00  0.00    +0.000 A 
ATOM     25  C   UNL     1      -1.604  15.492  21.169  0.00  0.00    +0.000 A 
ATOM     26  C   UNL     1      -1.146  15.063  19.928  0.00  0.00    +0.000 A 
ATOM     27  C   UNL     1      -0.781  13.725  19.740  0.00  0.00    +0.000 A 
ATOM     28  C   UNL     1      -0.868  12.793  20.791  0.00  0.00    +0.000 A 
ATOM     29  C   UNL     1      -0.440  11.450  20.650  0.00  0.00    +0.000 A 
ENDBRANCH  17  20
ENDBRANCH   4  16
TORSDOF 4
ENDMDL
