MODEL 1
REMARK VINA RESULT:      -7.8      0.000      0.000
REMARK  Name = 
REMARK  5 active torsions:
REMARK  status: ('A' for Active; 'I' for Inactive)
REMARK    1  A    between atoms: C_1  and  C_2
REMARK    2  A    between atoms: C_2  and  C_3
REMARK    3  A    between atoms: C_3  and  N_4
REMARK    4  A    between atoms: C_11  and  N_12
REMARK    5  A    between atoms: N_15  and  C_16
REMARK                            x       y       z     vdW  Elec       q    Type
REMARK                         _______ _______ _______ _____ _____    ______ ____
ROOT
ATOM      1  N   UNL     1       1.569   8.745  18.092  0.00  0.00    +0.000 N 
ATOM      2  C   UNL     1       1.902   8.067  19.232  0.00  0.00    +0.000 C 
ATOM      3  O   UNL     1       1.775   8.497  20.373  0.00  0.00    +0.000 OA
ATOM      4  N   UNL     1       2.409   6.835  18.922  0.00  0.00    +0.000 N 
ATOM      5  H   UNL     1       1.242   8.143  17.353  0.00  0.00    +0.000 HD
ATOM      6  H   UNL     1       2.776   6.768  17.983  0.00  0.00    +0.000 HD
ENDROOT
BRANCH   4   7
ATOM      7  C   UNL     1       2.832   5.907  19.953  0.00  0.00    +0.000 C 
ATOM      8  C   UNL     1       1.278   4.922  20.077  0.00  0.00    +0.000 C 
ATOM      9  C   UNL     1       1.499   3.102  19.649  0.00  0.00    +0.000 C 
ATOM     10  C   UNL     1       1.391   3.255  18.194  0.00  0.00    +0.000 C 
ATOM     11  C   UNL     1       2.616   4.129  18.246  0.00  0.00    +0.000 C 
ATOM     12  C   UNL     1       3.804   3.506  17.552  0.00  0.00    +0.000 C 
ATOM     13  C   UNL     1       4.460   3.462  18.862  0.00  0.00    +0.000 C 
ATOM     14  C   UNL     1       3.206   2.376  19.696  0.00  0.00    +0.000 C 
ATOM     15  C   UNL     1       4.418   5.329  19.191  0.00  0.00    +0.000 C 
ATOM     16  C   UNL     1       3.066   4.531  20.108  0.00  0.00    +0.000 C 
ENDBRANCH   4   7
BRANCH   1  24
ATOM     17  N   UNL     1       0.090  11.335  20.554  0.00  0.00    +0.000 NA
ATOM     18  C   UNL     1       1.148  12.035  19.816  0.00  0.00    +0.000 C 
ATOM     19  C   UNL     1       0.690  13.324  19.115  0.00  0.00    +0.000 C 
ATOM     20  C   UNL     1      -0.741  13.360  18.589  0.00  0.00    +0.000 C 
ATOM     21  C   UNL     1      -1.643  12.183  18.935  0.00  0.00    +0.000 C 
ATOM     22  C   UNL     1      -0.982  10.985  19.622  0.00  0.00    +0.000 C 
ATOM     23  C   UNL     1      -0.479   9.919  18.641  0.00  0.00    +0.000 C 
ATOM     24  C   UNL     1       0.950  10.080  18.113  0.00  0.00    +0.000 C 
ATOM     25  C   UNL     1       1.855  11.053  18.878  0.00  0.00    +0.000 C 
BRANCH  17  26
ATOM     26  C   UNL     1      -0.323  12.095  21.743  0.00  0.00    +0.000 C 
BRANCH  26  28
ATOM     27  C   UNL     1      -0.396   9.959  23.060  0.00  0.00    +0.000 C 
ATOM     28  C   UNL     1      -1.099  11.279  22.783  0.00  0.00    +0.000 C 
ENDBRANCH  26  28
ENDBRANCH  17  26
ENDBRANCH   1  24
TORSDOF 4
ENDMDL
MODEL 2
REMARK VINA RESULT:      -7.7      1.265      2.016
REMARK  Name = 
REMARK  5 active torsions:
REMARK  status: ('A' for Active; 'I' for Inactive)
REMARK    1  A    between atoms: C_1  and  C_2
REMARK    2  A    between atoms: C_2  and  C_3
REMARK    3  A    between atoms: C_3  and  N_4
REMARK    4  A    between atoms: C_11  and  N_12
REMARK    5  A    between atoms: N_15  and  C_16
REMARK                            x       y       z     vdW  Elec       q    Type
REMARK                         _______ _______ _______ _____ _____    ______ ____
ROOT
ATOM      1  N   UNL     1       1.378   8.591  19.388  0.00  0.00    +0.000 N 
ATOM      2  C   UNL     1       2.138   7.841  18.533  0.00  0.00    +0.000 C 
ATOM      3  O   UNL     1       2.651   8.250  17.498  0.00  0.00    +0.000 OA
ATOM      4  N   UNL     1       2.241   6.556  18.991  0.00  0.00    +0.000 N 
ATOM      5  H   UNL     1       1.479   8.317  20.352  0.00  0.00    +0.000 HD
ATOM      6  H   UNL     1       1.504   6.288  19.628  0.00  0.00    +0.000 HD
ENDROOT
BRANCH   4   7
ATOM      7  C   UNL     1       3.004   5.553  18.274  0.00  0.00    +0.000 C 
ATOM      8  C   UNL     1       4.103   5.017  19.654  0.00  0.00    +0.000 C 
ATOM      9  C   UNL     1       3.909   3.202  20.116  0.00  0.00    +0.000 C 
ATOM     10  C   UNL     1       2.745   3.373  20.991  0.00  0.00    +0.000 C 
ATOM     11  C   UNL     1       1.986   3.889  19.798  0.00  0.00    +0.000 C 
ATOM     12  C   UNL     1       0.864   2.970  19.380  0.00  0.00    +0.000 C 
ATOM     13  C   UNL     1       1.594   2.758  18.127  0.00  0.00    +0.000 C 
ATOM     14  C   UNL     1       3.131   2.048  18.889  0.00  0.00    +0.000 C 
ATOM     15  C   UNL     1       1.600   4.570  17.569  0.00  0.00    +0.000 C 
ATOM     16  C   UNL     1       3.215   4.164  18.299  0.00  0.00    +0.000 C 
ENDBRANCH   4   7
BRANCH   1  24
ATOM     17  N   UNL     1      -0.952  11.446  20.561  0.00  0.00    +0.000 NA
ATOM     18  C   UNL     1       0.416  11.900  20.837  0.00  0.00    +0.000 C 
ATOM     19  C   UNL     1       0.776  13.255  20.207  0.00  0.00    +0.000 C 
ATOM     20  C   UNL     1       0.128  13.596  18.869  0.00  0.00    +0.000 C 
ATOM     21  C   UNL     1      -0.935  12.641  18.344  0.00  0.00    +0.000 C 
ATOM     22  C   UNL     1      -1.128  11.331  19.113  0.00  0.00    +0.000 C 
ATOM     23  C   UNL     1      -0.266  10.179  18.583  0.00  0.00    +0.000 C 
ATOM     24  C   UNL     1       1.136  10.027  19.182  0.00  0.00    +0.000 C 
ATOM     25  C   UNL     1       1.406  10.786  20.486  0.00  0.00    +0.000 C 
BRANCH  17  26
ATOM     26  C   UNL     1      -1.942  12.281  21.258  0.00  0.00    +0.000 C 
BRANCH  26  28
ATOM     27  C   UNL     1      -3.108  12.216  23.481  0.00  0.00    +0.000 C 
ATOM     28  C   UNL     1      -1.764  12.345  22.779  0.00  0.00    +0.000 C 
ENDBRANCH  26  28
ENDBRANCH  17  26
ENDBRANCH   1  24
TORSDOF 4
ENDMDL
MODEL 3
REMARK VINA RESULT:      -7.6      1.407      2.773
REMARK  Name = 
REMARK  5 active torsions:
REMARK  status: ('A' for Active; 'I' for Inactive)
REMARK    1  A    between atoms: C_1  and  C_2
REMARK    2  A    between atoms: C_2  and  C_3
REMARK    3  A    between atoms: C_3  and  N_4
REMARK    4  A    between atoms: C_11  and  N_12
REMARK    5  A    between atoms: N_15  and  C_16
REMARK                            x       y       z     vdW  Elec       q    Type
REMARK                         _______ _______ _______ _____ _____    ______ ____
ROOT
ATOM      1  N   UNL     1       1.423   8.139  20.029  0.00  0.00    +0.000 N 
ATOM      2  C   UNL     1       2.231   7.546  19.097  0.00  0.00    +0.000 C 
ATOM      3  O   UNL     1       2.852   8.137  18.221  0.00  0.00    +0.000 OA
ATOM      4  N   UNL     1       2.243   6.190  19.273  0.00  0.00    +0.000 N 
ATOM      5  H   UNL     1       1.423   7.661  20.915  0.00  0.00    +0.000 HD
ATOM      6  H   UNL     1       1.440   5.835  19.773  0.00  0.00    +0.000 HD
ENDROOT
BRANCH   4   7
ATOM      7  C   UNL     1       3.031   5.321  18.420  0.00  0.00    +0.000 C 
ATOM      8  C   UNL     1       4.186   4.669  19.700  0.00  0.00    +0.000 C 
ATOM      9  C   UNL     1       4.084   2.804  19.934  0.00  0.00    +0.000 C 
ATOM     10  C   UNL     1       2.935   2.808  20.845  0.00  0.00    +0.000 C 
ATOM     11  C   UNL     1       2.126   3.434  19.741  0.00  0.00    +0.000 C 
ATOM     12  C   UNL     1       1.035   2.523  19.232  0.00  0.00    +0.000 C 
ATOM     13  C   UNL     1       1.742   2.503  17.949  0.00  0.00    +0.000 C 
ATOM     14  C   UNL     1       3.328   1.777  18.586  0.00  0.00    +0.000 C 
ATOM     15  C   UNL     1       1.655   4.370  17.623  0.00  0.00    +0.000 C 
ATOM     16  C   UNL     1       3.304   3.951  18.266  0.00  0.00    +0.000 C 
ENDBRANCH   4   7
BRANCH   1  24
ATOM     17  N   UNL     1      -1.176  10.916  19.325  0.00  0.00    +0.000 NA
ATOM     18  C   UNL     1      -0.812  11.050  20.741  0.00  0.00    +0.000 C 
ATOM     19  C   UNL     1      -0.309  12.446  21.139  0.00  0.00    +0.000 C 
ATOM     20  C   UNL     1       0.466  13.234  20.088  0.00  0.00    +0.000 C 
ATOM     21  C   UNL     1       0.545  12.642  18.688  0.00  0.00    +0.000 C 
ATOM     22  C   UNL     1      -0.003  11.224  18.506  0.00  0.00    +0.000 C 
ATOM     23  C   UNL     1       1.056  10.131  18.698  0.00  0.00    +0.000 C 
ATOM     24  C   UNL     1       1.254   9.598  20.120  0.00  0.00    +0.000 C 
ATOM     25  C   UNL     1       0.150   9.924  21.131  0.00  0.00    +0.000 C 
BRANCH  17  26
ATOM     26  C   UNL     1      -2.390  11.683  19.010  0.00  0.00    +0.000 C 
BRANCH  26  28
ATOM     27  C   UNL     1      -3.191   9.759  17.611  0.00  0.00    +0.000 C 
ATOM     28  C   UNL     1      -3.083  11.274  17.706  0.00  0.00    +0.000 C 
ENDBRANCH  26  28
ENDBRANCH  17  26
ENDBRANCH   1  24
TORSDOF 4
ENDMDL
MODEL 4
REMARK VINA RESULT:      -7.5      1.348      2.516
REMARK  Name = 
REMARK  5 active torsions:
REMARK  status: ('A' for Active; 'I' for Inactive)
REMARK    1  A    between atoms: C_1  and  C_2
REMARK    2  A    between atoms: C_2  and  C_3
REMARK    3  A    between atoms: C_3  and  N_4
REMARK    4  A    between atoms: C_11  and  N_12
REMARK    5  A    between atoms: N_15  and  C_16
REMARK                            x       y       z     vdW  Elec       q    Type
REMARK                         _______ _______ _______ _____ _____    ______ ____
ROOT
ATOM      1  N   UNL     1       1.498   8.772  19.411  0.00  0.00    +0.000 N 
ATOM      2  C   UNL     1       1.842   7.801  20.312  0.00  0.00    +0.000 C 
ATOM      3  O   UNL     1       1.774   7.912  21.530  0.00  0.00    +0.000 OA
ATOM      4  N   UNL     1       2.284   6.683  19.660  0.00  0.00    +0.000 N 
ATOM      5  H   UNL     1       1.118   8.400  18.554  0.00  0.00    +0.000 HD
ATOM      6  H   UNL     1       2.613   6.859  18.722  0.00  0.00    +0.000 HD
ENDROOT
BRANCH   4   7
ATOM      7  C   UNL     1       2.703   5.499  20.385  0.00  0.00    +0.000 C 
ATOM      8  C   UNL     1       1.152   4.518  20.211  0.00  0.00    +0.000 C 
ATOM      9  C   UNL     1       1.381   2.897  19.281  0.00  0.00    +0.000 C 
ATOM     10  C   UNL     1       1.282   3.460  17.930  0.00  0.00    +0.000 C 
ATOM     11  C   UNL     1       2.503   4.284  18.238  0.00  0.00    +0.000 C 
ATOM     12  C   UNL     1       3.698   3.887  17.403  0.00  0.00    +0.000 C 
ATOM     13  C   UNL     1       4.346   3.470  18.650  0.00  0.00    +0.000 C 
ATOM     14  C   UNL     1       3.090   2.190  19.130  0.00  0.00    +0.000 C 
ATOM     15  C   UNL     1       4.296   5.165  19.500  0.00  0.00    +0.000 C 
ATOM     16  C   UNL     1       2.941   4.136  20.141  0.00  0.00    +0.000 C 
ENDBRANCH   4   7
BRANCH   1  24
ATOM     17  N   UNL     1      -1.335  11.242  18.500  0.00  0.00    +0.000 NA
ATOM     18  C   UNL     1      -1.517  10.922  19.921  0.00  0.00    +0.000 C 
ATOM     19  C   UNL     1      -1.556  12.147  20.849  0.00  0.00    +0.000 C 
ATOM     20  C   UNL     1      -0.704  13.348  20.454  0.00  0.00    +0.000 C 
ATOM     21  C   UNL     1      -0.008  13.297  19.100  0.00  0.00    +0.000 C 
ATOM     22  C   UNL     1      -0.077  11.971  18.338  0.00  0.00    +0.000 C 
ATOM     23  C   UNL     1       1.099  11.033  18.636  0.00  0.00    +0.000 C 
ATOM     24  C   UNL     1       0.938  10.070  19.816  0.00  0.00    +0.000 C 
ATOM     25  C   UNL     1      -0.487   9.871  20.345  0.00  0.00    +0.000 C 
BRANCH  17  26
ATOM     26  C   UNL     1      -2.528  11.899  17.944  0.00  0.00    +0.000 C 
BRANCH  26  28
ATOM     27  C   UNL     1      -2.605   9.964  16.346  0.00  0.00    +0.000 C 
ATOM     28  C   UNL     1      -3.434  10.981  17.117  0.00  0.00    +0.000 C 
ENDBRANCH  26  28
ENDBRANCH  17  26
ENDBRANCH   1  24
TORSDOF 4
ENDMDL
MODEL 5
REMARK VINA RESULT:      -7.3      1.262      2.527
REMARK  Name = 
REMARK  5 active torsions:
REMARK  status: ('A' for Active; 'I' for Inactive)
REMARK    1  A    between atoms: C_1  and  C_2
REMARK    2  A    between atoms: C_2  and  C_3
REMARK    3  A    between atoms: C_3  and  N_4
REMARK    4  A    between atoms: C_11  and  N_12
REMARK    5  A    between atoms: N_15  and  C_16
REMARK                            x       y       z     vdW  Elec       q    Type
REMARK                         _______ _______ _______ _____ _____    ______ ____
ROOT
ATOM      1  N   UNL     1       1.215   8.721  19.607  0.00  0.00    +0.000 N 
ATOM      2  C   UNL     1       1.558   7.626  20.351  0.00  0.00    +0.000 C 
ATOM      3  O   UNL     1       1.171   7.396  21.491  0.00  0.00    +0.000 OA
ATOM      4  N   UNL     1       2.408   6.818  19.646  0.00  0.00    +0.000 N 
ATOM      5  H   UNL     1       1.159   8.527  18.619  0.00  0.00    +0.000 HD
ATOM      6  H   UNL     1       2.901   7.292  18.903  0.00  0.00    +0.000 HD
ENDROOT
BRANCH   4   7
ATOM      7  C   UNL     1       2.917   5.580  20.204  0.00  0.00    +0.000 C 
ATOM      8  C   UNL     1       1.458   4.510  19.852  0.00  0.00    +0.000 C 
ATOM      9  C   UNL     1       1.837   3.065  18.706  0.00  0.00    +0.000 C 
ATOM     10  C   UNL     1       1.708   3.807  17.448  0.00  0.00    +0.000 C 
ATOM     11  C   UNL     1       2.850   4.676  17.901  0.00  0.00    +0.000 C 
ATOM     12  C   UNL     1       4.086   4.505  17.050  0.00  0.00    +0.000 C 
ATOM     13  C   UNL     1       4.750   3.967  18.240  0.00  0.00    +0.000 C 
ATOM     14  C   UNL     1       3.602   2.531  18.499  0.00  0.00    +0.000 C 
ATOM     15  C   UNL     1       4.544   5.511  19.322  0.00  0.00    +0.000 C 
ATOM     16  C   UNL     1       3.273   4.291  19.774  0.00  0.00    +0.000 C 
ENDBRANCH   4   7
BRANCH   1  24
ATOM     17  N   UNL     1       0.542  12.524  19.404  0.00  0.00    +0.000 NA
ATOM     18  C   UNL     1      -0.684  11.869  18.932  0.00  0.00    +0.000 C 
ATOM     19  C   UNL     1      -1.958  12.286  19.685  0.00  0.00    +0.000 C 
ATOM     20  C   UNL     1      -1.812  12.631  21.163  0.00  0.00    +0.000 C 
ATOM     21  C   UNL     1      -0.401  12.684  21.733  0.00  0.00    +0.000 C 
ATOM     22  C   UNL     1       0.731  12.208  20.819  0.00  0.00    +0.000 C 
ATOM     23  C   UNL     1       1.053  10.717  20.972  0.00  0.00    +0.000 C 
ATOM     24  C   UNL     1       0.271   9.742  20.085  0.00  0.00    +0.000 C 
ATOM     25  C   UNL     1      -0.472  10.353  18.891  0.00  0.00    +0.000 C 
BRANCH  17  26
ATOM     26  C   UNL     1       0.547  13.955  19.064  0.00  0.00    +0.000 C 
BRANCH  26  28
ATOM     27  C   UNL     1       2.856  13.486  18.198  0.00  0.00    +0.000 C 
ATOM     28  C   UNL     1       1.938  14.541  18.796  0.00  0.00    +0.000 C 
ENDBRANCH  26  28
ENDBRANCH  17  26
ENDBRANCH   1  24
TORSDOF 4
ENDMDL
MODEL 6
REMARK VINA RESULT:      -7.2      1.520      8.131
REMARK  Name = 
REMARK  5 active torsions:
REMARK  status: ('A' for Active; 'I' for Inactive)
REMARK    1  A    between atoms: C_1  and  C_2
REMARK    2  A    between atoms: C_2  and  C_3
REMARK    3  A    between atoms: C_3  and  N_4
REMARK    4  A    between atoms: C_11  and  N_12
REMARK    5  A    between atoms: N_15  and  C_16
REMARK                            x       y       z     vdW  Elec       q    Type
REMARK                         _______ _______ _______ _____ _____    ______ ____
ROOT
ATOM      1  N   UNL     1       2.282   7.831  18.923  0.00  0.00    +0.000 N 
ATOM      2  C   UNL     1       1.738   8.856  18.199  0.00  0.00    +0.000 C 
ATOM      3  O   UNL     1       1.808   8.976  16.981  0.00  0.00    +0.000 OA
ATOM      4  N   UNL     1       1.105   9.741  19.028  0.00  0.00    +0.000 N 
ATOM      5  H   UNL     1       1.740   7.590  19.738  0.00  0.00    +0.000 HD
ATOM      6  H   UNL     1       1.427   9.706  19.985  0.00  0.00    +0.000 HD
ENDROOT
BRANCH   4   7
ATOM      7  C   UNL     1       0.433  10.917  18.512  0.00  0.00    +0.000 C 
ATOM      8  C   UNL     1      -1.020  10.912  19.646  0.00  0.00    +0.000 C 
ATOM      9  C   UNL     1      -1.147  12.452  20.722  0.00  0.00    +0.000 C 
ATOM     10  C   UNL     1      -0.219  12.007  21.766  0.00  0.00    +0.000 C 
ATOM     11  C   UNL     1       0.859  11.958  20.717  0.00  0.00    +0.000 C 
ATOM     12  C   UNL     1       1.941  12.987  20.945  0.00  0.00    +0.000 C 
ATOM     13  C   UNL     1       1.519  13.612  19.688  0.00  0.00    +0.000 C 
ATOM     14  C   UNL     1      -0.227  13.979  20.206  0.00  0.00    +0.000 C 
ATOM     15  C   UNL     1       1.848  12.111  18.576  0.00  0.00    +0.000 C 
ATOM     16  C   UNL     1       0.069  12.204  18.943  0.00  0.00    +0.000 C 
ENDBRANCH   4   7
BRANCH   1  24
ATOM     17  N   UNL     1       3.275   4.156  19.609  0.00  0.00    +0.000 NA
ATOM     18  C   UNL     1       2.507   4.142  18.358  0.00  0.00    +0.000 C 
ATOM     19  C   UNL     1       3.236   3.494  17.170  0.00  0.00    +0.000 C 
ATOM     20  C   UNL     1       4.753   3.646  17.117  0.00  0.00    +0.000 C 
ATOM     21  C   UNL     1       5.434   4.289  18.318  0.00  0.00    +0.000 C 
ATOM     22  C   UNL     1       4.520   4.891  19.389  0.00  0.00    +0.000 C 
ATOM     23  C   UNL     1       4.205   6.374  19.158  0.00  0.00    +0.000 C 
ATOM     24  C   UNL     1       2.981   6.699  18.296  0.00  0.00    +0.000 C 
ATOM     25  C   UNL     1       1.991   5.553  18.058  0.00  0.00    +0.000 C 
BRANCH  17  26
ATOM     26  C   UNL     1       3.425   2.800  20.158  0.00  0.00    +0.000 C 
BRANCH  26  28
ATOM     27  C   UNL     1       1.202   2.878  21.322  0.00  0.00    +0.000 C 
ATOM     28  C   UNL     1       2.682   2.561  21.477  0.00  0.00    +0.000 C 
ENDBRANCH  26  28
ENDBRANCH  17  26
ENDBRANCH   1  24
TORSDOF 4
ENDMDL
MODEL 7
REMARK VINA RESULT:      -7.1      1.787      8.432
REMARK  Name = 
REMARK  5 active torsions:
REMARK  status: ('A' for Active; 'I' for Inactive)
REMARK    1  A    between atoms: C_1  and  C_2
REMARK    2  A    between atoms: C_2  and  C_3
REMARK    3  A    between atoms: C_3  and  N_4
REMARK    4  A    between atoms: C_11  and  N_12
REMARK    5  A    between atoms: N_15  and  C_16
REMARK                            x       y       z     vdW  Elec       q    Type
REMARK                         _______ _______ _______ _____ _____    ______ ____
ROOT
ATOM      1  N   UNL     1       1.961   8.577  19.137  0.00  0.00    +0.000 N 
ATOM      2  C   UNL     1       1.114   9.446  18.504  0.00  0.00    +0.000 C 
ATOM      3  O   UNL     1       0.556   9.237  17.433  0.00  0.00    +0.000 OA
ATOM      4  N   UNL     1       0.982  10.596  19.234  0.00  0.00    +0.000 N 
ATOM      5  H   UNL     1       1.910   8.634  20.141  0.00  0.00    +0.000 HD
ATOM      6  H   UNL     1       1.744  10.765  19.873  0.00  0.00    +0.000 HD
ENDROOT
BRANCH   4   7
ATOM      7  C   UNL     1       0.129  11.682  18.790  0.00  0.00    +0.000 C 
ATOM      8  C   UNL     1      -1.231  11.471  20.017  0.00  0.00    +0.000 C 
ATOM      9  C   UNL     1      -1.482  12.965  21.134  0.00  0.00    +0.000 C 
ATOM     10  C   UNL     1      -0.434  12.631  22.104  0.00  0.00    +0.000 C 
ATOM     11  C   UNL     1       0.567  12.737  20.985  0.00  0.00    +0.000 C 
ATOM     12  C   UNL     1       1.519  13.896  21.165  0.00  0.00    +0.000 C 
ATOM     13  C   UNL     1       0.934  14.478  19.954  0.00  0.00    +0.000 C 
ATOM     14  C   UNL     1      -0.804  14.606  20.594  0.00  0.00    +0.000 C 
ATOM     15  C   UNL     1       1.378  13.050  18.788  0.00  0.00    +0.000 C 
ATOM     16  C   UNL     1      -0.368  12.904  19.273  0.00  0.00    +0.000 C 
ENDBRANCH   4   7
BRANCH   1  24
ATOM     17  N   UNL     1       4.754   5.902  19.124  0.00  0.00    +0.000 NA
ATOM     18  C   UNL     1       3.557   5.237  19.653  0.00  0.00    +0.000 C 
ATOM     19  C   UNL     1       3.152   3.961  18.898  0.00  0.00    +0.000 C 
ATOM     20  C   UNL     1       3.433   3.919  17.399  0.00  0.00    +0.000 C 
ATOM     21  C   UNL     1       4.227   5.074  16.804  0.00  0.00    +0.000 C 
ATOM     22  C   UNL     1       4.514   6.262  17.727  0.00  0.00    +0.000 C 
ATOM     23  C   UNL     1       3.447   7.361  17.658  0.00  0.00    +0.000 C 
ATOM     24  C   UNL     1       2.256   7.235  18.614  0.00  0.00    +0.000 C 
ATOM     25  C   UNL     1       2.420   6.254  19.781  0.00  0.00    +0.000 C 
BRANCH  17  26
ATOM     26  C   UNL     1       5.964   5.105  19.377  0.00  0.00    +0.000 C 
BRANCH  26  28
ATOM     27  C   UNL     1       7.748   4.597  17.686  0.00  0.00    +0.000 C 
ATOM     28  C   UNL     1       7.227   5.624  18.681  0.00  0.00    +0.000 C 
ENDBRANCH  26  28
ENDBRANCH  17  26
ENDBRANCH   1  24
TORSDOF 4
ENDMDL
MODEL 8
REMARK VINA RESULT:      -7.1      1.647      8.481
REMARK  Name = 
REMARK  5 active torsions:
REMARK  status: ('A' for Active; 'I' for Inactive)
REMARK    1  A    between atoms: C_1  and  C_2
REMARK    2  A    between atoms: C_2  and  C_3
REMARK    3  A    between atoms: C_3  and  N_4
REMARK    4  A    between atoms: C_11  and  N_12
REMARK    5  A    between atoms: N_15  and  C_16
REMARK                            x       y       z     vdW  Elec       q    Type
REMARK                         _______ _______ _______ _____ _____    ______ ____
ROOT
ATOM      1  N   UNL     1       2.178   7.555  19.177  0.00  0.00    +0.000 N 
ATOM      2  C   UNL     1       1.503   8.198  20.179  0.00  0.00    +0.000 C 
ATOM      3  O   UNL     1       1.165   7.691  21.242  0.00  0.00    +0.000 OA
ATOM      4  N   UNL     1       1.247   9.494  19.824  0.00  0.00    +0.000 N 
ATOM      5  H   UNL     1       2.802   8.161  18.668  0.00  0.00    +0.000 HD
ATOM      6  H   UNL     1       1.260   9.656  18.828  0.00  0.00    +0.000 HD
ENDROOT
BRANCH   4   7
ATOM      7  C   UNL     1       0.550  10.401  20.716  0.00  0.00    +0.000 C 
ATOM      8  C   UNL     1       1.653  11.865  20.522  0.00  0.00    +0.000 C 
ATOM      9  C   UNL     1       0.786  13.377  19.810  0.00  0.00    +0.000 C 
ATOM     10  C   UNL     1       0.901  12.992  18.400  0.00  0.00    +0.000 C 
ATOM     11  C   UNL     1       0.070  11.777  18.716  0.00  0.00    +0.000 C 
ATOM     12  C   UNL     1      -1.281  11.804  18.041  0.00  0.00    +0.000 C 
ATOM     13  C   UNL     1      -1.873  11.873  19.380  0.00  0.00    +0.000 C 
ATOM     14  C   UNL     1      -1.066  13.465  19.893  0.00  0.00    +0.000 C 
ATOM     15  C   UNL     1      -1.159  10.236  20.019  0.00  0.00    +0.000 C 
ATOM     16  C   UNL     1      -0.156  11.614  20.653  0.00  0.00    +0.000 C 
ENDBRANCH   4   7
BRANCH   1  24
ATOM     17  N   UNL     1       4.083   4.839  17.189  0.00  0.00    +0.000 NA
ATOM     18  C   UNL     1       4.804   4.993  18.459  0.00  0.00    +0.000 C 
ATOM     19  C   UNL     1       4.978   3.690  19.255  0.00  0.00    +0.000 C 
ATOM     20  C   UNL     1       3.865   2.653  19.146  0.00  0.00    +0.000 C 
ATOM     21  C   UNL     1       2.752   2.924  18.142  0.00  0.00    +0.000 C 
ATOM     22  C   UNL     1       2.752   4.298  17.466  0.00  0.00    +0.000 C 
ATOM     23  C   UNL     1       1.919   5.346  18.213  0.00  0.00    +0.000 C 
ATOM     24  C   UNL     1       2.636   6.162  19.294  0.00  0.00    +0.000 C 
ATOM     25  C   UNL     1       4.168   6.123  19.275  0.00  0.00    +0.000 C 
BRANCH  17  26
ATOM     26  C   UNL     1       4.883   4.090  16.209  0.00  0.00    +0.000 C 
BRANCH  26  28
ATOM     27  C   UNL     1       6.182   4.107  14.060  0.00  0.00    +0.000 C 
ATOM     28  C   UNL     1       5.617   4.963  15.185  0.00  0.00    +0.000 C 
ENDBRANCH  26  28
ENDBRANCH  17  26
ENDBRANCH   1  24
TORSDOF 4
ENDMDL
MODEL 9
REMARK VINA RESULT:      -7.0      1.486      8.104
REMARK  Name = 
REMARK  5 active torsions:
REMARK  status: ('A' for Active; 'I' for Inactive)
REMARK    1  A    between atoms: C_1  and  C_2
REMARK    2  A    between atoms: C_2  and  C_3
REMARK    3  A    between atoms: C_3  and  N_4
REMARK    4  A    between atoms: C_11  and  N_12
REMARK    5  A    between atoms: N_15  and  C_16
REMARK                            x       y       z     vdW  Elec       q    Type
REMARK                         _______ _______ _______ _____ _____    ______ ____
ROOT
ATOM      1  N   UNL     1       1.973   7.764  18.783  0.00  0.00    +0.000 N 
ATOM      2  C   UNL     1       1.927   9.009  18.219  0.00  0.00    +0.000 C 
ATOM      3  O   UNL     1       2.501   9.341  17.188  0.00  0.00    +0.000 OA
ATOM      4  N   UNL     1       1.152   9.845  18.975  0.00  0.00    +0.000 N 
ATOM      5  H   UNL     1       1.119   7.509  19.253  0.00  0.00    +0.000 HD
ATOM      6  H   UNL     1       1.050   9.551  19.936  0.00  0.00    +0.000 HD
ENDROOT
BRANCH   4   7
ATOM      7  C   UNL     1       0.928  11.226  18.592  0.00  0.00    +0.000 C 
ATOM      8  C   UNL     1      -0.866  11.102  18.187  0.00  0.00    +0.000 C 
ATOM      9  C   UNL     1      -1.962  12.194  19.261  0.00  0.00    +0.000 C 
ATOM     10  C   UNL     1      -2.064  11.270  20.395  0.00  0.00    +0.000 C 
ATOM     11  C   UNL     1      -0.571  11.381  20.555  0.00  0.00    +0.000 C 
ATOM     12  C   UNL     1      -0.174  12.066  21.841  0.00  0.00    +0.000 C 
ATOM     13  C   UNL     1       0.392  13.138  21.017  0.00  0.00    +0.000 C 
ATOM     14  C   UNL     1      -1.189  13.616  20.168  0.00  0.00    +0.000 C 
ATOM     15  C   UNL     1       1.643  12.059  20.084  0.00  0.00    +0.000 C 
ATOM     16  C   UNL     1       0.190  12.339  19.027  0.00  0.00    +0.000 C 
ENDBRANCH   4   7
BRANCH   1  24
ATOM     17  N   UNL     1       3.124   4.150  19.541  0.00  0.00    +0.000 NA
ATOM     18  C   UNL     1       2.312   4.070  18.320  0.00  0.00    +0.000 C 
ATOM     19  C   UNL     1       3.022   3.412  17.126  0.00  0.00    +0.000 C 
ATOM     20  C   UNL     1       4.529   3.615  17.013  0.00  0.00    +0.000 C 
ATOM     21  C   UNL     1       5.229   4.318  18.168  0.00  0.00    +0.000 C 
ATOM     22  C   UNL     1       4.333   4.922  19.253  0.00  0.00    +0.000 C 
ATOM     23  C   UNL     1       3.955   6.384  18.990  0.00  0.00    +0.000 C 
ATOM     24  C   UNL     1       2.691   6.638  18.164  0.00  0.00    +0.000 C 
ATOM     25  C   UNL     1       1.735   5.451  17.997  0.00  0.00    +0.000 C 
BRANCH  17  26
ATOM     26  C   UNL     1       3.342   2.818  20.124  0.00  0.00    +0.000 C 
BRANCH  26  28
ATOM     27  C   UNL     1       1.236   2.802  21.490  0.00  0.00    +0.000 C 
ATOM     28  C   UNL     1       2.748   2.630  21.524  0.00  0.00    +0.000 C 
ENDBRANCH  26  28
ENDBRANCH  17  26
ENDBRANCH   1  24
TORSDOF 4
ENDMDL
