MODEL 1
REMARK VINA RESULT:      -8.7      0.000      0.000
REMARK  Name = 
REMARK  6 active torsions:
REMARK  status: ('A' for Active; 'I' for Inactive)
REMARK    1  A    between atoms: C_1  and  O_2
REMARK    2  A    between atoms: O_2  and  C_3
REMARK    3  A    between atoms: C_6  and  C_7
REMARK    4  A    between atoms: C_9  and  C_10
REMARK    5  A    between atoms: C_10  and  N_11
REMARK    6  A    between atoms: N_14  and  C_15
REMARK                            x       y       z     vdW  Elec       q    Type
REMARK                         _______ _______ _______ _____ _____    ______ ____
ROOT
ATOM      1  C   UNL     1       7.040   4.940  17.426  0.00  0.00    +0.000 C 
ENDROOT
BRANCH   1   2
ATOM      2  N   UNL     1       5.675   4.749  17.860  0.00  0.00    +0.000 N 
ATOM      3  C   UNL     1       4.674   4.357  17.030  0.00  0.00    +0.000 C 
ATOM      4  O   UNL     1       4.767   4.213  15.819  0.00  0.00    +0.000 OA
ATOM      5  N   UNL     1       3.546   4.076  17.792  0.00  0.00    +0.000 N 
ATOM      6  C   UNL     1       2.476   3.294  17.213  0.00  0.00    +0.000 C 
ATOM      7  C   UNL     1       3.819   4.189  19.233  0.00  0.00    +0.000 C 
ATOM      8  C   UNL     1       3.800   2.857  20.000  0.00  0.00    +0.000 C 
ATOM      9  C   UNL     1       2.395   2.374  20.359  0.00  0.00    +0.000 C 
ATOM     10  C   UNL     1       1.544   3.457  21.015  0.00  0.00    +0.000 C 
ATOM     11  C   UNL     1       1.553   4.781  20.257  0.00  0.00    +0.000 C 
ATOM     12  C   UNL     1       2.966   5.257  19.933  0.00  0.00    +0.000 C 
ATOM     13  C   UNL     1       5.280   4.689  19.165  0.00  0.00    +0.000 C 
ATOM     14  O   UNL     1       5.977   4.962  20.134  0.00  0.00    +0.000 OA
ENDBRANCH   1   2
BRANCH   1  17
ATOM     15  C   UNL     1       7.909   8.507  17.815  0.00  0.00    +0.000 A 
ATOM     16  C   UNL     1       8.242   7.168  18.157  0.00  0.00    +0.000 A 
ATOM     17  C   UNL     1       7.340   6.393  17.469  0.00  0.00    +0.000 A 
ATOM     18  O   UNL     1       6.542   7.201  16.726  0.00  0.00    +0.000 OA
ATOM     19  N   UNL     1       6.899   8.518  16.930  0.00  0.00    +0.000 NA
BRANCH  15  23
ATOM     20  C   UNL     1       9.559  12.144  19.353  0.00  0.00    +0.000 A 
ATOM     21  C   UNL     1       8.897  12.134  18.125  0.00  0.00    +0.000 A 
ATOM     22  C   UNL     1       8.356  10.948  17.618  0.00  0.00    +0.000 A 
ATOM     23  C   UNL     1       8.496   9.744  18.324  0.00  0.00    +0.000 A 
ATOM     24  C   UNL     1       9.191   9.756  19.540  0.00  0.00    +0.000 A 
ATOM     25  C   UNL     1       9.718  10.949  20.053  0.00  0.00    +0.000 A 
BRANCH  20  27
ATOM     26  C   UNL     1      11.457  13.476  19.789  0.00  0.00    +0.000 C 
ATOM     27  O   UNL     1      10.038  13.360  19.756  0.00  0.00    +0.000 OA
ENDBRANCH  20  27
ENDBRANCH  15  23
ENDBRANCH   1  17
TORSDOF 4
ENDMDL
MODEL 2
REMARK VINA RESULT:      -8.7      0.392      1.007
REMARK  Name = 
REMARK  6 active torsions:
REMARK  status: ('A' for Active; 'I' for Inactive)
REMARK    1  A    between atoms: C_1  and  O_2
REMARK    2  A    between atoms: O_2  and  C_3
REMARK    3  A    between atoms: C_6  and  C_7
REMARK    4  A    between atoms: C_9  and  C_10
REMARK    5  A    between atoms: C_10  and  N_11
REMARK    6  A    between atoms: N_14  and  C_15
REMARK                            x       y       z     vdW  Elec       q    Type
REMARK                         _______ _______ _______ _____ _____    ______ ____
ROOT
ATOM      1  C   UNL     1       7.058   4.946  17.435  0.00  0.00    +0.000 C 
ENDROOT
BRANCH   1   2
ATOM      2  N   UNL     1       5.693   4.759  17.869  0.00  0.00    +0.000 N 
ATOM      3  C   UNL     1       4.689   4.379  17.036  0.00  0.00    +0.000 C 
ATOM      4  O   UNL     1       4.781   4.244  15.824  0.00  0.00    +0.000 OA
ATOM      5  N   UNL     1       3.560   4.099  17.796  0.00  0.00    +0.000 N 
ATOM      6  C   UNL     1       2.485   3.327  17.210  0.00  0.00    +0.000 C 
ATOM      7  C   UNL     1       3.834   4.198  19.237  0.00  0.00    +0.000 C 
ATOM      8  C   UNL     1       3.808   2.860  19.993  0.00  0.00    +0.000 C 
ATOM      9  C   UNL     1       2.401   2.382  20.350  0.00  0.00    +0.000 C 
ATOM     10  C   UNL     1       1.556   3.465  21.014  0.00  0.00    +0.000 C 
ATOM     11  C   UNL     1       1.572   4.795  20.267  0.00  0.00    +0.000 C 
ATOM     12  C   UNL     1       2.987   5.265  19.946  0.00  0.00    +0.000 C 
ATOM     13  C   UNL     1       5.298   4.691  19.172  0.00  0.00    +0.000 C 
ATOM     14  O   UNL     1       5.997   4.952  20.144  0.00  0.00    +0.000 OA
ENDBRANCH   1   2
BRANCH   1  17
ATOM     15  C   UNL     1       7.922   8.515  17.817  0.00  0.00    +0.000 A 
ATOM     16  C   UNL     1       8.236   7.179  18.190  0.00  0.00    +0.000 A 
ATOM     17  C   UNL     1       7.361   6.399  17.473  0.00  0.00    +0.000 A 
ATOM     18  O   UNL     1       6.598   7.200  16.687  0.00  0.00    +0.000 OA
ATOM     19  N   UNL     1       6.951   8.518  16.890  0.00  0.00    +0.000 NA
BRANCH  15  23
ATOM     20  C   UNL     1       9.656  12.141  19.289  0.00  0.00    +0.000 A 
ATOM     21  C   UNL     1       9.758  10.960  20.026  0.00  0.00    +0.000 A 
ATOM     22  C   UNL     1       9.193   9.773  19.549  0.00  0.00    +0.000 A 
ATOM     23  C   UNL     1       8.490   9.757  18.336  0.00  0.00    +0.000 A 
ATOM     24  C   UNL     1       8.363  10.954  17.618  0.00  0.00    +0.000 A 
ATOM     25  C   UNL     1       8.944  12.138  18.090  0.00  0.00    +0.000 A 
BRANCH  20  27
ATOM     26  C   UNL     1       9.776  14.495  19.378  0.00  0.00    +0.000 C 
ATOM     27  O   UNL     1      10.254  13.238  19.845  0.00  0.00    +0.000 OA
ENDBRANCH  20  27
ENDBRANCH  15  23
ENDBRANCH   1  17
TORSDOF 4
ENDMDL
MODEL 3
REMARK VINA RESULT:      -7.9      1.596      2.152
REMARK  Name = 
REMARK  6 active torsions:
REMARK  status: ('A' for Active; 'I' for Inactive)
REMARK    1  A    between atoms: C_1  and  O_2
REMARK    2  A    between atoms: O_2  and  C_3
REMARK    3  A    between atoms: C_6  and  C_7
REMARK    4  A    between atoms: C_9  and  C_10
REMARK    5  A    between atoms: C_10  and  N_11
REMARK    6  A    between atoms: N_14  and  C_15
REMARK                            x       y       z     vdW  Elec       q    Type
REMARK                         _______ _______ _______ _____ _____    ______ ____
ROOT
ATOM      1  C   UNL     1       6.552   6.823  16.445  0.00  0.00    +0.000 C 
ENDROOT
BRANCH   1   2
ATOM      2  N   UNL     1       5.600   6.067  17.226  0.00  0.00    +0.000 N 
ATOM      3  C   UNL     1       4.396   6.558  17.617  0.00  0.00    +0.000 C 
ATOM      4  O   UNL     1       4.007   7.706  17.453  0.00  0.00    +0.000 OA
ATOM      5  N   UNL     1       3.651   5.524  18.171  0.00  0.00    +0.000 N 
ATOM      6  C   UNL     1       2.221   5.683  18.322  0.00  0.00    +0.000 C 
ATOM      7  C   UNL     1       4.346   4.233  18.064  0.00  0.00    +0.000 C 
ATOM      8  C   UNL     1       3.701   3.231  17.093  0.00  0.00    +0.000 C 
ATOM      9  C   UNL     1       2.510   2.478  17.687  0.00  0.00    +0.000 C 
ATOM     10  C   UNL     1       2.808   1.880  19.058  0.00  0.00    +0.000 C 
ATOM     11  C   UNL     1       3.444   2.869  20.029  0.00  0.00    +0.000 C 
ATOM     12  C   UNL     1       4.646   3.588  19.425  0.00  0.00    +0.000 C 
ATOM     13  C   UNL     1       5.675   4.722  17.444  0.00  0.00    +0.000 C 
ATOM     14  O   UNL     1       6.630   4.006  17.170  0.00  0.00    +0.000 OA
ENDBRANCH   1   2
BRANCH   1  17
ATOM     15  C   UNL     1       8.573   9.111  18.520  0.00  0.00    +0.000 A 
ATOM     16  C   UNL     1       7.667   8.997  17.431  0.00  0.00    +0.000 A 
ATOM     17  C   UNL     1       7.351   7.661  17.374  0.00  0.00    +0.000 A 
ATOM     18  O   UNL     1       7.986   7.015  18.384  0.00  0.00    +0.000 OA
ATOM     19  N   UNL     1       8.740   7.915  19.107  0.00  0.00    +0.000 NA
BRANCH  15  23
ATOM     20  C   UNL     1      10.599  12.630  19.874  0.00  0.00    +0.000 A 
ATOM     21  C   UNL     1      10.573  12.310  18.516  0.00  0.00    +0.000 A 
ATOM     22  C   UNL     1       9.911  11.162  18.069  0.00  0.00    +0.000 A 
ATOM     23  C   UNL     1       9.290  10.298  18.982  0.00  0.00    +0.000 A 
ATOM     24  C   UNL     1       9.349  10.609  20.347  0.00  0.00    +0.000 A 
ATOM     25  C   UNL     1       9.998  11.768  20.790  0.00  0.00    +0.000 A 
BRANCH  20  27
ATOM     26  C   UNL     1      10.730  14.973  19.628  0.00  0.00    +0.000 C 
ATOM     27  O   UNL     1      11.263  13.781  20.197  0.00  0.00    +0.000 OA
ENDBRANCH  20  27
ENDBRANCH  15  23
ENDBRANCH   1  17
TORSDOF 4
ENDMDL
MODEL 4
REMARK VINA RESULT:      -7.9      1.511      1.893
REMARK  Name = 
REMARK  6 active torsions:
REMARK  status: ('A' for Active; 'I' for Inactive)
REMARK    1  A    between atoms: C_1  and  O_2
REMARK    2  A    between atoms: O_2  and  C_3
REMARK    3  A    between atoms: C_6  and  C_7
REMARK    4  A    between atoms: C_9  and  C_10
REMARK    5  A    between atoms: C_10  and  N_11
REMARK    6  A    between atoms: N_14  and  C_15
REMARK                            x       y       z     vdW  Elec       q    Type
REMARK                         _______ _______ _______ _____ _____    ______ ____
ROOT
ATOM      1  C   UNL     1       6.513   5.800  17.059  0.00  0.00    +0.000 C 
ENDROOT
BRANCH   1   2
ATOM      2  N   UNL     1       5.248   5.635  17.735  0.00  0.00    +0.000 N 
ATOM      3  C   UNL     1       4.144   6.373  17.449  0.00  0.00    +0.000 C 
ATOM      4  O   UNL     1       4.100   7.318  16.673  0.00  0.00    +0.000 OA
ATOM      5  N   UNL     1       3.058   5.835  18.128  0.00  0.00    +0.000 N 
ATOM      6  C   UNL     1       1.717   6.189  17.715  0.00  0.00    +0.000 C 
ATOM      7  C   UNL     1       3.418   4.600  18.841  0.00  0.00    +0.000 C 
ATOM      8  C   UNL     1       2.794   3.318  18.267  0.00  0.00    +0.000 C 
ATOM      9  C   UNL     1       1.349   3.086  18.708  0.00  0.00    +0.000 C 
ATOM     10  C   UNL     1       1.157   3.225  20.215  0.00  0.00    +0.000 C 
ATOM     11  C   UNL     1       1.769   4.498  20.792  0.00  0.00    +0.000 C 
ATOM     12  C   UNL     1       3.219   4.695  20.361  0.00  0.00    +0.000 C 
ATOM     13  C   UNL     1       4.934   4.579  18.541  0.00  0.00    +0.000 C 
ATOM     14  O   UNL     1       5.720   3.730  18.943  0.00  0.00    +0.000 OA
ENDBRANCH   1   2
BRANCH   1  17
ATOM     15  C   UNL     1       8.319   8.719  18.419  0.00  0.00    +0.000 A 
ATOM     16  C   UNL     1       7.350   8.263  17.484  0.00  0.00    +0.000 A 
ATOM     17  C   UNL     1       7.247   6.912  17.715  0.00  0.00    +0.000 A 
ATOM     18  O   UNL     1       8.062   6.578  18.747  0.00  0.00    +0.000 OA
ATOM     19  N   UNL     1       8.724   7.702  19.196  0.00  0.00    +0.000 NA
BRANCH  15  23
ATOM     20  C   UNL     1      10.008  12.634  18.787  0.00  0.00    +0.000 A 
ATOM     21  C   UNL     1      10.316  11.643  19.720  0.00  0.00    +0.000 A 
ATOM     22  C   UNL     1       9.767  10.362  19.603  0.00  0.00    +0.000 A 
ATOM     23  C   UNL     1       8.875  10.062  18.563  0.00  0.00    +0.000 A 
ATOM     24  C   UNL     1       8.545  11.073  17.650  0.00  0.00    +0.000 A 
ATOM     25  C   UNL     1       9.110  12.350  17.760  0.00  0.00    +0.000 A 
BRANCH  20  27
ATOM     26  C   UNL     1       9.886  14.975  18.514  0.00  0.00    +0.000 C 
ATOM     27  O   UNL     1      10.610  13.845  18.992  0.00  0.00    +0.000 OA
ENDBRANCH  20  27
ENDBRANCH  15  23
ENDBRANCH   1  17
TORSDOF 4
ENDMDL
MODEL 5
REMARK VINA RESULT:      -7.9      1.429      1.573
REMARK  Name = 
REMARK  6 active torsions:
REMARK  status: ('A' for Active; 'I' for Inactive)
REMARK    1  A    between atoms: C_1  and  O_2
REMARK    2  A    between atoms: O_2  and  C_3
REMARK    3  A    between atoms: C_6  and  C_7
REMARK    4  A    between atoms: C_9  and  C_10
REMARK    5  A    between atoms: C_10  and  N_11
REMARK    6  A    between atoms: N_14  and  C_15
REMARK                            x       y       z     vdW  Elec       q    Type
REMARK                         _______ _______ _______ _____ _____    ______ ____
ROOT
ATOM      1  C   UNL     1       6.481   5.772  17.012  0.00  0.00    +0.000 C 
ENDROOT
BRANCH   1   2
ATOM      2  N   UNL     1       5.226   5.589  17.704  0.00  0.00    +0.000 N 
ATOM      3  C   UNL     1       4.113   6.321  17.441  0.00  0.00    +0.000 C 
ATOM      4  O   UNL     1       4.050   7.273  16.675  0.00  0.00    +0.000 OA
ATOM      5  N   UNL     1       3.041   5.767  18.130  0.00  0.00    +0.000 N 
ATOM      6  C   UNL     1       1.692   6.114  17.739  0.00  0.00    +0.000 C 
ATOM      7  C   UNL     1       3.421   4.529  18.826  0.00  0.00    +0.000 C 
ATOM      8  C   UNL     1       2.800   3.246  18.248  0.00  0.00    +0.000 C 
ATOM      9  C   UNL     1       1.363   2.998  18.707  0.00  0.00    +0.000 C 
ATOM     10  C   UNL     1       1.192   3.121  20.218  0.00  0.00    +0.000 C 
ATOM     11  C   UNL     1       1.801   4.393  20.799  0.00  0.00    +0.000 C 
ATOM     12  C   UNL     1       3.243   4.607  20.349  0.00  0.00    +0.000 C 
ATOM     13  C   UNL     1       4.933   4.523  18.504  0.00  0.00    +0.000 C 
ATOM     14  O   UNL     1       5.732   3.677  18.887  0.00  0.00    +0.000 OA
ENDBRANCH   1   2
BRANCH   1  17
ATOM     15  C   UNL     1       8.293   8.682  18.381  0.00  0.00    +0.000 A 
ATOM     16  C   UNL     1       7.324   8.231  17.444  0.00  0.00    +0.000 A 
ATOM     17  C   UNL     1       7.217   6.880  17.671  0.00  0.00    +0.000 A 
ATOM     18  O   UNL     1       8.030   6.541  18.703  0.00  0.00    +0.000 OA
ATOM     19  N   UNL     1       8.695   7.662  19.156  0.00  0.00    +0.000 NA
BRANCH  15  23
ATOM     20  C   UNL     1       9.871  12.630  18.873  0.00  0.00    +0.000 A 
ATOM     21  C   UNL     1       9.017  12.340  17.808  0.00  0.00    +0.000 A 
ATOM     22  C   UNL     1       8.498  11.052  17.644  0.00  0.00    +0.000 A 
ATOM     23  C   UNL     1       8.852  10.024  18.530  0.00  0.00    +0.000 A 
ATOM     24  C   UNL     1       9.737  10.316  19.577  0.00  0.00    +0.000 A 
ATOM     25  C   UNL     1      10.241  11.611  19.748  0.00  0.00    +0.000 A 
BRANCH  20  27
ATOM     26  C   UNL     1      11.683  14.085  19.277  0.00  0.00    +0.000 C 
ATOM     27  O   UNL     1      10.308  13.924  18.943  0.00  0.00    +0.000 OA
ENDBRANCH  20  27
ENDBRANCH  15  23
ENDBRANCH   1  17
TORSDOF 4
ENDMDL
MODEL 6
REMARK VINA RESULT:      -7.7      1.210      1.533
REMARK  Name = 
REMARK  6 active torsions:
REMARK  status: ('A' for Active; 'I' for Inactive)
REMARK    1  A    between atoms: C_1  and  O_2
REMARK    2  A    between atoms: O_2  and  C_3
REMARK    3  A    between atoms: C_6  and  C_7
REMARK    4  A    between atoms: C_9  and  C_10
REMARK    5  A    between atoms: C_10  and  N_11
REMARK    6  A    between atoms: N_14  and  C_15
REMARK                            x       y       z     vdW  Elec       q    Type
REMARK                         _______ _______ _______ _____ _____    ______ ____
ROOT
ATOM      1  C   UNL     1       7.177   5.403  17.273  0.00  0.00    +0.000 C 
ENDROOT
BRANCH   1   2
ATOM      2  N   UNL     1       5.831   5.191  17.753  0.00  0.00    +0.000 N 
ATOM      3  C   UNL     1       4.777   4.937  16.935  0.00  0.00    +0.000 C 
ATOM      4  O   UNL     1       4.803   4.950  15.712  0.00  0.00    +0.000 OA
ATOM      5  N   UNL     1       3.680   4.588  17.715  0.00  0.00    +0.000 N 
ATOM      6  C   UNL     1       2.557   3.916  17.099  0.00  0.00    +0.000 C 
ATOM      7  C   UNL     1       4.030   4.505  19.141  0.00  0.00    +0.000 C 
ATOM      8  C   UNL     1       4.007   3.085  19.729  0.00  0.00    +0.000 C 
ATOM      9  C   UNL     1       2.607   2.595  20.100  0.00  0.00    +0.000 C 
ATOM     10  C   UNL     1       1.826   3.605  20.935  0.00  0.00    +0.000 C 
ATOM     11  C   UNL     1       1.839   5.016  20.356  0.00  0.00    +0.000 C 
ATOM     12  C   UNL     1       3.248   5.494  20.018  0.00  0.00    +0.000 C 
ATOM     13  C   UNL     1       5.501   4.972  19.058  0.00  0.00    +0.000 C 
ATOM     14  O   UNL     1       6.255   5.098  20.016  0.00  0.00    +0.000 OA
ENDBRANCH   1   2
BRANCH   1  17
ATOM     15  C   UNL     1       8.314   8.796  18.179  0.00  0.00    +0.000 A 
ATOM     16  C   UNL     1       7.551   8.011  17.272  0.00  0.00    +0.000 A 
ATOM     17  C   UNL     1       7.638   6.728  17.757  0.00  0.00    +0.000 A 
ATOM     18  O   UNL     1       8.367   6.738  18.902  0.00  0.00    +0.000 OA
ATOM     19  N   UNL     1       8.781   8.025  19.175  0.00  0.00    +0.000 NA
BRANCH  15  23
ATOM     20  C   UNL     1       9.260  12.959  17.877  0.00  0.00    +0.000 A 
ATOM     21  C   UNL     1      10.127  12.085  18.533  0.00  0.00    +0.000 A 
ATOM     22  C   UNL     1       9.823  10.724  18.633  0.00  0.00    +0.000 A 
ATOM     23  C   UNL     1       8.626  10.221  18.103  0.00  0.00    +0.000 A 
ATOM     24  C   UNL     1       7.744  11.111  17.475  0.00  0.00    +0.000 A 
ATOM     25  C   UNL     1       8.060  12.471  17.361  0.00  0.00    +0.000 A 
BRANCH  20  27
ATOM     26  C   UNL     1      10.988  14.477  17.354  0.00  0.00    +0.000 C 
ATOM     27  O   UNL     1       9.662  14.265  17.829  0.00  0.00    +0.000 OA
ENDBRANCH  20  27
ENDBRANCH  15  23
ENDBRANCH   1  17
TORSDOF 4
ENDMDL
MODEL 7
REMARK VINA RESULT:      -7.6      1.096      1.150
REMARK  Name = 
REMARK  6 active torsions:
REMARK  status: ('A' for Active; 'I' for Inactive)
REMARK    1  A    between atoms: C_1  and  O_2
REMARK    2  A    between atoms: O_2  and  C_3
REMARK    3  A    between atoms: C_6  and  C_7
REMARK    4  A    between atoms: C_9  and  C_10
REMARK    5  A    between atoms: C_10  and  N_11
REMARK    6  A    between atoms: N_14  and  C_15
REMARK                            x       y       z     vdW  Elec       q    Type
REMARK                         _______ _______ _______ _____ _____    ______ ____
ROOT
ATOM      1  C   UNL     1       7.071   5.254  17.221  0.00  0.00    +0.000 C 
ENDROOT
BRANCH   1   2
ATOM      2  N   UNL     1       5.730   5.042  17.716  0.00  0.00    +0.000 N 
ATOM      3  C   UNL     1       4.676   4.740  16.915  0.00  0.00    +0.000 C 
ATOM      4  O   UNL     1       4.697   4.706  15.692  0.00  0.00    +0.000 OA
ATOM      5  N   UNL     1       3.589   4.407  17.713  0.00  0.00    +0.000 N 
ATOM      6  C   UNL     1       2.472   3.695  17.130  0.00  0.00    +0.000 C 
ATOM      7  C   UNL     1       3.946   4.384  19.139  0.00  0.00    +0.000 C 
ATOM      8  C   UNL     1       3.947   2.988  19.783  0.00  0.00    +0.000 C 
ATOM      9  C   UNL     1       2.556   2.493  20.180  0.00  0.00    +0.000 C 
ATOM     10  C   UNL     1       1.764   3.524  20.980  0.00  0.00    +0.000 C 
ATOM     11  C   UNL     1       1.754   4.911  20.346  0.00  0.00    +0.000 C 
ATOM     12  C   UNL     1       3.155   5.395  19.982  0.00  0.00    +0.000 C 
ATOM     13  C   UNL     1       5.410   4.869  19.031  0.00  0.00    +0.000 C 
ATOM     14  O   UNL     1       6.166   5.043  19.978  0.00  0.00    +0.000 OA
ENDBRANCH   1   2
BRANCH   1  17
ATOM     15  C   UNL     1       8.277   8.589  18.246  0.00  0.00    +0.000 A 
ATOM     16  C   UNL     1       7.492   7.853  17.317  0.00  0.00    +0.000 A 
ATOM     17  C   UNL     1       7.560   6.552  17.751  0.00  0.00    +0.000 A 
ATOM     18  O   UNL     1       8.299   6.504  18.888  0.00  0.00    +0.000 OA
ATOM     19  N   UNL     1       8.739   7.773  19.206  0.00  0.00    +0.000 NA
BRANCH  15  23
ATOM     20  C   UNL     1       9.218  12.764  18.242  0.00  0.00    +0.000 A 
ATOM     21  C   UNL     1       8.181  12.275  17.447  0.00  0.00    +0.000 A 
ATOM     22  C   UNL     1       7.869  10.911  17.446  0.00  0.00    +0.000 A 
ATOM     23  C   UNL     1       8.614  10.010  18.220  0.00  0.00    +0.000 A 
ATOM     24  C   UNL     1       9.675  10.506  18.990  0.00  0.00    +0.000 A 
ATOM     25  C   UNL     1       9.974  11.874  19.002  0.00  0.00    +0.000 A 
BRANCH  20  27
ATOM     26  C   UNL     1       9.667  14.758  19.421  0.00  0.00    +0.000 C 
ATOM     27  O   UNL     1       9.427  14.114  18.174  0.00  0.00    +0.000 OA
ENDBRANCH  20  27
ENDBRANCH  15  23
ENDBRANCH   1  17
TORSDOF 4
ENDMDL
MODEL 8
REMARK VINA RESULT:      -7.6      1.191      1.541
REMARK  Name = 
REMARK  6 active torsions:
REMARK  status: ('A' for Active; 'I' for Inactive)
REMARK    1  A    between atoms: C_1  and  O_2
REMARK    2  A    between atoms: O_2  and  C_3
REMARK    3  A    between atoms: C_6  and  C_7
REMARK    4  A    between atoms: C_9  and  C_10
REMARK    5  A    between atoms: C_10  and  N_11
REMARK    6  A    between atoms: N_14  and  C_15
REMARK                            x       y       z     vdW  Elec       q    Type
REMARK                         _______ _______ _______ _____ _____    ______ ____
ROOT
ATOM      1  C   UNL     1       6.797   4.530  17.941  0.00  0.00    +0.000 C 
ENDROOT
BRANCH   1   2
ATOM      2  N   UNL     1       5.426   4.651  18.378  0.00  0.00    +0.000 N 
ATOM      3  C   UNL     1       4.533   5.503  17.812  0.00  0.00    +0.000 C 
ATOM      4  O   UNL     1       4.786   6.330  16.947  0.00  0.00    +0.000 OA
ATOM      5  N   UNL     1       3.269   5.231  18.324  0.00  0.00    +0.000 N 
ATOM      6  C   UNL     1       2.101   5.726  17.629  0.00  0.00    +0.000 C 
ATOM      7  C   UNL     1       3.283   4.064  19.218  0.00  0.00    +0.000 C 
ATOM      8  C   UNL     1       2.553   2.825  18.673  0.00  0.00    +0.000 C 
ATOM      9  C   UNL     1       1.036   2.876  18.853  0.00  0.00    +0.000 C 
ATOM     10  C   UNL     1       0.617   3.245  20.273  0.00  0.00    +0.000 C 
ATOM     11  C   UNL     1       1.333   4.476  20.819  0.00  0.00    +0.000 C 
ATOM     12  C   UNL     1       2.847   4.391  20.653  0.00  0.00    +0.000 C 
ATOM     13  C   UNL     1       4.801   3.773  19.215  0.00  0.00    +0.000 C 
ATOM     14  O   UNL     1       5.348   2.877  19.846  0.00  0.00    +0.000 OA
ENDBRANCH   1   2
BRANCH   1  17
ATOM     15  C   UNL     1       8.095   7.986  17.910  0.00  0.00    +0.000 A 
ATOM     16  C   UNL     1       7.746   6.865  18.711  0.00  0.00    +0.000 A 
ATOM     17  C   UNL     1       7.365   5.896  17.815  0.00  0.00    +0.000 A 
ATOM     18  O   UNL     1       7.513   6.379  16.555  0.00  0.00    +0.000 OA
ATOM     19  N   UNL     1       7.978   7.676  16.609  0.00  0.00    +0.000 NA
BRANCH  15  23
ATOM     20  C   UNL     1       9.343  11.889  19.145  0.00  0.00    +0.000 A 
ATOM     21  C   UNL     1       9.565  10.785  19.969  0.00  0.00    +0.000 A 
ATOM     22  C   UNL     1       9.159   9.508  19.569  0.00  0.00    +0.000 A 
ATOM     23  C   UNL     1       8.497   9.321  18.347  0.00  0.00    +0.000 A 
ATOM     24  C   UNL     1       8.248  10.440  17.541  0.00  0.00    +0.000 A 
ATOM     25  C   UNL     1       8.670  11.716  17.936  0.00  0.00    +0.000 A 
BRANCH  20  27
ATOM     26  C   UNL     1      10.768  13.743  18.829  0.00  0.00    +0.000 C 
ATOM     27  O   UNL     1       9.790  13.087  19.630  0.00  0.00    +0.000 OA
ENDBRANCH  20  27
ENDBRANCH  15  23
ENDBRANCH   1  17
TORSDOF 4
ENDMDL
MODEL 9
REMARK VINA RESULT:      -7.5      1.545      2.204
REMARK  Name = 
REMARK  6 active torsions:
REMARK  status: ('A' for Active; 'I' for Inactive)
REMARK    1  A    between atoms: C_1  and  O_2
REMARK    2  A    between atoms: O_2  and  C_3
REMARK    3  A    between atoms: C_6  and  C_7
REMARK    4  A    between atoms: C_9  and  C_10
REMARK    5  A    between atoms: C_10  and  N_11
REMARK    6  A    between atoms: N_14  and  C_15
REMARK                            x       y       z     vdW  Elec       q    Type
REMARK                         _______ _______ _______ _____ _____    ______ ____
ROOT
ATOM      1  C   UNL     1       6.557   6.333  16.329  0.00  0.00    +0.000 C 
ENDROOT
BRANCH   1   2
ATOM      2  N   UNL     1       5.541   5.624  17.071  0.00  0.00    +0.000 N 
ATOM      3  C   UNL     1       5.781   4.479  17.762  0.00  0.00    +0.000 C 
ATOM      4  O   UNL     1       6.834   3.858  17.769  0.00  0.00    +0.000 OA
ATOM      5  N   UNL     1       4.656   4.169  18.517  0.00  0.00    +0.000 N 
ATOM      6  C   UNL     1       4.774   3.230  19.612  0.00  0.00    +0.000 C 
ATOM      7  C   UNL     1       3.625   5.212  18.413  0.00  0.00    +0.000 C 
ATOM      8  C   UNL     1       3.394   6.023  19.698  0.00  0.00    +0.000 C 
ATOM      9  C   UNL     1       2.500   5.318  20.718  0.00  0.00    +0.000 C 
ATOM     10  C   UNL     1       1.210   4.780  20.107  0.00  0.00    +0.000 C 
ATOM     11  C   UNL     1       1.430   3.970  18.833  0.00  0.00    +0.000 C 
ATOM     12  C   UNL     1       2.302   4.704  17.820  0.00  0.00    +0.000 C 
ATOM     13  C   UNL     1       4.311   6.131  17.376  0.00  0.00    +0.000 C 
ATOM     14  O   UNL     1       3.833   7.164  16.925  0.00  0.00    +0.000 OA
ENDBRANCH   1   2
BRANCH   1  17
ATOM     15  C   UNL     1       8.378   8.766  18.425  0.00  0.00    +0.000 A 
ATOM     16  C   UNL     1       7.534   8.581  17.296  0.00  0.00    +0.000 A 
ATOM     17  C   UNL     1       7.274   7.232  17.268  0.00  0.00    +0.000 A 
ATOM     18  O   UNL     1       7.880   6.644  18.330  0.00  0.00    +0.000 OA
ATOM     19  N   UNL     1       8.560   7.597  19.060  0.00  0.00    +0.000 NA
BRANCH  15  23
ATOM     20  C   UNL     1      10.342  12.328  19.756  0.00  0.00    +0.000 A 
ATOM     21  C   UNL     1       9.807  11.431  20.681  0.00  0.00    +0.000 A 
ATOM     22  C   UNL     1       9.165  10.265  20.250  0.00  0.00    +0.000 A 
ATOM     23  C   UNL     1       9.022   9.995  18.882  0.00  0.00    +0.000 A 
ATOM     24  C   UNL     1       9.533  10.918  17.959  0.00  0.00    +0.000 A 
ATOM     25  C   UNL     1      10.190  12.076  18.394  0.00  0.00    +0.000 A 
BRANCH  20  27
ATOM     26  C   UNL     1      10.681  14.660  19.629  0.00  0.00    +0.000 C 
ATOM     27  O   UNL     1      10.957  13.428  20.288  0.00  0.00    +0.000 OA
ENDBRANCH  20  27
ENDBRANCH  15  23
ENDBRANCH   1  17
TORSDOF 4
ENDMDL
