MODEL 1
REMARK VINA RESULT:      -8.6      0.000      0.000
REMARK  Name = 
REMARK  7 active torsions:
REMARK  status: ('A' for Active; 'I' for Inactive)
REMARK    1  A    between atoms: C_1  and  C_2
REMARK    2  A    between atoms: C_13  and  N_14
REMARK    3  A    between atoms: C_17  and  O_18
REMARK    4  A    between atoms: O_18  and  C_19
REMARK    5  A    between atoms: N_26  and  C_27
REMARK    6  A    between atoms: C_27  and  C_28
REMARK    7  A    between atoms: C_27  and  C_29
REMARK                            x       y       z     vdW  Elec       q    Type
REMARK                         _______ _______ _______ _____ _____    ______ ____
ROOT
ATOM      1  N   UNL     1       1.728   6.024  21.023  0.00  0.00    +0.000 N 
ATOM      2  C   UNL     1       1.384   7.285  20.748  0.00  0.00    +0.000 A 
ATOM      3  N   UNL     1       1.575   7.828  19.510  0.00  0.00    +0.000 NA
ATOM      4  C   UNL     1       1.134   9.057  19.645  0.00  0.00    +0.000 A 
ATOM      5  N   UNL     1       0.672   9.236  20.917  0.00  0.00    +0.000 N 
ATOM      6  N   UNL     1       0.836   8.106  21.640  0.00  0.00    +0.000 NA
ATOM      7  H   UNL     1       1.718   5.766  22.002  0.00  0.00    +0.000 HD
ENDROOT
BRANCH   1  20
ATOM      8  C   UNL     1       6.272   5.346  14.901  0.00  0.00    +0.000 C 
ATOM      9  C   UNL     1       6.039   4.783  16.240  0.00  0.00    +0.000 A 
ATOM     10  N   UNL     1       6.885   4.585  17.225  0.00  0.00    +0.000 NA
ATOM     11  N   UNL     1       6.148   4.037  18.251  0.00  0.00    +0.000 NA
ATOM     12  C   UNL     1       4.900   3.956  17.834  0.00  0.00    +0.000 A 
ATOM     13  N   UNL     1       3.792   3.521  18.487  0.00  0.00    +0.000 N 
ATOM     14  C   UNL     1       2.458   3.880  18.001  0.00  0.00    +0.000 C 
ATOM     15  C   UNL     1       1.577   4.447  19.128  0.00  0.00    +0.000 C 
ATOM     16  C   UNL     1       0.929   3.326  19.976  0.00  0.00    +0.000 C 
ATOM     17  C   UNL     1       1.825   3.166  21.205  0.00  0.00    +0.000 C 
ATOM     18  C   UNL     1       3.085   3.961  20.837  0.00  0.00    +0.000 C 
ATOM     19  C   UNL     1       3.945   3.102  19.878  0.00  0.00    +0.000 C 
ATOM     20  C   UNL     1       2.494   5.188  20.112  0.00  0.00    +0.000 C 
ATOM     21  O   UNL     1       4.762   4.403  16.546  0.00  0.00    +0.000 OA
ENDBRANCH   1  20
BRANCH   5  22
ATOM     22  C   UNL     1       0.176  10.433  21.576  0.00  0.00    +0.000 C 
ATOM     23  C   UNL     1      -0.342  10.136  22.981  0.00  0.00    +0.000 C 
ATOM     24  C   UNL     1       1.185  11.579  21.576  0.00  0.00    +0.000 C 
ENDBRANCH   5  22
BRANCH   4  25
ATOM     25  O   UNL     1       1.128  10.010  18.709  0.00  0.00    +0.000 OA
BRANCH  25  26
ATOM     26  C   UNL     1      -0.070  10.501  18.235  0.00  0.00    +0.000 A 
ATOM     27  C   UNL     1      -0.417  11.814  18.566  0.00  0.00    +0.000 A 
ATOM     28  C   UNL     1      -1.624  12.354  18.110  0.00  0.00    +0.000 A 
ATOM     29  C   UNL     1      -2.469  11.588  17.305  0.00  0.00    +0.000 A 
ATOM     30  C   UNL     1      -2.094  10.294  16.942  0.00  0.00    +0.000 A 
ATOM     31 CL   UNL     1      -3.112   9.361  15.915  0.00  0.00    +0.000 Cl
ATOM     32  C   UNL     1      -0.897   9.749  17.397  0.00  0.00    +0.000 A 
ENDBRANCH  25  26
ENDBRANCH   4  25
TORSDOF 4
ENDMDL
MODEL 2
REMARK VINA RESULT:      -8.4      0.998      1.300
REMARK  Name = 
REMARK  7 active torsions:
REMARK  status: ('A' for Active; 'I' for Inactive)
REMARK    1  A    between atoms: C_1  and  C_2
REMARK    2  A    between atoms: C_13  and  N_14
REMARK    3  A    between atoms: C_17  and  O_18
REMARK    4  A    between atoms: O_18  and  C_19
REMARK    5  A    between atoms: N_26  and  C_27
REMARK    6  A    between atoms: C_27  and  C_28
REMARK    7  A    between atoms: C_27  and  C_29
REMARK                            x       y       z     vdW  Elec       q    Type
REMARK                         _______ _______ _______ _____ _____    ______ ____
ROOT
ATOM      1  N   UNL     1       1.855   6.435  21.100  0.00  0.00    +0.000 N 
ATOM      2  C   UNL     1       1.358   7.624  20.748  0.00  0.00    +0.000 A 
ATOM      3  N   UNL     1       1.289   8.015  19.442  0.00  0.00    +0.000 NA
ATOM      4  C   UNL     1       0.769   9.219  19.512  0.00  0.00    +0.000 A 
ATOM      5  N   UNL     1       0.513   9.527  20.817  0.00  0.00    +0.000 N 
ATOM      6  N   UNL     1       0.896   8.513  21.623  0.00  0.00    +0.000 NA
ATOM      7  H   UNL     1       2.033   6.304  22.087  0.00  0.00    +0.000 HD
ENDROOT
BRANCH   1  20
ATOM      8  C   UNL     1       6.109   5.415  14.818  0.00  0.00    +0.000 C 
ATOM      9  C   UNL     1       5.890   4.879  16.171  0.00  0.00    +0.000 A 
ATOM     10  N   UNL     1       6.759   4.631  17.125  0.00  0.00    +0.000 NA
ATOM     11  N   UNL     1       6.027   4.141  18.183  0.00  0.00    +0.000 NA
ATOM     12  C   UNL     1       4.761   4.139  17.814  0.00  0.00    +0.000 A 
ATOM     13  N   UNL     1       3.653   3.783  18.512  0.00  0.00    +0.000 N 
ATOM     14  C   UNL     1       2.327   4.226  18.073  0.00  0.00    +0.000 C 
ATOM     15  C   UNL     1       1.529   4.858  19.227  0.00  0.00    +0.000 C 
ATOM     16  C   UNL     1       0.842   3.789  20.109  0.00  0.00    +0.000 C 
ATOM     17  C   UNL     1       1.771   3.578  21.306  0.00  0.00    +0.000 C 
ATOM     18  C   UNL     1       3.066   4.286  20.883  0.00  0.00    +0.000 C 
ATOM     19  C   UNL     1       3.830   3.365  19.901  0.00  0.00    +0.000 C 
ATOM     20  C   UNL     1       2.529   5.544  20.168  0.00  0.00    +0.000 C 
ATOM     21  O   UNL     1       4.604   4.585  16.528  0.00  0.00    +0.000 OA
ENDBRANCH   1  20
BRANCH   5  22
ATOM     22  C   UNL     1       0.029  10.761  21.412  0.00  0.00    +0.000 C 
ATOM     23  C   UNL     1      -0.419  10.559  22.857  0.00  0.00    +0.000 C 
ATOM     24  C   UNL     1       1.018  11.917  21.283  0.00  0.00    +0.000 C 
ENDBRANCH   5  22
BRANCH   4  25
ATOM     25  O   UNL     1       0.520  10.042  18.489  0.00  0.00    +0.000 OA
BRANCH  25  26
ATOM     26  C   UNL     1      -0.779  10.258  18.081  0.00  0.00    +0.000 A 
ATOM     27  C   UNL     1      -1.232   9.576  16.947  0.00  0.00    +0.000 A 
ATOM     28  C   UNL     1      -2.541   9.765  16.494  0.00  0.00    +0.000 A 
ATOM     29  C   UNL     1      -3.402  10.617  17.191  0.00  0.00    +0.000 A 
ATOM     30  C   UNL     1      -2.956  11.258  18.346  0.00  0.00    +0.000 A 
ATOM     31 CL   UNL     1      -4.026  12.274  19.231  0.00  0.00    +0.000 Cl
ATOM     32  C   UNL     1      -1.653  11.077  18.799  0.00  0.00    +0.000 A 
ENDBRANCH  25  26
ENDBRANCH   4  25
TORSDOF 4
ENDMDL
MODEL 3
REMARK VINA RESULT:      -8.4      2.949      7.867
REMARK  Name = 
REMARK  7 active torsions:
REMARK  status: ('A' for Active; 'I' for Inactive)
REMARK    1  A    between atoms: C_1  and  C_2
REMARK    2  A    between atoms: C_13  and  N_14
REMARK    3  A    between atoms: C_17  and  O_18
REMARK    4  A    between atoms: O_18  and  C_19
REMARK    5  A    between atoms: N_26  and  C_27
REMARK    6  A    between atoms: C_27  and  C_28
REMARK    7  A    between atoms: C_27  and  C_29
REMARK                            x       y       z     vdW  Elec       q    Type
REMARK                         _______ _______ _______ _____ _____    ______ ____
ROOT
ATOM      1  N   UNL     1       1.655   7.472  21.377  0.00  0.00    +0.000 N 
ATOM      2  C   UNL     1       2.075   6.574  20.482  0.00  0.00    +0.000 A 
ATOM      3  N   UNL     1       2.397   6.929  19.203  0.00  0.00    +0.000 NA
ATOM      4  C   UNL     1       2.740   5.790  18.647  0.00  0.00    +0.000 A 
ATOM      5  N   UNL     1       2.648   4.790  19.571  0.00  0.00    +0.000 N 
ATOM      6  N   UNL     1       2.212   5.279  20.753  0.00  0.00    +0.000 NA
ATOM      7  H   UNL     1       1.270   7.097  22.234  0.00  0.00    +0.000 HD
ENDROOT
BRANCH   1  20
ATOM      8  C   UNL     1       3.876  14.451  19.151  0.00  0.00    +0.000 C 
ATOM      9  C   UNL     1       2.787  13.475  18.992  0.00  0.00    +0.000 A 
ATOM     10  N   UNL     1       2.233  13.008  17.896  0.00  0.00    +0.000 NA
ATOM     11  N   UNL     1       1.264  12.122  18.311  0.00  0.00    +0.000 NA
ATOM     12  C   UNL     1       1.303  12.091  19.629  0.00  0.00    +0.000 A 
ATOM     13  N   UNL     1       0.577  11.350  20.503  0.00  0.00    +0.000 N 
ATOM     14  C   UNL     1       1.039  11.164  21.880  0.00  0.00    +0.000 C 
ATOM     15  C   UNL     1       1.028   9.681  22.288  0.00  0.00    +0.000 C 
ATOM     16  C   UNL     1      -0.379   9.214  22.734  0.00  0.00    +0.000 C 
ATOM     17  C   UNL     1      -1.000   8.541  21.509  0.00  0.00    +0.000 C 
ATOM     18  C   UNL     1      -0.061   8.943  20.363  0.00  0.00    +0.000 C 
ATOM     19  C   UNL     1      -0.386  10.399  19.950  0.00  0.00    +0.000 C 
ATOM     20  C   UNL     1       1.326   8.847  21.034  0.00  0.00    +0.000 C 
ATOM     21  O   UNL     1       2.248  12.948  20.131  0.00  0.00    +0.000 OA
ENDBRANCH   1  20
BRANCH   5  22
ATOM     22  C   UNL     1       2.830   3.355  19.422  0.00  0.00    +0.000 C 
ATOM     23  C   UNL     1       4.261   2.927  19.739  0.00  0.00    +0.000 C 
ATOM     24  C   UNL     1       1.809   2.536  20.206  0.00  0.00    +0.000 C 
ENDBRANCH   5  22
BRANCH   4  25
ATOM     25  O   UNL     1       3.118   5.602  17.380  0.00  0.00    +0.000 OA
BRANCH  25  26
ATOM     26  C   UNL     1       4.459   5.529  17.067  0.00  0.00    +0.000 A 
ATOM     27  C   UNL     1       4.903   4.417  16.345  0.00  0.00    +0.000 A 
ATOM     28  C   UNL     1       6.254   4.298  16.006  0.00  0.00    +0.000 A 
ATOM     29  C   UNL     1       7.154   5.303  16.369  0.00  0.00    +0.000 A 
ATOM     30  C   UNL     1       6.694   6.430  17.050  0.00  0.00    +0.000 A 
ATOM     31 CL   UNL     1       7.791   7.690  17.461  0.00  0.00    +0.000 Cl
ATOM     32  C   UNL     1       5.351   6.552  17.394  0.00  0.00    +0.000 A 
ENDBRANCH  25  26
ENDBRANCH   4  25
TORSDOF 4
ENDMDL
MODEL 4
REMARK VINA RESULT:      -8.3      1.348      1.685
REMARK  Name = 
REMARK  7 active torsions:
REMARK  status: ('A' for Active; 'I' for Inactive)
REMARK    1  A    between atoms: C_1  and  C_2
REMARK    2  A    between atoms: C_13  and  N_14
REMARK    3  A    between atoms: C_17  and  O_18
REMARK    4  A    between atoms: O_18  and  C_19
REMARK    5  A    between atoms: N_26  and  C_27
REMARK    6  A    between atoms: C_27  and  C_28
REMARK    7  A    between atoms: C_27  and  C_29
REMARK                            x       y       z     vdW  Elec       q    Type
REMARK                         _______ _______ _______ _____ _____    ______ ____
ROOT
ATOM      1  N   UNL     1       1.499   5.520  20.773  0.00  0.00    +0.000 N 
ATOM      2  C   UNL     1       1.340   6.846  20.714  0.00  0.00    +0.000 A 
ATOM      3  N   UNL     1       1.815   7.580  19.666  0.00  0.00    +0.000 NA
ATOM      4  C   UNL     1       1.481   8.810  19.980  0.00  0.00    +0.000 A 
ATOM      5  N   UNL     1       0.808   8.808  21.167  0.00  0.00    +0.000 N 
ATOM      6  N   UNL     1       0.718   7.552  21.655  0.00  0.00    +0.000 NA
ATOM      7  H   UNL     1       1.279   5.087  21.660  0.00  0.00    +0.000 HD
ENDROOT
BRANCH   1  20
ATOM      8  C   UNL     1       6.267   5.402  14.787  0.00  0.00    +0.000 C 
ATOM      9  C   UNL     1       6.021   4.758  16.086  0.00  0.00    +0.000 A 
ATOM     10  N   UNL     1       6.844   4.549  17.088  0.00  0.00    +0.000 NA
ATOM     11  N   UNL     1       6.103   3.910  18.058  0.00  0.00    +0.000 NA
ATOM     12  C   UNL     1       4.875   3.789  17.593  0.00  0.00    +0.000 A 
ATOM     13  N   UNL     1       3.771   3.265  18.183  0.00  0.00    +0.000 N 
ATOM     14  C   UNL     1       2.436   3.582  17.670  0.00  0.00    +0.000 C 
ATOM     15  C   UNL     1       1.491   4.043  18.793  0.00  0.00    +0.000 C 
ATOM     16  C   UNL     1       0.875   2.847  19.558  0.00  0.00    +0.000 C 
ATOM     17  C   UNL     1       1.738   2.665  20.808  0.00  0.00    +0.000 C 
ATOM     18  C   UNL     1       2.967   3.541  20.527  0.00  0.00    +0.000 C 
ATOM     19  C   UNL     1       3.900   2.779  19.555  0.00  0.00    +0.000 C 
ATOM     20  C   UNL     1       2.336   4.774  19.846  0.00  0.00    +0.000 C 
ATOM     21  O   UNL     1       4.756   4.298  16.326  0.00  0.00    +0.000 OA
ENDBRANCH   1  20
BRANCH   5  22
ATOM     22  C   UNL     1       0.318   9.916  21.970  0.00  0.00    +0.000 C 
ATOM     23  C   UNL     1      -1.030  10.431  21.468  0.00  0.00    +0.000 C 
ATOM     24  C   UNL     1       0.283   9.605  23.464  0.00  0.00    +0.000 C 
ENDBRANCH   5  22
BRANCH   4  25
ATOM     25  O   UNL     1       1.747   9.914  19.276  0.00  0.00    +0.000 OA
BRANCH  25  26
ATOM     26  C   UNL     1       0.713  10.684  18.789  0.00  0.00    +0.000 A 
ATOM     27  C   UNL     1      -0.359  10.030  18.175  0.00  0.00    +0.000 A 
ATOM     28  C   UNL     1      -1.430  10.769  17.664  0.00  0.00    +0.000 A 
ATOM     29  C   UNL     1      -1.437  12.160  17.789  0.00  0.00    +0.000 A 
ATOM     30  C   UNL     1      -0.385  12.802  18.443  0.00  0.00    +0.000 A 
ATOM     31 CL   UNL     1      -0.410  14.511  18.638  0.00  0.00    +0.000 Cl
ATOM     32  C   UNL     1       0.686  12.071  18.949  0.00  0.00    +0.000 A 
ENDBRANCH  25  26
ENDBRANCH   4  25
TORSDOF 4
ENDMDL
MODEL 5
REMARK VINA RESULT:      -8.1      3.242      8.000
REMARK  Name = 
REMARK  7 active torsions:
REMARK  status: ('A' for Active; 'I' for Inactive)
REMARK    1  A    between atoms: C_1  and  C_2
REMARK    2  A    between atoms: C_13  and  N_14
REMARK    3  A    between atoms: C_17  and  O_18
REMARK    4  A    between atoms: O_18  and  C_19
REMARK    5  A    between atoms: N_26  and  C_27
REMARK    6  A    between atoms: C_27  and  C_28
REMARK    7  A    between atoms: C_27  and  C_29
REMARK                            x       y       z     vdW  Elec       q    Type
REMARK                         _______ _______ _______ _____ _____    ______ ____
ROOT
ATOM      1  N   UNL     1       1.479   8.486  21.057  0.00  0.00    +0.000 N 
ATOM      2  C   UNL     1       1.848   7.464  20.279  0.00  0.00    +0.000 A 
ATOM      3  N   UNL     1       2.349   7.661  19.024  0.00  0.00    +0.000 NA
ATOM      4  C   UNL     1       2.571   6.441  18.590  0.00  0.00    +0.000 A 
ATOM      5  N   UNL     1       2.235   5.546  19.564  0.00  0.00    +0.000 N 
ATOM      6  N   UNL     1       1.760   6.190  20.652  0.00  0.00    +0.000 NA
ATOM      7  H   UNL     1       0.956   8.243  21.888  0.00  0.00    +0.000 HD
ENDROOT
BRANCH   1  20
ATOM      8  C   UNL     1       4.767  15.310  19.960  0.00  0.00    +0.000 C 
ATOM      9  C   UNL     1       3.820  14.368  19.346  0.00  0.00    +0.000 A 
ATOM     10  N   UNL     1       3.789  13.886  18.124  0.00  0.00    +0.000 NA
ATOM     11  N   UNL     1       2.698  13.047  18.077  0.00  0.00    +0.000 NA
ATOM     12  C   UNL     1       2.147  13.056  19.275  0.00  0.00    +0.000 A 
ATOM     13  N   UNL     1       1.075  12.368  19.744  0.00  0.00    +0.000 N 
ATOM     14  C   UNL     1       0.869  12.211  21.185  0.00  0.00    +0.000 C 
ATOM     15  C   UNL     1       0.612  10.742  21.565  0.00  0.00    +0.000 C 
ATOM     16  C   UNL     1      -0.866  10.338  21.345  0.00  0.00    +0.000 C 
ATOM     17  C   UNL     1      -0.908   9.648  19.980  0.00  0.00    +0.000 C 
ATOM     18  C   UNL     1       0.459   9.981  19.367  0.00  0.00    +0.000 C 
ATOM     19  C   UNL     1       0.417  11.434  18.833  0.00  0.00    +0.000 C 
ATOM     20  C   UNL     1       1.399   9.860  20.585  0.00  0.00    +0.000 C 
ATOM     21  O   UNL     1       2.807  13.895  20.134  0.00  0.00    +0.000 OA
ENDBRANCH   1  20
BRANCH   5  22
ATOM     22  C   UNL     1       2.213   4.093  19.535  0.00  0.00    +0.000 C 
ATOM     23  C   UNL     1       3.562   3.495  19.926  0.00  0.00    +0.000 C 
ATOM     24  C   UNL     1       1.071   3.494  20.353  0.00  0.00    +0.000 C 
ENDBRANCH   5  22
BRANCH   4  25
ATOM     25  O   UNL     1       3.044   6.095  17.390  0.00  0.00    +0.000 OA
BRANCH  25  26
ATOM     26  C   UNL     1       4.397   5.895  17.216  0.00  0.00    +0.000 A 
ATOM     27  C   UNL     1       4.818   4.657  16.721  0.00  0.00    +0.000 A 
ATOM     28  C   UNL     1       6.180   4.407  16.531  0.00  0.00    +0.000 A 
ATOM     29  C   UNL     1       7.117   5.405  16.813  0.00  0.00    +0.000 A 
ATOM     30  C   UNL     1       6.685   6.652  17.263  0.00  0.00    +0.000 A 
ATOM     31 CL   UNL     1       7.831   7.898  17.570  0.00  0.00    +0.000 Cl
ATOM     32  C   UNL     1       5.331   6.905  17.460  0.00  0.00    +0.000 A 
ENDBRANCH  25  26
ENDBRANCH   4  25
TORSDOF 4
ENDMDL
MODEL 6
REMARK VINA RESULT:      -8.1      3.568      8.392
REMARK  Name = 
REMARK  7 active torsions:
REMARK  status: ('A' for Active; 'I' for Inactive)
REMARK    1  A    between atoms: C_1  and  C_2
REMARK    2  A    between atoms: C_13  and  N_14
REMARK    3  A    between atoms: C_17  and  O_18
REMARK    4  A    between atoms: O_18  and  C_19
REMARK    5  A    between atoms: N_26  and  C_27
REMARK    6  A    between atoms: C_27  and  C_28
REMARK    7  A    between atoms: C_27  and  C_29
REMARK                            x       y       z     vdW  Elec       q    Type
REMARK                         _______ _______ _______ _____ _____    ______ ____
ROOT
ATOM      1  N   UNL     1       1.373   8.660  20.094  0.00  0.00    +0.000 N 
ATOM      2  C   UNL     1       2.025   7.814  19.291  0.00  0.00    +0.000 A 
ATOM      3  N   UNL     1       2.890   8.256  18.332  0.00  0.00    +0.000 NA
ATOM      4  C   UNL     1       3.303   7.149  17.761  0.00  0.00    +0.000 A 
ATOM      5  N   UNL     1       2.722   6.078  18.375  0.00  0.00    +0.000 N 
ATOM      6  N   UNL     1       1.890   6.492  19.356  0.00  0.00    +0.000 NA
ATOM      7  H   UNL     1       0.626   8.259  20.646  0.00  0.00    +0.000 HD
ENDROOT
BRANCH   1  20
ATOM      8  C   UNL     1       5.106  15.342  20.157  0.00  0.00    +0.000 C 
ATOM      9  C   UNL     1       4.066  14.602  19.427  0.00  0.00    +0.000 A 
ATOM     10  N   UNL     1       3.946  14.374  18.138  0.00  0.00    +0.000 NA
ATOM     11  N   UNL     1       2.795  13.633  17.992  0.00  0.00    +0.000 NA
ATOM     12  C   UNL     1       2.299  13.440  19.198  0.00  0.00    +0.000 A 
ATOM     13  N   UNL     1       1.201  12.743  19.585  0.00  0.00    +0.000 N 
ATOM     14  C   UNL     1       1.047  12.318  20.978  0.00  0.00    +0.000 C 
ATOM     15  C   UNL     1       0.698  10.822  21.079  0.00  0.00    +0.000 C 
ATOM     16  C   UNL     1      -0.814  10.565  20.869  0.00  0.00    +0.000 C 
ATOM     17  C   UNL     1      -0.966  10.163  19.401  0.00  0.00    +0.000 C 
ATOM     18  C   UNL     1       0.394  10.522  18.788  0.00  0.00    +0.000 C 
ATOM     19  C   UNL     1       0.436  12.051  18.549  0.00  0.00    +0.000 C 
ATOM     20  C   UNL     1       1.374  10.102  19.904  0.00  0.00    +0.000 C 
ATOM     21  O   UNL     1       3.056  14.049  20.164  0.00  0.00    +0.000 OA
ENDBRANCH   1  20
BRANCH   5  22
ATOM     22  C   UNL     1       2.789   4.662  18.054  0.00  0.00    +0.000 C 
ATOM     23  C   UNL     1       3.563   3.874  19.108  0.00  0.00    +0.000 C 
ATOM     24  C   UNL     1       1.420   4.044  17.780  0.00  0.00    +0.000 C 
ENDBRANCH   5  22
BRANCH   4  25
ATOM     25  O   UNL     1       4.154   7.049  16.735  0.00  0.00    +0.000 OA
BRANCH  25  26
ATOM     26  C   UNL     1       5.272   6.252  16.845  0.00  0.00    +0.000 A 
ATOM     27  C   UNL     1       5.569   5.389  15.786  0.00  0.00    +0.000 A 
ATOM     28  C   UNL     1       6.692   4.559  15.853  0.00  0.00    +0.000 A 
ATOM     29  C   UNL     1       7.530   4.612  16.969  0.00  0.00    +0.000 A 
ATOM     30  C   UNL     1       7.252   5.508  18.002  0.00  0.00    +0.000 A 
ATOM     31 CL   UNL     1       8.305   5.607  19.359  0.00  0.00    +0.000 Cl
ATOM     32  C   UNL     1       6.133   6.332  17.942  0.00  0.00    +0.000 A 
ENDBRANCH  25  26
ENDBRANCH   4  25
TORSDOF 4
ENDMDL
MODEL 7
REMARK VINA RESULT:      -7.8      2.976      7.814
REMARK  Name = 
REMARK  7 active torsions:
REMARK  status: ('A' for Active; 'I' for Inactive)
REMARK    1  A    between atoms: C_1  and  C_2
REMARK    2  A    between atoms: C_13  and  N_14
REMARK    3  A    between atoms: C_17  and  O_18
REMARK    4  A    between atoms: O_18  and  C_19
REMARK    5  A    between atoms: N_26  and  C_27
REMARK    6  A    between atoms: C_27  and  C_28
REMARK    7  A    between atoms: C_27  and  C_29
REMARK                            x       y       z     vdW  Elec       q    Type
REMARK                         _______ _______ _______ _____ _____    ______ ____
ROOT
ATOM      1  N   UNL     1       1.697   7.493  21.408  0.00  0.00    +0.000 N 
ATOM      2  C   UNL     1       2.103   6.587  20.515  0.00  0.00    +0.000 A 
ATOM      3  N   UNL     1       2.396   6.929  19.226  0.00  0.00    +0.000 NA
ATOM      4  C   UNL     1       2.735   5.786  18.676  0.00  0.00    +0.000 A 
ATOM      5  N   UNL     1       2.669   4.795  19.613  0.00  0.00    +0.000 N 
ATOM      6  N   UNL     1       2.255   5.296  20.798  0.00  0.00    +0.000 NA
ATOM      7  H   UNL     1       1.332   7.126  22.277  0.00  0.00    +0.000 HD
ENDROOT
BRANCH   1  20
ATOM      8  C   UNL     1       3.845  14.510  19.232  0.00  0.00    +0.000 C 
ATOM      9  C   UNL     1       2.778  13.514  19.047  0.00  0.00    +0.000 A 
ATOM     10  N   UNL     1       2.260  13.037  17.938  0.00  0.00    +0.000 NA
ATOM     11  N   UNL     1       1.297  12.134  18.330  0.00  0.00    +0.000 NA
ATOM     12  C   UNL     1       1.305  12.104  19.648  0.00  0.00    +0.000 A 
ATOM     13  N   UNL     1       0.570  11.350  20.504  0.00  0.00    +0.000 N 
ATOM     14  C   UNL     1       1.001  11.174  21.893  0.00  0.00    +0.000 C 
ATOM     15  C   UNL     1       1.007   9.690  22.302  0.00  0.00    +0.000 C 
ATOM     16  C   UNL     1      -0.401   9.198  22.713  0.00  0.00    +0.000 C 
ATOM     17  C   UNL     1      -0.980   8.513  21.474  0.00  0.00    +0.000 C 
ATOM     18  C   UNL     1      -0.020   8.932  20.351  0.00  0.00    +0.000 C 
ATOM     19  C   UNL     1      -0.361  10.382  19.929  0.00  0.00    +0.000 C 
ATOM     20  C   UNL     1       1.351   8.862  21.056  0.00  0.00    +0.000 C 
ATOM     21  O   UNL     1       2.221  12.978  20.173  0.00  0.00    +0.000 OA
ENDBRANCH   1  20
BRANCH   5  22
ATOM     22  C   UNL     1       2.858   3.361  19.477  0.00  0.00    +0.000 C 
ATOM     23  C   UNL     1       4.322   2.960  19.646  0.00  0.00    +0.000 C 
ATOM     24  C   UNL     1       1.941   2.546  20.387  0.00  0.00    +0.000 C 
ENDBRANCH   5  22
BRANCH   4  25
ATOM     25  O   UNL     1       3.088   5.585  17.404  0.00  0.00    +0.000 OA
BRANCH  25  26
ATOM     26  C   UNL     1       4.421   5.569  17.055  0.00  0.00    +0.000 A 
ATOM     27  C   UNL     1       5.335   6.162  17.931  0.00  0.00    +0.000 A 
ATOM     28  C   UNL     1       6.698   6.172  17.619  0.00  0.00    +0.000 A 
ATOM     29  C   UNL     1       7.146   5.568  16.442  0.00  0.00    +0.000 A 
ATOM     30  C   UNL     1       6.233   4.939  15.596  0.00  0.00    +0.000 A 
ATOM     31 CL   UNL     1       6.786   4.156  14.167  0.00  0.00    +0.000 Cl
ATOM     32  C   UNL     1       4.875   4.931  15.899  0.00  0.00    +0.000 A 
ENDBRANCH  25  26
ENDBRANCH   4  25
TORSDOF 4
ENDMDL
MODEL 8
REMARK VINA RESULT:      -7.7      3.273      7.992
REMARK  Name = 
REMARK  7 active torsions:
REMARK  status: ('A' for Active; 'I' for Inactive)
REMARK    1  A    between atoms: C_1  and  C_2
REMARK    2  A    between atoms: C_13  and  N_14
REMARK    3  A    between atoms: C_17  and  O_18
REMARK    4  A    between atoms: O_18  and  C_19
REMARK    5  A    between atoms: N_26  and  C_27
REMARK    6  A    between atoms: C_27  and  C_28
REMARK    7  A    between atoms: C_27  and  C_29
REMARK                            x       y       z     vdW  Elec       q    Type
REMARK                         _______ _______ _______ _____ _____    ______ ____
ROOT
ATOM      1  N   UNL     1       1.393   8.564  21.118  0.00  0.00    +0.000 N 
ATOM      2  C   UNL     1       1.797   7.529  20.376  0.00  0.00    +0.000 A 
ATOM      3  N   UNL     1       2.375   7.705  19.152  0.00  0.00    +0.000 NA
ATOM      4  C   UNL     1       2.610   6.478  18.746  0.00  0.00    +0.000 A 
ATOM      5  N   UNL     1       2.206   5.598  19.708  0.00  0.00    +0.000 N 
ATOM      6  N   UNL     1       1.672   6.261  20.758  0.00  0.00    +0.000 NA
ATOM      7  H   UNL     1       0.819   8.337  21.919  0.00  0.00    +0.000 HD
ENDROOT
BRANCH   1  20
ATOM      8  C   UNL     1       4.880  15.281  19.971  0.00  0.00    +0.000 C 
ATOM      9  C   UNL     1       3.916  14.356  19.358  0.00  0.00    +0.000 A 
ATOM     10  N   UNL     1       3.888  13.857  18.142  0.00  0.00    +0.000 NA
ATOM     11  N   UNL     1       2.775  13.047  18.092  0.00  0.00    +0.000 NA
ATOM     12  C   UNL     1       2.209  13.088  19.282  0.00  0.00    +0.000 A 
ATOM     13  N   UNL     1       1.113  12.437  19.745  0.00  0.00    +0.000 N 
ATOM     14  C   UNL     1       0.883  12.306  21.186  0.00  0.00    +0.000 C 
ATOM     15  C   UNL     1       0.581  10.850  21.582  0.00  0.00    +0.000 C 
ATOM     16  C   UNL     1      -0.904  10.483  21.347  0.00  0.00    +0.000 C 
ATOM     17  C   UNL     1      -0.947   9.775  19.992  0.00  0.00    +0.000 C 
ATOM     18  C   UNL     1       0.437  10.062  19.393  0.00  0.00    +0.000 C 
ATOM     19  C   UNL     1       0.442  11.507  18.839  0.00  0.00    +0.000 C 
ATOM     20  C   UNL     1       1.356   9.933  20.626  0.00  0.00    +0.000 C 
ATOM     21  O   UNL     1       2.880  13.922  20.138  0.00  0.00    +0.000 OA
ENDBRANCH   1  20
BRANCH   5  22
ATOM     22  C   UNL     1       2.170   4.145  19.696  0.00  0.00    +0.000 C 
ATOM     23  C   UNL     1       1.791   3.573  21.059  0.00  0.00    +0.000 C 
ATOM     24  C   UNL     1       1.294   3.577  18.581  0.00  0.00    +0.000 C 
ENDBRANCH   5  22
BRANCH   4  25
ATOM     25  O   UNL     1       3.151   6.112  17.581  0.00  0.00    +0.000 OA
BRANCH  25  26
ATOM     26  C   UNL     1       4.498   5.826  17.509  0.00  0.00    +0.000 A 
ATOM     27  C   UNL     1       5.222   5.773  18.704  0.00  0.00    +0.000 A 
ATOM     28  C   UNL     1       6.590   5.489  18.680  0.00  0.00    +0.000 A 
ATOM     29  C   UNL     1       7.227   5.234  17.463  0.00  0.00    +0.000 A 
ATOM     30  C   UNL     1       6.488   5.244  16.280  0.00  0.00    +0.000 A 
ATOM     31 CL   UNL     1       7.259   4.889  14.784  0.00  0.00    +0.000 Cl
ATOM     32  C   UNL     1       5.127   5.532  16.298  0.00  0.00    +0.000 A 
ENDBRANCH  25  26
ENDBRANCH   4  25
TORSDOF 4
ENDMDL
MODEL 9
REMARK VINA RESULT:      -7.5      3.483      8.336
REMARK  Name = 
REMARK  7 active torsions:
REMARK  status: ('A' for Active; 'I' for Inactive)
REMARK    1  A    between atoms: C_1  and  C_2
REMARK    2  A    between atoms: C_13  and  N_14
REMARK    3  A    between atoms: C_17  and  O_18
REMARK    4  A    between atoms: O_18  and  C_19
REMARK    5  A    between atoms: N_26  and  C_27
REMARK    6  A    between atoms: C_27  and  C_28
REMARK    7  A    between atoms: C_27  and  C_29
REMARK                            x       y       z     vdW  Elec       q    Type
REMARK                         _______ _______ _______ _____ _____    ______ ____
ROOT
ATOM      1  N   UNL     1       1.468   8.807  20.111  0.00  0.00    +0.000 N 
ATOM      2  C   UNL     1       2.073   8.005  19.230  0.00  0.00    +0.000 A 
ATOM      3  N   UNL     1       2.802   8.501  18.188  0.00  0.00    +0.000 NA
ATOM      4  C   UNL     1       3.210   7.422  17.561  0.00  0.00    +0.000 A 
ATOM      5  N   UNL     1       2.759   6.316  18.221  0.00  0.00    +0.000 N 
ATOM      6  N   UNL     1       2.018   6.677  19.292  0.00  0.00    +0.000 NA
ATOM      7  H   UNL     1       0.809   8.362  20.735  0.00  0.00    +0.000 HD
ENDROOT
BRANCH   1  20
ATOM      8  C   UNL     1       4.786  15.705  20.049  0.00  0.00    +0.000 C 
ATOM      9  C   UNL     1       3.751  14.910  19.370  0.00  0.00    +0.000 A 
ATOM     10  N   UNL     1       3.570  14.689  18.088  0.00  0.00    +0.000 NA
ATOM     11  N   UNL     1       2.459  13.879  17.998  0.00  0.00    +0.000 NA
ATOM     12  C   UNL     1       2.048  13.644  19.229  0.00  0.00    +0.000 A 
ATOM     13  N   UNL     1       1.019  12.877  19.669  0.00  0.00    +0.000 N 
ATOM     14  C   UNL     1       0.973  12.428  21.063  0.00  0.00    +0.000 C 
ATOM     15  C   UNL     1       0.722  10.914  21.163  0.00  0.00    +0.000 C 
ATOM     16  C   UNL     1      -0.780  10.566  21.038  0.00  0.00    +0.000 C 
ATOM     17  C   UNL     1      -0.995  10.171  19.576  0.00  0.00    +0.000 C 
ATOM     18  C   UNL     1       0.303  10.619  18.889  0.00  0.00    +0.000 C 
ATOM     19  C   UNL     1       0.238  12.150  18.670  0.00  0.00    +0.000 C 
ATOM     20  C   UNL     1       1.370  10.249  19.941  0.00  0.00    +0.000 C 
ATOM     21  O   UNL     1       2.823  14.289  20.158  0.00  0.00    +0.000 OA
ENDBRANCH   1  20
BRANCH   5  22
ATOM     22  C   UNL     1       2.866   4.908  17.875  0.00  0.00    +0.000 C 
ATOM     23  C   UNL     1       3.767   4.150  18.847  0.00  0.00    +0.000 C 
ATOM     24  C   UNL     1       1.510   4.226  17.713  0.00  0.00    +0.000 C 
ENDBRANCH   5  22
BRANCH   4  25
ATOM     25  O   UNL     1       3.947   7.377  16.448  0.00  0.00    +0.000 OA
BRANCH  25  26
ATOM     26  C   UNL     1       5.055   6.559  16.390  0.00  0.00    +0.000 A 
ATOM     27  C   UNL     1       5.992   6.650  17.424  0.00  0.00    +0.000 A 
ATOM     28  C   UNL     1       7.133   5.842  17.407  0.00  0.00    +0.000 A 
ATOM     29  C   UNL     1       7.322   4.928  16.368  0.00  0.00    +0.000 A 
ATOM     30  C   UNL     1       6.361   4.811  15.365  0.00  0.00    +0.000 A 
ATOM     31 CL   UNL     1       6.569   3.657  14.106  0.00  0.00    +0.000 Cl
ATOM     32  C   UNL     1       5.226   5.617  15.373  0.00  0.00    +0.000 A 
ENDBRANCH  25  26
ENDBRANCH   4  25
TORSDOF 4
ENDMDL
