MODEL 1
REMARK VINA RESULT:      -7.4      0.000      0.000
REMARK  Name = 
REMARK  5 active torsions:
REMARK  status: ('A' for Active; 'I' for Inactive)
REMARK    1  A    between atoms: C_1  and  N_2
REMARK    2  A    between atoms: N_7  and  C_8
REMARK    3  A    between atoms: C_8  and  C_9
REMARK    4  A    between atoms: N_11  and  C_12
REMARK    5  A    between atoms: C_17  and  O_18
REMARK                            x       y       z     vdW  Elec       q    Type
REMARK                         _______ _______ _______ _____ _____    ______ ____
ROOT
ATOM      1  C   UNL     1       5.119   6.025  16.075  0.00  0.00    +0.000 C 
ATOM      2  O   UNL     1       4.981   6.986  15.319  0.00  0.00    +0.000 OA
ATOM      3  N   UNL     1       5.494   4.750  15.708  0.00  0.00    +0.000 N 
ATOM      4  H   UNL     1       5.040   3.984  16.203  0.00  0.00    +0.000 HD
ENDROOT
BRANCH   3   5
ATOM      5  C   UNL     1       5.897   4.440  14.403  0.00  0.00    +0.000 A 
ATOM      6  N   UNL     1       5.119   3.678  13.607  0.00  0.00    +0.000 NA
ATOM      7  C   UNL     1       5.600   3.387  12.378  0.00  0.00    +0.000 A 
ATOM      8  C   UNL     1       6.831   3.816  11.905  0.00  0.00    +0.000 A 
ATOM      9  C   UNL     1       7.613   4.619  12.730  0.00  0.00    +0.000 A 
ATOM     10  C   UNL     1       7.129   4.948  13.989  0.00  0.00    +0.000 A 
BRANCH  10  11
ATOM     11  O   UNL     1       7.866   5.708  14.856  0.00  0.00    +0.000 OA
ATOM     12  H   UNL     1       8.594   6.118  14.360  0.00  0.00    +0.000 HD
ENDBRANCH  10  11
ENDBRANCH   3   5
BRANCH   1  13
ATOM     13  C   UNL     1       4.739   6.133  17.548  0.00  0.00    +0.000 C 
BRANCH  13  20
ATOM     14  C   UNL     1       4.456   2.085  20.222  0.00  0.00    +0.000 C 
ATOM     15  N   UNL     1       3.832   3.002  19.291  0.00  0.00    +0.000 N 
ATOM     16  C   UNL     1       2.491   2.836  18.992  0.00  0.00    +0.000 A 
ATOM     17  O   UNL     1       1.783   1.923  19.404  0.00  0.00    +0.000 OA
ATOM     18  C   UNL     1       1.892   3.860  18.117  0.00  0.00    +0.000 A 
ATOM     19  C   UNL     1       2.641   4.874  17.684  0.00  0.00    +0.000 A 
ATOM     20  N   UNL     1       3.973   4.971  18.004  0.00  0.00    +0.000 N 
ATOM     21  C   UNL     1       4.637   3.999  18.742  0.00  0.00    +0.000 A 
ATOM     22  O   UNL     1       5.861   4.035  18.907  0.00  0.00    +0.000 OA
ENDBRANCH  13  20
ENDBRANCH   1  13
TORSDOF 4
ENDMDL
MODEL 2
REMARK VINA RESULT:      -7.2      1.219      1.515
REMARK  Name = 
REMARK  5 active torsions:
REMARK  status: ('A' for Active; 'I' for Inactive)
REMARK    1  A    between atoms: C_1  and  N_2
REMARK    2  A    between atoms: N_7  and  C_8
REMARK    3  A    between atoms: C_8  and  C_9
REMARK    4  A    between atoms: N_11  and  C_12
REMARK    5  A    between atoms: C_17  and  O_18
REMARK                            x       y       z     vdW  Elec       q    Type
REMARK                         _______ _______ _______ _____ _____    ______ ____
ROOT
ATOM      1  C   UNL     1       5.566   6.233  16.246  0.00  0.00    +0.000 C 
ATOM      2  O   UNL     1       5.033   7.001  15.447  0.00  0.00    +0.000 OA
ATOM      3  N   UNL     1       6.358   5.149  15.928  0.00  0.00    +0.000 N 
ATOM      4  H   UNL     1       6.252   4.323  16.513  0.00  0.00    +0.000 HD
ENDROOT
BRANCH   3   5
ATOM      5  C   UNL     1       6.759   4.882  14.613  0.00  0.00    +0.000 A 
ATOM      6  N   UNL     1       7.825   5.514  14.079  0.00  0.00    +0.000 NA
ATOM      7  C   UNL     1       8.120   5.235  12.790  0.00  0.00    +0.000 A 
ATOM      8  C   UNL     1       7.393   4.355  12.001  0.00  0.00    +0.000 A 
ATOM      9  C   UNL     1       6.309   3.696  12.572  0.00  0.00    +0.000 A 
ATOM     10  C   UNL     1       6.001   3.952  13.901  0.00  0.00    +0.000 A 
BRANCH  10  11
ATOM     11  O   UNL     1       4.928   3.357  14.508  0.00  0.00    +0.000 OA
ATOM     12  H   UNL     1       4.618   3.940  15.220  0.00  0.00    +0.000 HD
ENDBRANCH  10  11
ENDBRANCH   3   5
BRANCH   1  13
ATOM     13  C   UNL     1       5.272   6.337  17.739  0.00  0.00    +0.000 C 
BRANCH  13  20
ATOM     14  C   UNL     1       4.364   2.281  20.258  0.00  0.00    +0.000 C 
ATOM     15  N   UNL     1       3.880   3.340  19.397  0.00  0.00    +0.000 N 
ATOM     16  C   UNL     1       2.520   3.435  19.159  0.00  0.00    +0.000 A 
ATOM     17  O   UNL     1       1.674   2.646  19.568  0.00  0.00    +0.000 OA
ATOM     18  C   UNL     1       2.082   4.592  18.357  0.00  0.00    +0.000 A 
ATOM     19  C   UNL     1       2.986   5.473  17.929  0.00  0.00    +0.000 A 
ATOM     20  N   UNL     1       4.326   5.312  18.185  0.00  0.00    +0.000 N 
ATOM     21  C   UNL     1       4.831   4.200  18.849  0.00  0.00    +0.000 A 
ATOM     22  O   UNL     1       6.046   4.006  18.953  0.00  0.00    +0.000 OA
ENDBRANCH  13  20
ENDBRANCH   1  13
TORSDOF 4
ENDMDL
MODEL 3
REMARK VINA RESULT:      -7.0      1.737      2.236
REMARK  Name = 
REMARK  5 active torsions:
REMARK  status: ('A' for Active; 'I' for Inactive)
REMARK    1  A    between atoms: C_1  and  N_2
REMARK    2  A    between atoms: N_7  and  C_8
REMARK    3  A    between atoms: C_8  and  C_9
REMARK    4  A    between atoms: N_11  and  C_12
REMARK    5  A    between atoms: C_17  and  O_18
REMARK                            x       y       z     vdW  Elec       q    Type
REMARK                         _______ _______ _______ _____ _____    ______ ____
ROOT
ATOM      1  C   UNL     1       7.016   5.132  16.986  0.00  0.00    +0.000 C 
ATOM      2  O   UNL     1       7.947   4.330  17.043  0.00  0.00    +0.000 OA
ATOM      3  N   UNL     1       6.424   5.609  15.836  0.00  0.00    +0.000 N 
ATOM      4  H   UNL     1       6.143   6.588  15.843  0.00  0.00    +0.000 HD
ENDROOT
BRANCH   3   5
ATOM      5  C   UNL     1       6.750   5.107  14.569  0.00  0.00    +0.000 A 
ATOM      6  N   UNL     1       7.798   5.608  13.881  0.00  0.00    +0.000 NA
ATOM      7  C   UNL     1       8.018   5.101  12.648  0.00  0.00    +0.000 A 
ATOM      8  C   UNL     1       7.234   4.118  12.061  0.00  0.00    +0.000 A 
ATOM      9  C   UNL     1       6.170   3.597  12.792  0.00  0.00    +0.000 A 
ATOM     10  C   UNL     1       5.938   4.088  14.069  0.00  0.00    +0.000 A 
BRANCH  10  11
ATOM     11  O   UNL     1       4.889   3.636  14.823  0.00  0.00    +0.000 OA
ATOM     12  H   UNL     1       5.087   3.810  15.757  0.00  0.00    +0.000 HD
ENDBRANCH  10  11
ENDBRANCH   3   5
BRANCH   1  13
ATOM     13  C   UNL     1       6.494   5.810  18.248  0.00  0.00    +0.000 C 
BRANCH  13  20
ATOM     14  C   UNL     1       3.121   3.043  20.389  0.00  0.00    +0.000 C 
ATOM     15  N   UNL     1       3.443   4.156  19.522  0.00  0.00    +0.000 N 
ATOM     16  C   UNL     1       2.418   4.980  19.089  0.00  0.00    +0.000 A 
ATOM     17  O   UNL     1       1.226   4.809  19.325  0.00  0.00    +0.000 OA
ATOM     18  C   UNL     1       2.823   6.152  18.291  0.00  0.00    +0.000 A 
ATOM     19  C   UNL     1       4.115   6.367  18.050  0.00  0.00    +0.000 A 
ATOM     20  N   UNL     1       5.084   5.501  18.494  0.00  0.00    +0.000 N 
ATOM     21  C   UNL     1       4.781   4.323  19.168  0.00  0.00    +0.000 A 
ATOM     22  O   UNL     1       5.653   3.492  19.442  0.00  0.00    +0.000 OA
ENDBRANCH  13  20
ENDBRANCH   1  13
TORSDOF 4
ENDMDL
MODEL 4
REMARK VINA RESULT:      -7.0      1.424      1.723
REMARK  Name = 
REMARK  5 active torsions:
REMARK  status: ('A' for Active; 'I' for Inactive)
REMARK    1  A    between atoms: C_1  and  N_2
REMARK    2  A    between atoms: N_7  and  C_8
REMARK    3  A    between atoms: C_8  and  C_9
REMARK    4  A    between atoms: N_11  and  C_12
REMARK    5  A    between atoms: C_17  and  O_18
REMARK                            x       y       z     vdW  Elec       q    Type
REMARK                         _______ _______ _______ _____ _____    ______ ____
ROOT
ATOM      1  C   UNL     1       5.388   4.725  16.572  0.00  0.00    +0.000 C 
ATOM      2  O   UNL     1       4.794   5.702  16.118  0.00  0.00    +0.000 OA
ATOM      3  N   UNL     1       6.129   3.816  15.847  0.00  0.00    +0.000 N 
ATOM      4  H   UNL     1       6.066   2.842  16.141  0.00  0.00    +0.000 HD
ENDROOT
BRANCH   3   5
ATOM      5  C   UNL     1       6.399   3.995  14.484  0.00  0.00    +0.000 A 
ATOM      6  N   UNL     1       5.827   3.194  13.560  0.00  0.00    +0.000 NA
ATOM      7  C   UNL     1       6.174   3.403  12.271  0.00  0.00    +0.000 A 
ATOM      8  C   UNL     1       7.075   4.373  11.857  0.00  0.00    +0.000 A 
ATOM      9  C   UNL     1       7.640   5.205  12.820  0.00  0.00    +0.000 A 
ATOM     10  C   UNL     1       7.281   5.022  14.148  0.00  0.00    +0.000 A 
BRANCH  10  11
ATOM     11  O   UNL     1       7.827   5.788  15.142  0.00  0.00    +0.000 OA
ATOM     12  H   UNL     1       8.241   6.567  14.735  0.00  0.00    +0.000 HD
ENDBRANCH  10  11
ENDBRANCH   3   5
BRANCH   1  13
ATOM     13  C   UNL     1       5.239   4.336  18.039  0.00  0.00    +0.000 C 
BRANCH  13  20
ATOM     14  C   UNL     1       0.959   4.467  20.338  0.00  0.00    +0.000 C 
ATOM     15  N   UNL     1       1.861   3.782  19.436  0.00  0.00    +0.000 N 
ATOM     16  C   UNL     1       1.401   2.671  18.752  0.00  0.00    +0.000 A 
ATOM     17  O   UNL     1       0.293   2.163  18.891  0.00  0.00    +0.000 OA
ATOM     18  C   UNL     1       2.334   2.078  17.776  0.00  0.00    +0.000 A 
ATOM     19  C   UNL     1       3.531   2.635  17.592  0.00  0.00    +0.000 A 
ATOM     20  N   UNL     1       3.935   3.729  18.317  0.00  0.00    +0.000 N 
ATOM     21  C   UNL     1       3.155   4.288  19.323  0.00  0.00    +0.000 A 
ATOM     22  O   UNL     1       3.588   5.185  20.054  0.00  0.00    +0.000 OA
ENDBRANCH  13  20
ENDBRANCH   1  13
TORSDOF 4
ENDMDL
MODEL 5
REMARK VINA RESULT:      -6.9      1.706      2.557
REMARK  Name = 
REMARK  5 active torsions:
REMARK  status: ('A' for Active; 'I' for Inactive)
REMARK    1  A    between atoms: C_1  and  N_2
REMARK    2  A    between atoms: N_7  and  C_8
REMARK    3  A    between atoms: C_8  and  C_9
REMARK    4  A    between atoms: N_11  and  C_12
REMARK    5  A    between atoms: C_17  and  O_18
REMARK                            x       y       z     vdW  Elec       q    Type
REMARK                         _______ _______ _______ _____ _____    ______ ____
ROOT
ATOM      1  C   UNL     1       6.938   4.837  17.074  0.00  0.00    +0.000 C 
ATOM      2  O   UNL     1       8.000   4.217  17.091  0.00  0.00    +0.000 OA
ATOM      3  N   UNL     1       6.280   5.291  15.950  0.00  0.00    +0.000 N 
ATOM      4  H   UNL     1       5.823   6.198  16.027  0.00  0.00    +0.000 HD
ENDROOT
BRANCH   3   5
ATOM      5  C   UNL     1       6.706   4.964  14.656  0.00  0.00    +0.000 A 
ATOM      6  N   UNL     1       7.793   5.558  14.121  0.00  0.00    +0.000 NA
ATOM      7  C   UNL     1       8.112   5.221  12.852  0.00  0.00    +0.000 A 
ATOM      8  C   UNL     1       7.390   4.319  12.083  0.00  0.00    +0.000 A 
ATOM      9  C   UNL     1       6.284   3.699  12.657  0.00  0.00    +0.000 A 
ATOM     10  C   UNL     1       5.951   4.015  13.967  0.00  0.00    +0.000 A 
BRANCH  10  11
ATOM     11  O   UNL     1       4.856   3.460  14.574  0.00  0.00    +0.000 OA
ATOM     12  H   UNL     1       5.127   2.623  14.985  0.00  0.00    +0.000 HD
ENDBRANCH  10  11
ENDBRANCH   3   5
BRANCH   1  13
ATOM     13  C   UNL     1       6.286   5.301  18.372  0.00  0.00    +0.000 C 
BRANCH  13  20
ATOM     14  C   UNL     1       1.547   4.458  17.703  0.00  0.00    +0.000 C 
ATOM     15  N   UNL     1       2.783   4.120  18.377  0.00  0.00    +0.000 N 
ATOM     16  C   UNL     1       2.820   2.987  19.171  0.00  0.00    +0.000 A 
ATOM     17  O   UNL     1       1.860   2.262  19.413  0.00  0.00    +0.000 OA
ATOM     18  C   UNL     1       4.132   2.643  19.748  0.00  0.00    +0.000 A 
ATOM     19  C   UNL     1       5.190   3.404  19.472  0.00  0.00    +0.000 A 
ATOM     20  N   UNL     1       5.084   4.528  18.690  0.00  0.00    +0.000 N 
ATOM     21  C   UNL     1       3.867   4.976  18.187  0.00  0.00    +0.000 A 
ATOM     22  O   UNL     1       3.769   6.058  17.599  0.00  0.00    +0.000 OA
ENDBRANCH  13  20
ENDBRANCH   1  13
TORSDOF 4
ENDMDL
MODEL 6
REMARK VINA RESULT:      -6.9      3.092      6.374
REMARK  Name = 
REMARK  5 active torsions:
REMARK  status: ('A' for Active; 'I' for Inactive)
REMARK    1  A    between atoms: C_1  and  N_2
REMARK    2  A    between atoms: N_7  and  C_8
REMARK    3  A    between atoms: C_8  and  C_9
REMARK    4  A    between atoms: N_11  and  C_12
REMARK    5  A    between atoms: C_17  and  O_18
REMARK                            x       y       z     vdW  Elec       q    Type
REMARK                         _______ _______ _______ _____ _____    ______ ____
ROOT
ATOM      1  C   UNL     1       2.439   4.973  19.266  0.00  0.00    +0.000 C 
ATOM      2  O   UNL     1       1.287   4.790  18.876  0.00  0.00    +0.000 OA
ATOM      3  N   UNL     1       2.979   6.177  19.668  0.00  0.00    +0.000 N 
ATOM      4  H   UNL     1       3.949   6.348  19.408  0.00  0.00    +0.000 HD
ENDROOT
BRANCH   3   5
ATOM      5  C   UNL     1       2.200   7.333  19.801  0.00  0.00    +0.000 A 
ATOM      6  N   UNL     1       1.499   7.562  20.932  0.00  0.00    +0.000 NA
ATOM      7  C   UNL     1       0.737   8.677  20.964  0.00  0.00    +0.000 A 
ATOM      8  C   UNL     1       0.635   9.578  19.915  0.00  0.00    +0.000 A 
ATOM      9  C   UNL     1       1.380   9.340  18.763  0.00  0.00    +0.000 A 
ATOM     10  C   UNL     1       2.186   8.211  18.717  0.00  0.00    +0.000 A 
BRANCH  10  11
ATOM     11  O   UNL     1       2.918   7.908  17.600  0.00  0.00    +0.000 OA
ATOM     12  H   UNL     1       3.745   7.485  17.883  0.00  0.00    +0.000 HD
ENDBRANCH  10  11
ENDBRANCH   3   5
BRANCH   1  13
ATOM     13  C   UNL     1       3.468   3.849  19.211  0.00  0.00    +0.000 C 
BRANCH  13  20
ATOM     14  C   UNL     1       8.094   4.926  18.184  0.00  0.00    +0.000 C 
ATOM     15  N   UNL     1       6.755   4.641  17.715  0.00  0.00    +0.000 N 
ATOM     16  C   UNL     1       6.547   4.470  16.358  0.00  0.00    +0.000 A 
ATOM     17  O   UNL     1       7.403   4.604  15.490  0.00  0.00    +0.000 OA
ATOM     18  C   UNL     1       5.182   4.084  15.955  0.00  0.00    +0.000 A 
ATOM     19  C   UNL     1       4.248   3.907  16.888  0.00  0.00    +0.000 A 
ATOM     20  N   UNL     1       4.514   4.109  18.220  0.00  0.00    +0.000 N 
ATOM     21  C   UNL     1       5.746   4.567  18.675  0.00  0.00    +0.000 A 
ATOM     22  O   UNL     1       5.926   4.872  19.858  0.00  0.00    +0.000 OA
ENDBRANCH  13  20
ENDBRANCH   1  13
TORSDOF 4
ENDMDL
MODEL 7
REMARK VINA RESULT:      -6.9      3.291      6.380
REMARK  Name = 
REMARK  5 active torsions:
REMARK  status: ('A' for Active; 'I' for Inactive)
REMARK    1  A    between atoms: C_1  and  N_2
REMARK    2  A    between atoms: N_7  and  C_8
REMARK    3  A    between atoms: C_8  and  C_9
REMARK    4  A    between atoms: N_11  and  C_12
REMARK    5  A    between atoms: C_17  and  O_18
REMARK                            x       y       z     vdW  Elec       q    Type
REMARK                         _______ _______ _______ _____ _____    ______ ____
ROOT
ATOM      1  C   UNL     1       2.381   5.249  18.724  0.00  0.00    +0.000 C 
ATOM      2  O   UNL     1       1.264   5.069  18.242  0.00  0.00    +0.000 OA
ATOM      3  N   UNL     1       2.931   6.466  19.068  0.00  0.00    +0.000 N 
ATOM      4  H   UNL     1       3.927   6.580  18.889  0.00  0.00    +0.000 HD
ENDROOT
BRANCH   3   5
ATOM      5  C   UNL     1       2.193   7.655  19.024  0.00  0.00    +0.000 A 
ATOM      6  N   UNL     1       2.064   8.340  17.868  0.00  0.00    +0.000 NA
ATOM      7  C   UNL     1       1.374   9.501  17.918  0.00  0.00    +0.000 A 
ATOM      8  C   UNL     1       0.809  10.018  19.074  0.00  0.00    +0.000 A 
ATOM      9  C   UNL     1       0.931   9.290  20.254  0.00  0.00    +0.000 A 
ATOM     10  C   UNL     1       1.618   8.084  20.221  0.00  0.00    +0.000 A 
BRANCH  10  11
ATOM     11  O   UNL     1       1.798   7.339  21.355  0.00  0.00    +0.000 OA
ATOM     12  H   UNL     1       1.082   6.685  21.407  0.00  0.00    +0.000 HD
ENDBRANCH  10  11
ENDBRANCH   3   5
BRANCH   1  13
ATOM     13  C   UNL     1       3.362   4.090  18.868  0.00  0.00    +0.000 C 
BRANCH  13  20
ATOM     14  C   UNL     1       8.080   5.189  18.485  0.00  0.00    +0.000 C 
ATOM     15  N   UNL     1       6.839   4.814  17.842  0.00  0.00    +0.000 N 
ATOM     16  C   UNL     1       6.859   4.488  16.497  0.00  0.00    +0.000 A 
ATOM     17  O   UNL     1       7.844   4.553  15.768  0.00  0.00    +0.000 OA
ATOM     18  C   UNL     1       5.583   4.019  15.925  0.00  0.00    +0.000 A 
ATOM     19  C   UNL     1       4.511   3.916  16.710  0.00  0.00    +0.000 A 
ATOM     20  N   UNL     1       4.553   4.272  18.036  0.00  0.00    +0.000 N 
ATOM     21  C   UNL     1       5.688   4.815  18.628  0.00  0.00    +0.000 A 
ATOM     22  O   UNL     1       5.668   5.253  19.783  0.00  0.00    +0.000 OA
ENDBRANCH  13  20
ENDBRANCH   1  13
TORSDOF 4
ENDMDL
MODEL 8
REMARK VINA RESULT:      -6.8      3.088      3.897
REMARK  Name = 
REMARK  5 active torsions:
REMARK  status: ('A' for Active; 'I' for Inactive)
REMARK    1  A    between atoms: C_1  and  N_2
REMARK    2  A    between atoms: N_7  and  C_8
REMARK    3  A    between atoms: C_8  and  C_9
REMARK    4  A    between atoms: N_11  and  C_12
REMARK    5  A    between atoms: C_17  and  O_18
REMARK                            x       y       z     vdW  Elec       q    Type
REMARK                         _______ _______ _______ _____ _____    ______ ____
ROOT
ATOM      1  C   UNL     1       4.073   4.246  16.929  0.00  0.00    +0.000 C 
ATOM      2  O   UNL     1       4.882   3.842  16.095  0.00  0.00    +0.000 OA
ATOM      3  N   UNL     1       4.315   5.187  17.907  0.00  0.00    +0.000 N 
ATOM      4  H   UNL     1       3.872   5.028  18.810  0.00  0.00    +0.000 HD
ENDROOT
BRANCH   3   5
ATOM      5  C   UNL     1       5.518   5.903  17.968  0.00  0.00    +0.000 A 
ATOM      6  N   UNL     1       5.708   6.993  17.195  0.00  0.00    +0.000 NA
ATOM      7  C   UNL     1       6.912   7.600  17.280  0.00  0.00    +0.000 A 
ATOM      8  C   UNL     1       7.944   7.167  18.099  0.00  0.00    +0.000 A 
ATOM      9  C   UNL     1       7.726   6.054  18.906  0.00  0.00    +0.000 A 
ATOM     10  C   UNL     1       6.489   5.427  18.850  0.00  0.00    +0.000 A 
BRANCH  10  11
ATOM     11  O   UNL     1       6.225   4.310  19.597  0.00  0.00    +0.000 OA
ATOM     12  H   UNL     1       6.125   3.556  18.994  0.00  0.00    +0.000 HD
ENDBRANCH  10  11
ENDBRANCH   3   5
BRANCH   1  13
ATOM     13  C   UNL     1       2.692   3.609  17.046  0.00  0.00    +0.000 C 
BRANCH  13  20
ATOM     14  C   UNL     1       3.926   1.804  21.386  0.00  0.00    +0.000 C 
ATOM     15  N   UNL     1       2.930   2.428  20.541  0.00  0.00    +0.000 N 
ATOM     16  C   UNL     1       1.747   2.860  21.115  0.00  0.00    +0.000 A 
ATOM     17  O   UNL     1       1.432   2.701  22.290  0.00  0.00    +0.000 OA
ATOM     18  C   UNL     1       0.817   3.575  20.221  0.00  0.00    +0.000 A 
ATOM     19  C   UNL     1       1.157   3.781  18.949  0.00  0.00    +0.000 A 
ATOM     20  N   UNL     1       2.341   3.310  18.436  0.00  0.00    +0.000 N 
ATOM     21  C   UNL     1       3.227   2.544  19.184  0.00  0.00    +0.000 A 
ATOM     22  O   UNL     1       4.220   2.017  18.670  0.00  0.00    +0.000 OA
ENDBRANCH  13  20
ENDBRANCH   1  13
TORSDOF 4
ENDMDL
MODEL 9
REMARK VINA RESULT:      -6.7      1.499      1.690
REMARK  Name = 
REMARK  5 active torsions:
REMARK  status: ('A' for Active; 'I' for Inactive)
REMARK    1  A    between atoms: C_1  and  N_2
REMARK    2  A    between atoms: N_7  and  C_8
REMARK    3  A    between atoms: C_8  and  C_9
REMARK    4  A    between atoms: N_11  and  C_12
REMARK    5  A    between atoms: C_17  and  O_18
REMARK                            x       y       z     vdW  Elec       q    Type
REMARK                         _______ _______ _______ _____ _____    ______ ____
ROOT
ATOM      1  C   UNL     1       5.616   4.850  16.698  0.00  0.00    +0.000 C 
ATOM      2  O   UNL     1       5.010   5.822  16.249  0.00  0.00    +0.000 OA
ATOM      3  N   UNL     1       6.265   3.885  15.957  0.00  0.00    +0.000 N 
ATOM      4  H   UNL     1       6.204   2.930  16.305  0.00  0.00    +0.000 HD
ENDROOT
BRANCH   3   5
ATOM      5  C   UNL     1       6.417   3.990  14.569  0.00  0.00    +0.000 A 
ATOM      6  N   UNL     1       5.742   3.165  13.741  0.00  0.00    +0.000 NA
ATOM      7  C   UNL     1       5.977   3.301  12.417  0.00  0.00    +0.000 A 
ATOM      8  C   UNL     1       6.865   4.220  11.876  0.00  0.00    +0.000 A 
ATOM      9  C   UNL     1       7.538   5.077  12.742  0.00  0.00    +0.000 A 
ATOM     10  C   UNL     1       7.295   4.970  14.104  0.00  0.00    +0.000 A 
BRANCH  10  11
ATOM     11  O   UNL     1       7.950   5.765  15.006  0.00  0.00    +0.000 OA
ATOM     12  H   UNL     1       7.582   6.662  14.946  0.00  0.00    +0.000 HD
ENDBRANCH  10  11
ENDBRANCH   3   5
BRANCH   1  13
ATOM     13  C   UNL     1       5.590   4.537  18.190  0.00  0.00    +0.000 C 
BRANCH  13  20
ATOM     14  C   UNL     1       1.512   1.999  18.929  0.00  0.00    +0.000 C 
ATOM     15  N   UNL     1       2.239   3.244  19.065  0.00  0.00    +0.000 N 
ATOM     16  C   UNL     1       1.680   4.262  19.817  0.00  0.00    +0.000 A 
ATOM     17  O   UNL     1       0.569   4.228  20.338  0.00  0.00    +0.000 OA
ATOM     18  C   UNL     1       2.513   5.465  19.999  0.00  0.00    +0.000 A 
ATOM     19  C   UNL     1       3.732   5.505  19.464  0.00  0.00    +0.000 A 
ATOM     20  N   UNL     1       4.223   4.466  18.712  0.00  0.00    +0.000 N 
ATOM     21  C   UNL     1       3.467   3.339  18.412  0.00  0.00    +0.000 A 
ATOM     22  O   UNL     1       3.874   2.477  17.626  0.00  0.00    +0.000 OA
ENDBRANCH  13  20
ENDBRANCH   1  13
TORSDOF 4
ENDMDL
