MODEL 1
REMARK VINA RESULT:      -7.1      0.000      0.000
REMARK  Name = 
REMARK  4 active torsions:
REMARK  status: ('A' for Active; 'I' for Inactive)
REMARK    1  A    between atoms: C_1  and  O_2
REMARK    2  A    between atoms: O_2  and  C_3
REMARK    3  A    between atoms: C_16  and  O_17
REMARK    4  A    between atoms: O_17  and  C_18
REMARK                            x       y       z     vdW  Elec       q    Type
REMARK                         _______ _______ _______ _____ _____    ______ ____
ROOT
ATOM      1  C   UNL     1       5.852   4.840  18.135  0.00  0.00    +0.000 C 
ATOM      2  C   UNL     1       4.998   5.587  18.850  0.00  0.00    +0.000 C 
ATOM      3  C   UNL     1       3.519   5.676  18.602  0.00  0.00    +0.000 C 
ATOM      4  O   UNL     1       2.844   5.650  19.892  0.00  0.00    +0.000 OA
ATOM      5  C   UNL     1       2.188   6.852  19.998  0.00  0.00    +0.000 A 
ATOM      6  C   UNL     1       1.435   7.224  21.093  0.00  0.00    +0.000 A 
ATOM      7  C   UNL     1       0.823   8.484  21.074  0.00  0.00    +0.000 A 
ATOM      8  C   UNL     1       0.975   9.338  19.965  0.00  0.00    +0.000 A 
ATOM      9 BR   UNL     1       0.134  11.033  19.974  0.00  0.00    +0.000 Br
ATOM     10  C   UNL     1       1.740   8.957  18.863  0.00  0.00    +0.000 A 
ATOM     11  C   UNL     1       2.327   7.709  18.922  0.00  0.00    +0.000 A 
ATOM     12  C   UNL     1       3.182   7.033  17.980  0.00  0.00    +0.000 C 
ATOM     13  O   UNL     1       3.550   7.513  16.923  0.00  0.00    +0.000 OA
ATOM     14  C   UNL     1       2.992   4.572  17.700  0.00  0.00    +0.000 C 
ATOM     15  C   UNL     1       3.833   3.830  16.949  0.00  0.00    +0.000 C 
ATOM     16  C   UNL     1       5.303   4.012  17.007  0.00  0.00    +0.000 C 
ATOM     17  O   UNL     1       5.996   3.448  16.167  0.00  0.00    +0.000 OA
ENDROOT
BRANCH   1  19
ATOM     18  C   UNL     1       7.760   6.072  18.878  0.00  0.00    +0.000 C 
ATOM     19  O   UNL     1       7.183   4.821  18.521  0.00  0.00    +0.000 OA
ENDBRANCH   1  19
BRANCH  14  20
ATOM     20  O   UNL     1       1.616   4.424  17.720  0.00  0.00    +0.000 OA
ATOM     21  C   UNL     1       1.077   3.271  18.360  0.00  0.00    +0.000 C 
ENDBRANCH  14  20
TORSDOF 2
ENDMDL
MODEL 2
REMARK VINA RESULT:      -7.1      3.519      5.926
REMARK  Name = 
REMARK  4 active torsions:
REMARK  status: ('A' for Active; 'I' for Inactive)
REMARK    1  A    between atoms: C_1  and  O_2
REMARK    2  A    between atoms: O_2  and  C_3
REMARK    3  A    between atoms: C_16  and  O_17
REMARK    4  A    between atoms: O_17  and  C_18
REMARK                            x       y       z     vdW  Elec       q    Type
REMARK                         _______ _______ _______ _____ _____    ______ ____
ROOT
ATOM      1  C   UNL     1       3.471   3.192  20.383  0.00  0.00    +0.000 C 
ATOM      2  C   UNL     1       4.346   3.400  19.387  0.00  0.00    +0.000 C 
ATOM      3  C   UNL     1       4.232   4.489  18.357  0.00  0.00    +0.000 C 
ATOM      4  O   UNL     1       5.557   5.057  18.155  0.00  0.00    +0.000 OA
ATOM      5  C   UNL     1       5.874   4.812  16.841  0.00  0.00    +0.000 A 
ATOM      6  C   UNL     1       7.066   5.187  16.254  0.00  0.00    +0.000 A 
ATOM      7  C   UNL     1       7.264   4.869  14.904  0.00  0.00    +0.000 A 
ATOM      8  C   UNL     1       6.269   4.189  14.175  0.00  0.00    +0.000 A 
ATOM      9 BR   UNL     1       6.571   3.776  12.353  0.00  0.00    +0.000 Br
ATOM     10  C   UNL     1       5.069   3.812  14.774  0.00  0.00    +0.000 A 
ATOM     11  C   UNL     1       4.914   4.142  16.106  0.00  0.00    +0.000 A 
ATOM     12  C   UNL     1       3.825   3.884  17.012  0.00  0.00    +0.000 C 
ATOM     13  O   UNL     1       2.814   3.273  16.711  0.00  0.00    +0.000 OA
ATOM     14  C   UNL     1       3.236   5.573  18.735  0.00  0.00    +0.000 C 
ATOM     15  C   UNL     1       2.328   5.371  19.712  0.00  0.00    +0.000 C 
ATOM     16  C   UNL     1       2.291   4.115  20.500  0.00  0.00    +0.000 C 
ATOM     17  O   UNL     1       1.331   3.914  21.235  0.00  0.00    +0.000 OA
ENDROOT
BRANCH   1  19
ATOM     18  C   UNL     1       4.936   1.435  21.072  0.00  0.00    +0.000 C 
ATOM     19  O   UNL     1       3.742   2.178  21.288  0.00  0.00    +0.000 OA
ENDBRANCH   1  19
BRANCH  14  20
ATOM     20  O   UNL     1       3.347   6.736  17.992  0.00  0.00    +0.000 OA
ATOM     21  C   UNL     1       2.401   7.774  18.229  0.00  0.00    +0.000 C 
ENDBRANCH  14  20
TORSDOF 2
ENDMDL
MODEL 3
REMARK VINA RESULT:      -6.9      2.996      4.549
REMARK  Name = 
REMARK  4 active torsions:
REMARK  status: ('A' for Active; 'I' for Inactive)
REMARK    1  A    between atoms: C_1  and  O_2
REMARK    2  A    between atoms: O_2  and  C_3
REMARK    3  A    between atoms: C_16  and  O_17
REMARK    4  A    between atoms: O_17  and  C_18
REMARK                            x       y       z     vdW  Elec       q    Type
REMARK                         _______ _______ _______ _____ _____    ______ ____
ROOT
ATOM      1  C   UNL     1       6.000   4.268  15.649  0.00  0.00    +0.000 C 
ATOM      2  C   UNL     1       4.923   3.905  16.362  0.00  0.00    +0.000 C 
ATOM      3  C   UNL     1       4.292   4.732  17.446  0.00  0.00    +0.000 C 
ATOM      4  O   UNL     1       2.846   4.645  17.293  0.00  0.00    +0.000 OA
ATOM      5  C   UNL     1       2.381   4.055  18.443  0.00  0.00    +0.000 A 
ATOM      6  C   UNL     1       1.050   3.781  18.684  0.00  0.00    +0.000 A 
ATOM      7  C   UNL     1       0.713   3.169  19.898  0.00  0.00    +0.000 A 
ATOM      8  C   UNL     1       1.709   2.848  20.840  0.00  0.00    +0.000 A 
ATOM      9 BR   UNL     1       1.217   2.021  22.469  0.00  0.00    +0.000 Br
ATOM     10  C   UNL     1       3.052   3.124  20.589  0.00  0.00    +0.000 A 
ATOM     11  C   UNL     1       3.343   3.727  19.381  0.00  0.00    +0.000 A 
ATOM     12  C   UNL     1       4.606   4.119  18.812  0.00  0.00    +0.000 C 
ATOM     13  O   UNL     1       5.684   3.944  19.352  0.00  0.00    +0.000 OA
ATOM     14  C   UNL     1       4.745   6.183  17.437  0.00  0.00    +0.000 C 
ATOM     15  C   UNL     1       5.843   6.563  16.752  0.00  0.00    +0.000 C 
ATOM     16  C   UNL     1       6.625   5.605  15.933  0.00  0.00    +0.000 C 
ATOM     17  O   UNL     1       7.713   5.963  15.494  0.00  0.00    +0.000 OA
ENDROOT
BRANCH   1  19
ATOM     18  C   UNL     1       6.092   3.780  13.312  0.00  0.00    +0.000 C 
ATOM     19  O   UNL     1       6.434   3.418  14.645  0.00  0.00    +0.000 OA
ENDBRANCH   1  19
BRANCH  14  20
ATOM     20  O   UNL     1       3.951   7.034  18.186  0.00  0.00    +0.000 OA
ATOM     21  C   UNL     1       3.117   7.955  17.490  0.00  0.00    +0.000 C 
ENDBRANCH  14  20
TORSDOF 2
ENDMDL
MODEL 4
REMARK VINA RESULT:      -6.5      1.660      3.740
REMARK  Name = 
REMARK  4 active torsions:
REMARK  status: ('A' for Active; 'I' for Inactive)
REMARK    1  A    between atoms: C_1  and  O_2
REMARK    2  A    between atoms: O_2  and  C_3
REMARK    3  A    between atoms: C_16  and  O_17
REMARK    4  A    between atoms: O_17  and  C_18
REMARK                            x       y       z     vdW  Elec       q    Type
REMARK                         _______ _______ _______ _____ _____    ______ ____
ROOT
ATOM      1  C   UNL     1       2.704   2.881  18.564  0.00  0.00    +0.000 C 
ATOM      2  C   UNL     1       2.337   4.161  18.398  0.00  0.00    +0.000 C 
ATOM      3  C   UNL     1       3.158   5.350  18.811  0.00  0.00    +0.000 C 
ATOM      4  O   UNL     1       3.074   6.344  17.751  0.00  0.00    +0.000 OA
ATOM      5  C   UNL     1       2.476   7.445  18.314  0.00  0.00    +0.000 A 
ATOM      6  C   UNL     1       2.203   8.610  17.626  0.00  0.00    +0.000 A 
ATOM      7  C   UNL     1       1.582   9.656  18.320  0.00  0.00    +0.000 A 
ATOM      8  C   UNL     1       1.253   9.515  19.682  0.00  0.00    +0.000 A 
ATOM      9 BR   UNL     1       0.415  10.949  20.589  0.00  0.00    +0.000 Br
ATOM     10  C   UNL     1       1.529   8.336  20.371  0.00  0.00    +0.000 A 
ATOM     11  C   UNL     1       2.140   7.329  19.650  0.00  0.00    +0.000 A 
ATOM     12  C   UNL     1       2.534   6.002  20.047  0.00  0.00    +0.000 C 
ATOM     13  O   UNL     1       2.354   5.538  21.159  0.00  0.00    +0.000 OA
ATOM     14  C   UNL     1       4.608   5.006  19.110  0.00  0.00    +0.000 C 
ATOM     15  C   UNL     1       4.991   3.728  19.312  0.00  0.00    +0.000 C 
ATOM     16  C   UNL     1       4.038   2.598  19.196  0.00  0.00    +0.000 C 
ATOM     17  O   UNL     1       4.397   1.489  19.577  0.00  0.00    +0.000 OA
ENDROOT
BRANCH   1  19
ATOM     18  C   UNL     1       0.542   1.864  18.618  0.00  0.00    +0.000 C 
ATOM     19  O   UNL     1       1.860   1.893  18.082  0.00  0.00    +0.000 OA
ENDBRANCH   1  19
BRANCH  14  20
ATOM     20  O   UNL     1       5.455   6.099  19.164  0.00  0.00    +0.000 OA
ATOM     21  C   UNL     1       6.794   5.930  18.708  0.00  0.00    +0.000 C 
ENDBRANCH  14  20
TORSDOF 2
ENDMDL
MODEL 5
REMARK VINA RESULT:      -5.9      4.152      7.354
REMARK  Name = 
REMARK  4 active torsions:
REMARK  status: ('A' for Active; 'I' for Inactive)
REMARK    1  A    between atoms: C_1  and  O_2
REMARK    2  A    between atoms: O_2  and  C_3
REMARK    3  A    between atoms: C_16  and  O_17
REMARK    4  A    between atoms: O_17  and  C_18
REMARK                            x       y       z     vdW  Elec       q    Type
REMARK                         _______ _______ _______ _____ _____    ______ ____
ROOT
ATOM      1  C   UNL     1       0.704  13.046  19.787  0.00  0.00    +0.000 C 
ATOM      2  C   UNL     1       1.345  11.906  19.489  0.00  0.00    +0.000 C 
ATOM      3  C   UNL     1       0.684  10.661  18.968  0.00  0.00    +0.000 C 
ATOM      4  O   UNL     1       1.526  10.112  17.914  0.00  0.00    +0.000 OA
ATOM      5  C   UNL     1       1.922   8.874  18.356  0.00  0.00    +0.000 A 
ATOM      6  C   UNL     1       2.749   8.029  17.642  0.00  0.00    +0.000 A 
ATOM      7  C   UNL     1       3.081   6.794  18.213  0.00  0.00    +0.000 A 
ATOM      8  C   UNL     1       2.578   6.431  19.477  0.00  0.00    +0.000 A 
ATOM      9 BR   UNL     1       3.047   4.754  20.217  0.00  0.00    +0.000 Br
ATOM     10  C   UNL     1       1.746   7.289  20.194  0.00  0.00    +0.000 A 
ATOM     11  C   UNL     1       1.444   8.497  19.597  0.00  0.00    +0.000 A 
ATOM     12  C   UNL     1       0.646   9.599  20.069  0.00  0.00    +0.000 C 
ATOM     13  O   UNL     1       0.095   9.629  21.155  0.00  0.00    +0.000 OA
ATOM     14  C   UNL     1      -0.728  10.896  18.457  0.00  0.00    +0.000 C 
ATOM     15  C   UNL     1      -1.400  12.023  18.772  0.00  0.00    +0.000 C 
ATOM     16  C   UNL     1      -0.783  13.105  19.578  0.00  0.00    +0.000 C 
ATOM     17  O   UNL     1      -1.501  14.008  19.991  0.00  0.00    +0.000 OA
ENDROOT
BRANCH   1  19
ATOM     18  C   UNL     1       2.687  13.830  20.866  0.00  0.00    +0.000 C 
ATOM     19  O   UNL     1       1.461  14.128  20.208  0.00  0.00    +0.000 OA
ENDBRANCH   1  19
BRANCH  14  20
ATOM     20  O   UNL     1      -1.233   9.870  17.678  0.00  0.00    +0.000 OA
ATOM     21  C   UNL     1      -2.211  10.197  16.695  0.00  0.00    +0.000 C 
ENDBRANCH  14  20
TORSDOF 2
ENDMDL
MODEL 6
REMARK VINA RESULT:      -5.9      4.348      7.663
REMARK  Name = 
REMARK  4 active torsions:
REMARK  status: ('A' for Active; 'I' for Inactive)
REMARK    1  A    between atoms: C_1  and  O_2
REMARK    2  A    between atoms: O_2  and  C_3
REMARK    3  A    between atoms: C_16  and  O_17
REMARK    4  A    between atoms: O_17  and  C_18
REMARK                            x       y       z     vdW  Elec       q    Type
REMARK                         _______ _______ _______ _____ _____    ______ ____
ROOT
ATOM      1  C   UNL     1       0.586  12.889  21.143  0.00  0.00    +0.000 C 
ATOM      2  C   UNL     1       1.213  11.869  20.538  0.00  0.00    +0.000 C 
ATOM      3  C   UNL     1       0.526  10.704  19.886  0.00  0.00    +0.000 C 
ATOM      4  O   UNL     1       1.214  10.419  18.634  0.00  0.00    +0.000 OA
ATOM      5  C   UNL     1       1.719   9.148  18.763  0.00  0.00    +0.000 A 
ATOM      6  C   UNL     1       2.456   8.509  17.786  0.00  0.00    +0.000 A 
ATOM      7  C   UNL     1       2.917   7.213  18.051  0.00  0.00    +0.000 A 
ATOM      8  C   UNL     1       2.630   6.587  19.279  0.00  0.00    +0.000 A 
ATOM      9 BR   UNL     1       3.270   4.836  19.601  0.00  0.00    +0.000 Br
ATOM     10  C   UNL     1       1.888   7.239  20.262  0.00  0.00    +0.000 A 
ATOM     11  C   UNL     1       1.454   8.515  19.963  0.00  0.00    +0.000 A 
ATOM     12  C   UNL     1       0.698   9.454  20.752  0.00  0.00    +0.000 C 
ATOM     13  O   UNL     1       0.321   9.243  21.891  0.00  0.00    +0.000 OA
ATOM     14  C   UNL     1      -0.956  10.937  19.641  0.00  0.00    +0.000 C 
ATOM     15  C   UNL     1      -1.612  11.938  20.264  0.00  0.00    +0.000 C 
ATOM     16  C   UNL     1      -0.917  12.888  21.167  0.00  0.00    +0.000 C 
ATOM     17  O   UNL     1      -1.595  13.649  21.849  0.00  0.00    +0.000 OA
ENDROOT
BRANCH   1  19
ATOM     18  C   UNL     1       1.606  15.020  20.786  0.00  0.00    +0.000 C 
ATOM     19  O   UNL     1       1.358  13.920  21.654  0.00  0.00    +0.000 OA
ENDBRANCH   1  19
BRANCH  14  20
ATOM     20  O   UNL     1      -1.537  10.045  18.758  0.00  0.00    +0.000 OA
ATOM     21  C   UNL     1      -2.649  10.494  17.989  0.00  0.00    +0.000 C 
ENDBRANCH  14  20
TORSDOF 2
ENDMDL
MODEL 7
REMARK VINA RESULT:      -5.8      3.208      5.969
REMARK  Name = 
REMARK  4 active torsions:
REMARK  status: ('A' for Active; 'I' for Inactive)
REMARK    1  A    between atoms: C_1  and  O_2
REMARK    2  A    between atoms: O_2  and  C_3
REMARK    3  A    between atoms: C_16  and  O_17
REMARK    4  A    between atoms: O_17  and  C_18
REMARK                            x       y       z     vdW  Elec       q    Type
REMARK                         _______ _______ _______ _____ _____    ______ ____
ROOT
ATOM      1  C   UNL     1       2.818   4.523  20.565  0.00  0.00    +0.000 C 
ATOM      2  C   UNL     1       3.772   4.437  19.625  0.00  0.00    +0.000 C 
ATOM      3  C   UNL     1       3.938   5.394  18.479  0.00  0.00    +0.000 C 
ATOM      4  O   UNL     1       5.359   5.666  18.323  0.00  0.00    +0.000 OA
ATOM      5  C   UNL     1       5.695   5.208  17.073  0.00  0.00    +0.000 A 
ATOM      6  C   UNL     1       6.969   5.271  16.545  0.00  0.00    +0.000 A 
ATOM      7  C   UNL     1       7.176   4.761  15.257  0.00  0.00    +0.000 A 
ATOM      8  C   UNL     1       6.108   4.204  14.528  0.00  0.00    +0.000 A 
ATOM      9 BR   UNL     1       6.423   3.524  12.791  0.00  0.00    +0.000 Br
ATOM     10  C   UNL     1       4.824   4.141  15.067  0.00  0.00    +0.000 A 
ATOM     11  C   UNL     1       4.663   4.653  16.339  0.00  0.00    +0.000 A 
ATOM     12  C   UNL     1       3.495   4.721  17.178  0.00  0.00    +0.000 C 
ATOM     13  O   UNL     1       2.401   4.286  16.865  0.00  0.00    +0.000 OA
ATOM     14  C   UNL     1       3.161   6.688  18.658  0.00  0.00    +0.000 C 
ATOM     15  C   UNL     1       2.177   6.785  19.576  0.00  0.00    +0.000 C 
ATOM     16  C   UNL     1       1.843   5.664  20.488  0.00  0.00    +0.000 C 
ATOM     17  O   UNL     1       0.822   5.743  21.162  0.00  0.00    +0.000 OA
ENDROOT
BRANCH   1  19
ATOM     18  C   UNL     1       2.038   2.424  21.398  0.00  0.00    +0.000 C 
ATOM     19  O   UNL     1       2.827   3.592  21.591  0.00  0.00    +0.000 OA
ENDBRANCH   1  19
BRANCH  14  20
ATOM     20  O   UNL     1       3.547   7.709  17.807  0.00  0.00    +0.000 OA
ATOM     21  C   UNL     1       2.620   8.764  17.566  0.00  0.00    +0.000 C 
ENDBRANCH  14  20
TORSDOF 2
ENDMDL
MODEL 8
REMARK VINA RESULT:      -5.7      6.183     10.046
REMARK  Name = 
REMARK  4 active torsions:
REMARK  status: ('A' for Active; 'I' for Inactive)
REMARK    1  A    between atoms: C_1  and  O_2
REMARK    2  A    between atoms: O_2  and  C_3
REMARK    3  A    between atoms: C_16  and  O_17
REMARK    4  A    between atoms: O_17  and  C_18
REMARK                            x       y       z     vdW  Elec       q    Type
REMARK                         _______ _______ _______ _____ _____    ______ ____
ROOT
ATOM      1  C   UNL     1      -3.518  12.920  23.042  0.00  0.00    +0.000 C 
ATOM      2  C   UNL     1      -2.639  11.980  22.668  0.00  0.00    +0.000 C 
ATOM      3  C   UNL     1      -1.228  12.250  22.228  0.00  0.00    +0.000 C 
ATOM      4  O   UNL     1      -0.368  11.242  22.831  0.00  0.00    +0.000 OA
ATOM      5  C   UNL     1       0.185  10.543  21.786  0.00  0.00    +0.000 A 
ATOM      6  C   UNL     1       1.057   9.485  21.941  0.00  0.00    +0.000 A 
ATOM      7  C   UNL     1       1.542   8.855  20.788  0.00  0.00    +0.000 A 
ATOM      8  C   UNL     1       1.147   9.298  19.511  0.00  0.00    +0.000 A 
ATOM      9 BR   UNL     1       1.822   8.423  17.975  0.00  0.00    +0.000 Br
ATOM     10  C   UNL     1       0.265  10.365  19.360  0.00  0.00    +0.000 A 
ATOM     11  C   UNL     1      -0.191  10.957  20.521  0.00  0.00    +0.000 A 
ATOM     12  C   UNL     1      -1.112  12.047  20.715  0.00  0.00    +0.000 C 
ATOM     13  O   UNL     1      -1.677  12.636  19.810  0.00  0.00    +0.000 OA
ATOM     14  C   UNL     1      -0.744  13.647  22.580  0.00  0.00    +0.000 C 
ATOM     15  C   UNL     1      -1.616  14.615  22.928  0.00  0.00    +0.000 C 
ATOM     16  C   UNL     1      -3.072  14.356  23.041  0.00  0.00    +0.000 C 
ATOM     17  O   UNL     1      -3.828  15.311  23.170  0.00  0.00    +0.000 OA
ENDROOT
BRANCH   1  19
ATOM     18  C   UNL     1      -4.924  12.301  24.873  0.00  0.00    +0.000 C 
ATOM     19  O   UNL     1      -4.769  12.509  23.474  0.00  0.00    +0.000 OA
ENDBRANCH   1  19
BRANCH  14  20
ATOM     20  O   UNL     1       0.627  13.816  22.496  0.00  0.00    +0.000 OA
ATOM     21  C   UNL     1       1.123  14.863  21.667  0.00  0.00    +0.000 C 
ENDBRANCH  14  20
TORSDOF 2
ENDMDL
MODEL 9
REMARK VINA RESULT:      -5.6      1.952      3.784
REMARK  Name = 
REMARK  4 active torsions:
REMARK  status: ('A' for Active; 'I' for Inactive)
REMARK    1  A    between atoms: C_1  and  O_2
REMARK    2  A    between atoms: O_2  and  C_3
REMARK    3  A    between atoms: C_16  and  O_17
REMARK    4  A    between atoms: O_17  and  C_18
REMARK                            x       y       z     vdW  Elec       q    Type
REMARK                         _______ _______ _______ _____ _____    ______ ____
ROOT
ATOM      1  C   UNL     1       5.739   4.538  16.005  0.00  0.00    +0.000 C 
ATOM      2  C   UNL     1       4.746   5.348  16.402  0.00  0.00    +0.000 C 
ATOM      3  C   UNL     1       4.915   6.536  17.305  0.00  0.00    +0.000 C 
ATOM      4  O   UNL     1       4.101   7.622  16.778  0.00  0.00    +0.000 OA
ATOM      5  C   UNL     1       3.170   7.900  17.749  0.00  0.00    +0.000 A 
ATOM      6  C   UNL     1       2.195   8.870  17.627  0.00  0.00    +0.000 A 
ATOM      7  C   UNL     1       1.303   9.046  18.692  0.00  0.00    +0.000 A 
ATOM      8  C   UNL     1       1.408   8.254  19.852  0.00  0.00    +0.000 A 
ATOM      9 BR   UNL     1       0.186   8.520  21.272  0.00  0.00    +0.000 Br
ATOM     10  C   UNL     1       2.393   7.276  19.969  0.00  0.00    +0.000 A 
ATOM     11  C   UNL     1       3.250   7.133  18.896  0.00  0.00    +0.000 A 
ATOM     12  C   UNL     1       4.343   6.217  18.688  0.00  0.00    +0.000 C 
ATOM     13  O   UNL     1       4.680   5.361  19.487  0.00  0.00    +0.000 OA
ATOM     14  C   UNL     1       6.362   6.977  17.457  0.00  0.00    +0.000 C 
ATOM     15  C   UNL     1       7.376   6.165  17.093  0.00  0.00    +0.000 C 
ATOM     16  C   UNL     1       7.134   4.836  16.480  0.00  0.00    +0.000 C 
ATOM     17  O   UNL     1       8.082   4.070  16.351  0.00  0.00    +0.000 OA
ENDROOT
BRANCH   1  19
ATOM     18  C   UNL     1       5.766   3.724  13.759  0.00  0.00    +0.000 C 
ATOM     19  O   UNL     1       5.433   3.512  15.126  0.00  0.00    +0.000 OA
ENDBRANCH   1  19
BRANCH  14  20
ATOM     20  O   UNL     1       6.521   8.242  17.996  0.00  0.00    +0.000 OA
ATOM     21  C   UNL     1       7.786   8.879  17.843  0.00  0.00    +0.000 C 
ENDBRANCH  14  20
TORSDOF 2
ENDMDL
