MODEL 1
REMARK VINA RESULT:      -7.6      0.000      0.000
REMARK  Name = 
REMARK  7 active torsions:
REMARK  status: ('A' for Active; 'I' for Inactive)
REMARK    1  A    between atoms: C_2  and  C_3
REMARK    2  A    between atoms: C_3  and  N_4
REMARK    3  A    between atoms: N_7  and  C_8
REMARK    4  A    between atoms: C_17  and  C_18
REMARK    5  A    between atoms: C_18  and  O_20
REMARK    6  A    between atoms: N_22  and  C_23
REMARK    7  A    between atoms: C_23  and  C_24
REMARK                            x       y       z     vdW  Elec       q    Type
REMARK                         _______ _______ _______ _____ _____    ______ ____
ROOT
ATOM      1  C   UNL     1       1.337   8.767  19.919  0.00  0.00    +0.000 A 
ATOM      2  C   UNL     1       1.617   7.428  20.259  0.00  0.00    +0.000 A 
ATOM      3  C   UNL     1       2.464   6.597  19.508  0.00  0.00    +0.000 A 
ATOM      4  C   UNL     1       2.991   7.138  18.323  0.00  0.00    +0.000 A 
ATOM      5  C   UNL     1       2.677   8.432  17.903  0.00  0.00    +0.000 A 
ATOM      6  C   UNL     1       1.866   9.228  18.701  0.00  0.00    +0.000 A 
ATOM      7  F   UNL     1       1.679  10.496  18.308  0.00  0.00    +0.000 F 
ATOM      8  C   UNL     1       3.947   6.344  17.522  0.00  0.00    +0.000 A 
ATOM      9  O   UNL     1       4.402   6.763  16.460  0.00  0.00    +0.000 OA
ATOM     10  C   UNL     1       4.375   5.033  18.046  0.00  0.00    +0.000 A 
ATOM     11  C   UNL     1       3.792   4.610  19.178  0.00  0.00    +0.000 A 
ATOM     12  N   UNL     1       2.828   5.291  19.913  0.00  0.00    +0.000 N 
ENDROOT
BRANCH   1  16
ATOM     13  N   UNL     1      -0.560  11.360  22.829  0.00  0.00    +0.000 NA
ATOM     14  C   UNL     1      -0.213   9.947  23.103  0.00  0.00    +0.000 C 
ATOM     15  C   UNL     1      -0.180   9.018  21.870  0.00  0.00    +0.000 C 
ATOM     16  N   UNL     1       0.659   9.593  20.805  0.00  0.00    +0.000 N 
ATOM     17  C   UNL     1       0.393  10.999  20.470  0.00  0.00    +0.000 C 
ATOM     18  C   UNL     1       0.347  11.854  21.761  0.00  0.00    +0.000 C 
BRANCH  13  19
ATOM     19  C   UNL     1      -1.965  11.540  22.447  0.00  0.00    +0.000 C 
BRANCH  19  21
ATOM     20  C   UNL     1      -3.792  12.441  23.928  0.00  0.00    +0.000 C 
ATOM     21  C   UNL     1      -2.641  12.605  23.262  0.00  0.00    +0.000 C 
ENDBRANCH  19  21
ENDBRANCH  13  19
ENDBRANCH   1  16
BRANCH  10  22
ATOM     22  C   UNL     1       5.400   4.195  17.390  0.00  0.00    +0.000 C 
ATOM     23  O   UNL     1       5.225   3.637  16.316  0.00  0.00    +0.000 OA
BRANCH  22  24
ATOM     24  O   UNL     1       6.558   4.084  18.077  0.00  0.00    +0.000 OA
ATOM     25  H   UNL     1       6.596   4.637  18.894  0.00  0.00    +0.000 HD
ENDBRANCH  22  24
ENDBRANCH  10  22
BRANCH  12  26
ATOM     26  C   UNL     1       2.223   4.704  21.124  0.00  0.00    +0.000 C 
ATOM     27  C   UNL     1       1.225   3.603  20.785  0.00  0.00    +0.000 C 
ENDBRANCH  12  26
TORSDOF 6
ENDMDL
MODEL 2
REMARK VINA RESULT:      -7.5      2.545      3.795
REMARK  Name = 
REMARK  7 active torsions:
REMARK  status: ('A' for Active; 'I' for Inactive)
REMARK    1  A    between atoms: C_2  and  C_3
REMARK    2  A    between atoms: C_3  and  N_4
REMARK    3  A    between atoms: N_7  and  C_8
REMARK    4  A    between atoms: C_17  and  C_18
REMARK    5  A    between atoms: C_18  and  O_20
REMARK    6  A    between atoms: N_22  and  C_23
REMARK    7  A    between atoms: C_23  and  C_24
REMARK                            x       y       z     vdW  Elec       q    Type
REMARK                         _______ _______ _______ _____ _____    ______ ____
ROOT
ATOM      1  C   UNL     1       1.356   8.509  19.775  0.00  0.00    +0.000 A 
ATOM      2  C   UNL     1       2.321   7.993  18.885  0.00  0.00    +0.000 A 
ATOM      3  C   UNL     1       2.830   6.687  18.964  0.00  0.00    +0.000 A 
ATOM      4  C   UNL     1       2.384   5.898  20.037  0.00  0.00    +0.000 A 
ATOM      5  C   UNL     1       1.492   6.393  20.991  0.00  0.00    +0.000 A 
ATOM      6  C   UNL     1       0.987   7.679  20.847  0.00  0.00    +0.000 A 
ATOM      7  F   UNL     1       0.055   8.070  21.728  0.00  0.00    +0.000 F 
ATOM      8  C   UNL     1       2.823   4.490  20.139  0.00  0.00    +0.000 A 
ATOM      9  O   UNL     1       2.489   3.777  21.083  0.00  0.00    +0.000 OA
ATOM     10  C   UNL     1       3.657   3.940  19.054  0.00  0.00    +0.000 A 
ATOM     11  C   UNL     1       4.036   4.790  18.087  0.00  0.00    +0.000 A 
ATOM     12  N   UNL     1       3.713   6.140  18.003  0.00  0.00    +0.000 N 
ENDROOT
BRANCH   1  16
ATOM     13  N   UNL     1      -0.764  12.228  19.102  0.00  0.00    +0.000 NA
ATOM     14  C   UNL     1      -1.030  10.991  18.336  0.00  0.00    +0.000 C 
ATOM     15  C   UNL     1       0.163  10.019  18.205  0.00  0.00    +0.000 C 
ATOM     16  N   UNL     1       0.748   9.730  19.525  0.00  0.00    +0.000 N 
ATOM     17  C   UNL     1       1.038  10.901  20.365  0.00  0.00    +0.000 C 
ATOM     18  C   UNL     1      -0.196  11.837  20.419  0.00  0.00    +0.000 C 
BRANCH  13  19
ATOM     19  C   UNL     1       0.131  13.155  18.401  0.00  0.00    +0.000 C 
BRANCH  19  21
ATOM     20  C   UNL     1       1.258  15.357  18.875  0.00  0.00    +0.000 C 
ATOM     21  C   UNL     1       0.330  14.435  19.162  0.00  0.00    +0.000 C 
ENDBRANCH  19  21
ENDBRANCH  13  19
ENDBRANCH   1  16
BRANCH  10  22
ATOM     22  C   UNL     1       4.072   2.523  18.991  0.00  0.00    +0.000 C 
ATOM     23  O   UNL     1       3.630   1.731  18.171  0.00  0.00    +0.000 OA
BRANCH  22  24
ATOM     24  O   UNL     1       4.981   2.162  19.923  0.00  0.00    +0.000 OA
ATOM     25  H   UNL     1       4.918   2.672  20.766  0.00  0.00    +0.000 HD
ENDBRANCH  22  24
ENDBRANCH  10  22
BRANCH  12  26
ATOM     26  C   UNL     1       4.228   6.990  16.912  0.00  0.00    +0.000 C 
ATOM     27  C   UNL     1       5.167   6.225  15.989  0.00  0.00    +0.000 C 
ENDBRANCH  12  26
TORSDOF 6
ENDMDL
MODEL 3
REMARK VINA RESULT:      -7.5      3.754      8.703
REMARK  Name = 
REMARK  7 active torsions:
REMARK  status: ('A' for Active; 'I' for Inactive)
REMARK    1  A    between atoms: C_2  and  C_3
REMARK    2  A    between atoms: C_3  and  N_4
REMARK    3  A    between atoms: N_7  and  C_8
REMARK    4  A    between atoms: C_17  and  C_18
REMARK    5  A    between atoms: C_18  and  O_20
REMARK    6  A    between atoms: N_22  and  C_23
REMARK    7  A    between atoms: C_23  and  C_24
REMARK                            x       y       z     vdW  Elec       q    Type
REMARK                         _______ _______ _______ _____ _____    ______ ____
ROOT
ATOM      1  C   UNL     1       3.025   6.717  18.639  0.00  0.00    +0.000 A 
ATOM      2  C   UNL     1       2.605   8.039  18.387  0.00  0.00    +0.000 A 
ATOM      3  C   UNL     1       1.738   8.752  19.229  0.00  0.00    +0.000 A 
ATOM      4  C   UNL     1       1.225   8.061  20.339  0.00  0.00    +0.000 A 
ATOM      5  C   UNL     1       1.546   6.725  20.585  0.00  0.00    +0.000 A 
ATOM      6  C   UNL     1       2.440   6.075  19.744  0.00  0.00    +0.000 A 
ATOM      7  F   UNL     1       2.799   4.827  20.081  0.00  0.00    +0.000 F 
ATOM      8  C   UNL     1       0.363   8.773  21.307  0.00  0.00    +0.000 A 
ATOM      9  O   UNL     1      -0.139   8.196  22.270  0.00  0.00    +0.000 OA
ATOM     10  C   UNL     1       0.140  10.218  21.110  0.00  0.00    +0.000 A 
ATOM     11  C   UNL     1       0.666  10.770  20.005  0.00  0.00    +0.000 A 
ATOM     12  N   UNL     1       1.409  10.114  19.030  0.00  0.00    +0.000 N 
ENDROOT
BRANCH   1  16
ATOM     13  N   UNL     1       6.296   4.845  16.499  0.00  0.00    +0.000 NA
ATOM     14  C   UNL     1       6.439   6.106  17.260  0.00  0.00    +0.000 C 
ATOM     15  C   UNL     1       5.156   6.957  17.386  0.00  0.00    +0.000 C 
ATOM     16  N   UNL     1       4.035   6.141  17.882  0.00  0.00    +0.000 N 
ATOM     17  C   UNL     1       3.823   4.861  17.192  0.00  0.00    +0.000 C 
ATOM     18  C   UNL     1       5.160   4.086  17.082  0.00  0.00    +0.000 C 
BRANCH  13  19
ATOM     19  C   UNL     1       6.099   5.062  15.062  0.00  0.00    +0.000 C 
BRANCH  19  21
ATOM     20  C   UNL     1       6.158   3.699  12.945  0.00  0.00    +0.000 C 
ATOM     21  C   UNL     1       6.156   3.780  14.283  0.00  0.00    +0.000 C 
ENDBRANCH  19  21
ENDBRANCH  13  19
ENDBRANCH   1  16
BRANCH  10  22
ATOM     22  C   UNL     1      -0.615  11.057  22.064  0.00  0.00    +0.000 C 
ATOM     23  O   UNL     1      -1.397  11.931  21.716  0.00  0.00    +0.000 OA
BRANCH  22  24
ATOM     24  O   UNL     1      -0.367  10.789  23.365  0.00  0.00    +0.000 OA
ATOM     25  H   UNL     1      -0.745   9.933  23.679  0.00  0.00    +0.000 HD
ENDBRANCH  22  24
ENDBRANCH  10  22
BRANCH  12  26
ATOM     26  C   UNL     1       1.900  10.819  17.830  0.00  0.00    +0.000 C 
ATOM     27  C   UNL     1       2.397  12.221  18.157  0.00  0.00    +0.000 C 
ENDBRANCH  12  26
TORSDOF 6
ENDMDL
MODEL 4
REMARK VINA RESULT:      -7.4      0.901      1.272
REMARK  Name = 
REMARK  7 active torsions:
REMARK  status: ('A' for Active; 'I' for Inactive)
REMARK    1  A    between atoms: C_2  and  C_3
REMARK    2  A    between atoms: C_3  and  N_4
REMARK    3  A    between atoms: N_7  and  C_8
REMARK    4  A    between atoms: C_17  and  C_18
REMARK    5  A    between atoms: C_18  and  O_20
REMARK    6  A    between atoms: N_22  and  C_23
REMARK    7  A    between atoms: C_23  and  C_24
REMARK                            x       y       z     vdW  Elec       q    Type
REMARK                         _______ _______ _______ _____ _____    ______ ____
ROOT
ATOM      1  C   UNL     1       1.394   9.097  19.223  0.00  0.00    +0.000 A 
ATOM      2  C   UNL     1       1.619   7.806  19.741  0.00  0.00    +0.000 A 
ATOM      3  C   UNL     1       2.557   6.908  19.208  0.00  0.00    +0.000 A 
ATOM      4  C   UNL     1       3.245   7.323  18.056  0.00  0.00    +0.000 A 
ATOM      5  C   UNL     1       2.996   8.559  17.458  0.00  0.00    +0.000 A 
ATOM      6  C   UNL     1       2.087   9.429  18.046  0.00  0.00    +0.000 A 
ATOM      7  F   UNL     1       1.961  10.645  17.494  0.00  0.00    +0.000 F 
ATOM      8  C   UNL     1       4.299   6.457  17.485  0.00  0.00    +0.000 A 
ATOM      9  O   UNL     1       4.897   6.763  16.455  0.00  0.00    +0.000 OA
ATOM     10  C   UNL     1       4.645   5.215  18.202  0.00  0.00    +0.000 A 
ATOM     11  C   UNL     1       3.911   4.912  19.283  0.00  0.00    +0.000 A 
ATOM     12  N   UNL     1       2.858   5.658  19.800  0.00  0.00    +0.000 N 
ENDROOT
BRANCH   1  16
ATOM     13  N   UNL     1      -0.982  12.125  21.215  0.00  0.00    +0.000 NA
ATOM     14  C   UNL     1       0.488  12.028  21.349  0.00  0.00    +0.000 C 
ATOM     15  C   UNL     1       1.081  10.614  21.165  0.00  0.00    +0.000 C 
ATOM     16  N   UNL     1       0.604  10.006  19.911  0.00  0.00    +0.000 N 
ATOM     17  C   UNL     1      -0.848  10.065  19.686  0.00  0.00    +0.000 C 
ATOM     18  C   UNL     1      -1.365  11.507  19.919  0.00  0.00    +0.000 C 
BRANCH  13  19
ATOM     19  C   UNL     1      -1.702  11.496  22.328  0.00  0.00    +0.000 C 
BRANCH  19  21
ATOM     20  C   UNL     1      -3.715  12.664  23.290  0.00  0.00    +0.000 C 
ATOM     21  C   UNL     1      -2.387  12.507  23.202  0.00  0.00    +0.000 C 
ENDBRANCH  19  21
ENDBRANCH  13  19
ENDBRANCH   1  16
BRANCH  10  22
ATOM     22  C   UNL     1       5.748   4.323  17.788  0.00  0.00    +0.000 C 
ATOM     23  O   UNL     1       6.809   4.243  18.391  0.00  0.00    +0.000 OA
BRANCH  22  24
ATOM     24  O   UNL     1       5.496   3.598  16.676  0.00  0.00    +0.000 OA
ATOM     25  H   UNL     1       4.539   3.410  16.526  0.00  0.00    +0.000 HD
ENDBRANCH  22  24
ENDBRANCH  10  22
BRANCH  12  26
ATOM     26  C   UNL     1       2.089   5.199  20.974  0.00  0.00    +0.000 C 
ATOM     27  C   UNL     1       1.159   4.044  20.628  0.00  0.00    +0.000 C 
ENDBRANCH  12  26
TORSDOF 6
ENDMDL
MODEL 5
REMARK VINA RESULT:      -7.4      0.805      1.390
REMARK  Name = 
REMARK  7 active torsions:
REMARK  status: ('A' for Active; 'I' for Inactive)
REMARK    1  A    between atoms: C_2  and  C_3
REMARK    2  A    between atoms: C_3  and  N_4
REMARK    3  A    between atoms: N_7  and  C_8
REMARK    4  A    between atoms: C_17  and  C_18
REMARK    5  A    between atoms: C_18  and  O_20
REMARK    6  A    between atoms: N_22  and  C_23
REMARK    7  A    between atoms: C_23  and  C_24
REMARK                            x       y       z     vdW  Elec       q    Type
REMARK                         _______ _______ _______ _____ _____    ______ ____
ROOT
ATOM      1  C   UNL     1       1.393   8.940  19.449  0.00  0.00    +0.000 A 
ATOM      2  C   UNL     1       1.660   7.637  19.916  0.00  0.00    +0.000 A 
ATOM      3  C   UNL     1       2.585   6.770  19.312  0.00  0.00    +0.000 A 
ATOM      4  C   UNL     1       3.212   7.231  18.142  0.00  0.00    +0.000 A 
ATOM      5  C   UNL     1       2.918   8.482  17.596  0.00  0.00    +0.000 A 
ATOM      6  C   UNL     1       2.025   9.318  18.252  0.00  0.00    +0.000 A 
ATOM      7  F   UNL     1       1.856  10.549  17.746  0.00  0.00    +0.000 F 
ATOM      8  C   UNL     1       4.249   6.400  17.495  0.00  0.00    +0.000 A 
ATOM      9  O   UNL     1       4.794   6.747  16.449  0.00  0.00    +0.000 OA
ATOM     10  C   UNL     1       4.647   5.142  18.156  0.00  0.00    +0.000 A 
ATOM     11  C   UNL     1       3.968   4.794  19.260  0.00  0.00    +0.000 A 
ATOM     12  N   UNL     1       2.930   5.508  19.849  0.00  0.00    +0.000 N 
ENDROOT
BRANCH   1  16
ATOM     13  N   UNL     1      -1.211  11.503  21.781  0.00  0.00    +0.000 NA
ATOM     14  C   UNL     1      -1.365  11.298  20.323  0.00  0.00    +0.000 C 
ATOM     15  C   UNL     1      -0.070  10.945  19.560  0.00  0.00    +0.000 C 
ATOM     16  N   UNL     1       0.623   9.815  20.202  0.00  0.00    +0.000 N 
ATOM     17  C   UNL     1       0.812   9.925  21.655  0.00  0.00    +0.000 C 
ATOM     18  C   UNL     1      -0.524  10.310  22.339  0.00  0.00    +0.000 C 
BRANCH  13  19
ATOM     19  C   UNL     1      -0.481  12.731  22.113  0.00  0.00    +0.000 C 
BRANCH  19  21
ATOM     20  C   UNL     1      -2.478  13.412  23.489  0.00  0.00    +0.000 C 
ATOM     21  C   UNL     1      -1.184  13.540  23.165  0.00  0.00    +0.000 C 
ENDBRANCH  19  21
ENDBRANCH  13  19
ENDBRANCH   1  16
BRANCH  10  22
ATOM     22  C   UNL     1       5.741   4.280  17.663  0.00  0.00    +0.000 C 
ATOM     23  O   UNL     1       6.840   4.221  18.195  0.00  0.00    +0.000 OA
BRANCH  22  24
ATOM     24  O   UNL     1       5.434   3.558  16.563  0.00  0.00    +0.000 OA
ATOM     25  H   UNL     1       5.803   3.926  15.724  0.00  0.00    +0.000 HD
ENDBRANCH  22  24
ENDBRANCH  10  22
BRANCH  12  26
ATOM     26  C   UNL     1       2.224   5.001  21.042  0.00  0.00    +0.000 C 
ATOM     27  C   UNL     1       1.233   3.899  20.691  0.00  0.00    +0.000 C 
ENDBRANCH  12  26
TORSDOF 6
ENDMDL
MODEL 6
REMARK VINA RESULT:      -7.3      2.576      3.572
REMARK  Name = 
REMARK  7 active torsions:
REMARK  status: ('A' for Active; 'I' for Inactive)
REMARK    1  A    between atoms: C_2  and  C_3
REMARK    2  A    between atoms: C_3  and  N_4
REMARK    3  A    between atoms: N_7  and  C_8
REMARK    4  A    between atoms: C_17  and  C_18
REMARK    5  A    between atoms: C_18  and  O_20
REMARK    6  A    between atoms: N_22  and  C_23
REMARK    7  A    between atoms: C_23  and  C_24
REMARK                            x       y       z     vdW  Elec       q    Type
REMARK                         _______ _______ _______ _____ _____    ______ ____
ROOT
ATOM      1  C   UNL     1       1.609   8.273  19.779  0.00  0.00    +0.000 A 
ATOM      2  C   UNL     1       2.551   7.732  18.880  0.00  0.00    +0.000 A 
ATOM      3  C   UNL     1       3.007   6.405  18.939  0.00  0.00    +0.000 A 
ATOM      4  C   UNL     1       2.531   5.620  20.002  0.00  0.00    +0.000 A 
ATOM      5  C   UNL     1       1.661   6.137  20.965  0.00  0.00    +0.000 A 
ATOM      6  C   UNL     1       1.208   7.444  20.840  0.00  0.00    +0.000 A 
ATOM      7  F   UNL     1       0.293   7.860  21.728  0.00  0.00    +0.000 F 
ATOM      8  C   UNL     1       2.913   4.195  20.084  0.00  0.00    +0.000 A 
ATOM      9  O   UNL     1       2.552   3.482  21.019  0.00  0.00    +0.000 OA
ATOM     10  C   UNL     1       3.723   3.627  18.989  0.00  0.00    +0.000 A 
ATOM     11  C   UNL     1       4.134   4.475  18.034  0.00  0.00    +0.000 A 
ATOM     12  N   UNL     1       3.866   5.837  17.969  0.00  0.00    +0.000 N 
ENDROOT
BRANCH   1  16
ATOM     13  N   UNL     1       0.010  12.267  19.254  0.00  0.00    +0.000 NA
ATOM     14  C   UNL     1      -0.329  11.401  20.405  0.00  0.00    +0.000 C 
ATOM     15  C   UNL     1      -0.249   9.882  20.141  0.00  0.00    +0.000 C 
ATOM     16  N   UNL     1       1.050   9.522  19.548  0.00  0.00    +0.000 N 
ATOM     17  C   UNL     1       1.476  10.338  18.402  0.00  0.00    +0.000 C 
ATOM     18  C   UNL     1       1.337  11.844  18.738  0.00  0.00    +0.000 C 
BRANCH  13  19
ATOM     19  C   UNL     1      -1.001  12.230  18.191  0.00  0.00    +0.000 C 
BRANCH  19  21
ATOM     20  C   UNL     1      -3.399  11.461  18.135  0.00  0.00    +0.000 C 
ATOM     21  C   UNL     1      -2.394  12.111  18.739  0.00  0.00    +0.000 C 
ENDBRANCH  19  21
ENDBRANCH  13  19
ENDBRANCH   1  16
BRANCH  10  22
ATOM     22  C   UNL     1       4.080   2.195  18.906  0.00  0.00    +0.000 C 
ATOM     23  O   UNL     1       3.605   1.433  18.077  0.00  0.00    +0.000 OA
BRANCH  22  24
ATOM     24  O   UNL     1       4.976   1.786  19.830  0.00  0.00    +0.000 OA
ATOM     25  H   UNL     1       5.529   1.019  19.544  0.00  0.00    +0.000 HD
ENDBRANCH  22  24
ENDBRANCH  10  22
BRANCH  12  26
ATOM     26  C   UNL     1       4.413   6.682  16.890  0.00  0.00    +0.000 C 
ATOM     27  C   UNL     1       5.231   5.871  15.893  0.00  0.00    +0.000 C 
ENDBRANCH  12  26
TORSDOF 6
ENDMDL
MODEL 7
REMARK VINA RESULT:      -7.3      1.340      1.929
REMARK  Name = 
REMARK  7 active torsions:
REMARK  status: ('A' for Active; 'I' for Inactive)
REMARK    1  A    between atoms: C_2  and  C_3
REMARK    2  A    between atoms: C_3  and  N_4
REMARK    3  A    between atoms: N_7  and  C_8
REMARK    4  A    between atoms: C_17  and  C_18
REMARK    5  A    between atoms: C_18  and  O_20
REMARK    6  A    between atoms: N_22  and  C_23
REMARK    7  A    between atoms: C_23  and  C_24
REMARK                            x       y       z     vdW  Elec       q    Type
REMARK                         _______ _______ _______ _____ _____    ______ ____
ROOT
ATOM      1  C   UNL     1       1.977   8.117  19.047  0.00  0.00    +0.000 A 
ATOM      2  C   UNL     1       2.376   6.794  19.330  0.00  0.00    +0.000 A 
ATOM      3  C   UNL     1       3.369   6.112  18.609  0.00  0.00    +0.000 A 
ATOM      4  C   UNL     1       3.929   6.786  17.511  0.00  0.00    +0.000 A 
ATOM      5  C   UNL     1       3.507   8.064  17.142  0.00  0.00    +0.000 A 
ATOM      6  C   UNL     1       2.549   8.713  17.910  0.00  0.00    +0.000 A 
ATOM      7  F   UNL     1       2.255   9.979  17.578  0.00  0.00    +0.000 F 
ATOM      8  C   UNL     1       5.029   6.155  16.752  0.00  0.00    +0.000 A 
ATOM      9  O   UNL     1       5.520   6.692  15.761  0.00  0.00    +0.000 OA
ATOM     10  C   UNL     1       5.556   4.864  17.233  0.00  0.00    +0.000 A 
ATOM     11  C   UNL     1       4.934   4.305  18.282  0.00  0.00    +0.000 A 
ATOM     12  N   UNL     1       3.843   4.827  18.967  0.00  0.00    +0.000 N 
ENDROOT
BRANCH   1  16
ATOM     13  N   UNL     1      -0.827  10.091  21.697  0.00  0.00    +0.000 NA
ATOM     14  C   UNL     1      -0.903  10.178  20.221  0.00  0.00    +0.000 C 
ATOM     15  C   UNL     1       0.439  10.019  19.475  0.00  0.00    +0.000 C 
ATOM     16  N   UNL     1       1.141   8.802  19.916  0.00  0.00    +0.000 N 
ATOM     17  C   UNL     1       1.257   8.624  21.370  0.00  0.00    +0.000 C 
ATOM     18  C   UNL     1      -0.124   8.829  22.044  0.00  0.00    +0.000 C 
BRANCH  13  19
ATOM     19  C   UNL     1      -0.160  11.247  22.305  0.00  0.00    +0.000 C 
BRANCH  19  21
ATOM     20  C   UNL     1      -0.893  13.579  22.910  0.00  0.00    +0.000 C 
ATOM     21  C   UNL     1      -1.141  12.266  22.810  0.00  0.00    +0.000 C 
ENDBRANCH  19  21
ENDBRANCH  13  19
ENDBRANCH   1  16
BRANCH  10  22
ATOM     22  C   UNL     1       6.720   4.187  16.622  0.00  0.00    +0.000 C 
ATOM     23  O   UNL     1       7.876   4.418  16.944  0.00  0.00    +0.000 OA
BRANCH  22  24
ATOM     24  O   UNL     1       6.406   3.286  15.664  0.00  0.00    +0.000 OA
ATOM     25  H   UNL     1       6.973   2.479  15.669  0.00  0.00    +0.000 HD
ENDBRANCH  22  24
ENDBRANCH  10  22
BRANCH  12  26
ATOM     26  C   UNL     1       3.210   4.097  20.083  0.00  0.00    +0.000 C 
ATOM     27  C   UNL     1       2.243   3.029  19.588  0.00  0.00    +0.000 C 
ENDBRANCH  12  26
TORSDOF 6
ENDMDL
MODEL 8
REMARK VINA RESULT:      -7.2      3.466      7.618
REMARK  Name = 
REMARK  7 active torsions:
REMARK  status: ('A' for Active; 'I' for Inactive)
REMARK    1  A    between atoms: C_2  and  C_3
REMARK    2  A    between atoms: C_3  and  N_4
REMARK    3  A    between atoms: N_7  and  C_8
REMARK    4  A    between atoms: C_17  and  C_18
REMARK    5  A    between atoms: C_18  and  O_20
REMARK    6  A    between atoms: N_22  and  C_23
REMARK    7  A    between atoms: C_23  and  C_24
REMARK                            x       y       z     vdW  Elec       q    Type
REMARK                         _______ _______ _______ _____ _____    ______ ____
ROOT
ATOM      1  C   UNL     1       2.378   7.365  19.007  0.00  0.00    +0.000 A 
ATOM      2  C   UNL     1       1.581   7.869  20.056  0.00  0.00    +0.000 A 
ATOM      3  C   UNL     1       1.019   9.156  20.055  0.00  0.00    +0.000 A 
ATOM      4  C   UNL     1       1.342   9.986  18.968  0.00  0.00    +0.000 A 
ATOM      5  C   UNL     1       2.195   9.560  17.947  0.00  0.00    +0.000 A 
ATOM      6  C   UNL     1       2.693   8.264  17.973  0.00  0.00    +0.000 A 
ATOM      7  F   UNL     1       3.420   7.868  16.918  0.00  0.00    +0.000 F 
ATOM      8  C   UNL     1       0.729  11.326  18.866  0.00  0.00    +0.000 A 
ATOM      9  O   UNL     1       1.014  12.100  17.955  0.00  0.00    +0.000 OA
ATOM     10  C   UNL     1      -0.272  11.713  19.879  0.00  0.00    +0.000 A 
ATOM     11  C   UNL     1      -0.490  10.847  20.881  0.00  0.00    +0.000 A 
ATOM     12  N   UNL     1       0.130   9.615  21.055  0.00  0.00    +0.000 N 
ENDROOT
BRANCH   1  16
ATOM     13  N   UNL     1       3.521   3.201  18.640  0.00  0.00    +0.000 NA
ATOM     14  C   UNL     1       2.228   3.734  18.157  0.00  0.00    +0.000 C 
ATOM     15  C   UNL     1       1.700   4.978  18.905  0.00  0.00    +0.000 C 
ATOM     16  N   UNL     1       2.733   6.025  18.973  0.00  0.00    +0.000 N 
ATOM     17  C   UNL     1       4.058   5.585  19.433  0.00  0.00    +0.000 C 
ATOM     18  C   UNL     1       4.499   4.319  18.656  0.00  0.00    +0.000 C 
BRANCH  13  19
ATOM     19  C   UNL     1       3.424   2.572  19.962  0.00  0.00    +0.000 C 
BRANCH  19  21
ATOM     20  C   UNL     1       1.518   2.575  21.608  0.00  0.00    +0.000 C 
ATOM     21  C   UNL     1       1.999   2.347  20.378  0.00  0.00    +0.000 C 
ENDBRANCH  19  21
ENDBRANCH  13  19
ENDBRANCH   1  16
BRANCH  10  22
ATOM     22  C   UNL     1      -1.029  12.981  19.827  0.00  0.00    +0.000 C 
ATOM     23  O   UNL     1      -1.371  13.601  20.823  0.00  0.00    +0.000 OA
BRANCH  22  24
ATOM     24  O   UNL     1      -1.324  13.407  18.578  0.00  0.00    +0.000 OA
ATOM     25  H   UNL     1      -1.735  14.304  18.545  0.00  0.00    +0.000 HD
ENDBRANCH  22  24
ENDBRANCH  10  22
BRANCH  12  26
ATOM     26  C   UNL     1      -0.157   8.764  22.226  0.00  0.00    +0.000 C 
ATOM     27  C   UNL     1      -0.137   9.559  23.526  0.00  0.00    +0.000 C 
ENDBRANCH  12  26
TORSDOF 6
ENDMDL
MODEL 9
REMARK VINA RESULT:      -7.1      2.584      3.665
REMARK  Name = 
REMARK  7 active torsions:
REMARK  status: ('A' for Active; 'I' for Inactive)
REMARK    1  A    between atoms: C_2  and  C_3
REMARK    2  A    between atoms: C_3  and  N_4
REMARK    3  A    between atoms: N_7  and  C_8
REMARK    4  A    between atoms: C_17  and  C_18
REMARK    5  A    between atoms: C_18  and  O_20
REMARK    6  A    between atoms: N_22  and  C_23
REMARK    7  A    between atoms: C_23  and  C_24
REMARK                            x       y       z     vdW  Elec       q    Type
REMARK                         _______ _______ _______ _____ _____    ______ ____
ROOT
ATOM      1  C   UNL     1       1.223   8.916  19.746  0.00  0.00    +0.000 A 
ATOM      2  C   UNL     1       2.161   8.335  18.868  0.00  0.00    +0.000 A 
ATOM      3  C   UNL     1       2.649   7.026  19.008  0.00  0.00    +0.000 A 
ATOM      4  C   UNL     1       2.211   6.306  20.133  0.00  0.00    +0.000 A 
ATOM      5  C   UNL     1       1.348   6.868  21.074  0.00  0.00    +0.000 A 
ATOM      6  C   UNL     1       0.862   8.153  20.870  0.00  0.00    +0.000 A 
ATOM      7  F   UNL     1      -0.046   8.609  21.746  0.00  0.00    +0.000 F 
ATOM      8  C   UNL     1       2.628   4.898  20.304  0.00  0.00    +0.000 A 
ATOM      9  O   UNL     1       2.301   4.244  21.292  0.00  0.00    +0.000 OA
ATOM     10  C   UNL     1       3.430   4.274  19.235  0.00  0.00    +0.000 A 
ATOM     11  C   UNL     1       3.804   5.062  18.215  0.00  0.00    +0.000 A 
ATOM     12  N   UNL     1       3.502   6.411  18.063  0.00  0.00    +0.000 N 
ENDROOT
BRANCH   1  16
ATOM     13  N   UNL     1      -0.528  12.696  18.550  0.00  0.00    +0.000 NA
ATOM     14  C   UNL     1       0.924  12.504  18.764  0.00  0.00    +0.000 C 
ATOM     15  C   UNL     1       1.309  11.398  19.770  0.00  0.00    +0.000 C 
ATOM     16  N   UNL     1       0.631  10.133  19.441  0.00  0.00    +0.000 N 
ATOM     17  C   UNL     1      -0.816  10.227  19.202  0.00  0.00    +0.000 C 
ATOM     18  C   UNL     1      -1.117  11.376  18.206  0.00  0.00    +0.000 C 
BRANCH  13  19
ATOM     19  C   UNL     1      -1.205  13.285  19.711  0.00  0.00    +0.000 C 
BRANCH  19  21
ATOM     20  C   UNL     1      -0.821  15.774  19.695  0.00  0.00    +0.000 C 
ATOM     21  C   UNL     1      -0.542  14.552  20.170  0.00  0.00    +0.000 C 
ENDBRANCH  19  21
ENDBRANCH  13  19
ENDBRANCH   1  16
BRANCH  10  22
ATOM     22  C   UNL     1       3.819   2.848  19.242  0.00  0.00    +0.000 C 
ATOM     23  O   UNL     1       3.095   1.953  18.831  0.00  0.00    +0.000 OA
BRANCH  22  24
ATOM     24  O   UNL     1       5.048   2.604  19.750  0.00  0.00    +0.000 OA
ATOM     25  H   UNL     1       5.728   3.272  19.496  0.00  0.00    +0.000 HD
ENDBRANCH  22  24
ENDBRANCH  10  22
BRANCH  12  26
ATOM     26  C   UNL     1       4.009   7.190  16.917  0.00  0.00    +0.000 C 
ATOM     27  C   UNL     1       5.078   6.431  16.140  0.00  0.00    +0.000 C 
ENDBRANCH  12  26
TORSDOF 6
ENDMDL
