MODEL 1
REMARK VINA RESULT:      -6.0      0.000      0.000
REMARK  Name = 
REMARK  19 active torsions:
REMARK  status: ('A' for Active; 'I' for Inactive)
REMARK    1  A    between atoms: C_1  and  C_2
REMARK    2  A    between atoms: C_2  and  C_3
REMARK    3  A    between atoms: C_3  and  C_4
REMARK    4  A    between atoms: C_4  and  C_5
REMARK    5  A    between atoms: C_5  and  C_6
REMARK    6  A    between atoms: C_6  and  C_7
REMARK    7  A    between atoms: C_7  and  C_8
REMARK    8  A    between atoms: C_8  and  C_9
REMARK    9  A    between atoms: C_9  and  C_10
REMARK   10  A    between atoms: C_10  and  C_11
REMARK   11  A    between atoms: C_11  and  C_12
REMARK   12  A    between atoms: C_12  and  C_13
REMARK   13  A    between atoms: C_13  and  C_14
REMARK   14  A    between atoms: C_14  and  O_15
REMARK   15  A    between atoms: O_15  and  C_16
REMARK   16  A    between atoms: C_16  and  C_18
REMARK   17  A    between atoms: C_18  and  C_19
REMARK   18  A    between atoms: C_19  and  C_20
REMARK   19  A    between atoms: C_20  and  O_21
REMARK                            x       y       z     vdW  Elec       q    Type
REMARK                         _______ _______ _______ _____ _____    ______ ____
ROOT
ATOM      1  C   UNL     1       5.210   4.599  17.571  0.00  0.00    +0.000 C 
ENDROOT
BRANCH   1   2
ATOM      2  O   UNL     1       4.838   5.177  18.824  0.00  0.00    +0.000 OA
BRANCH   2   3
ATOM      3  C   UNL     1       3.486   5.246  18.989  0.00  0.00    +0.000 C 
ATOM      4  O   UNL     1       2.904   5.949  19.794  0.00  0.00    +0.000 OA
BRANCH   3   5
ATOM      5  C   UNL     1       2.761   4.217  18.153  0.00  0.00    +0.000 C 
BRANCH   5   6
ATOM      6  C   UNL     1       2.291   2.993  18.970  0.00  0.00    +0.000 C 
ATOM      7  C   UNL     1       2.660   1.696  18.236  0.00  0.00    +0.000 C 
ATOM      8  O   UNL     1       3.949   1.308  18.721  0.00  0.00    +0.000 OA
ATOM      9  C   UNL     1       4.212   1.923  19.902  0.00  0.00    +0.000 C 
ATOM     10  O   UNL     1       5.196   1.727  20.581  0.00  0.00    +0.000 OA
ATOM     11  C   UNL     1       3.092   2.847  20.265  0.00  0.00    +0.000 C 
BRANCH   6  12
ATOM     12  C   UNL     1       0.782   3.088  19.271  0.00  0.00    +0.000 C 
BRANCH  12  13
ATOM     13  O   UNL     1       0.496   4.003  20.329  0.00  0.00    +0.000 OA
ATOM     14  H   UNL     1       0.507   3.494  21.161  0.00  0.00    +0.000 HD
ENDBRANCH  12  13
ENDBRANCH   6  12
ENDBRANCH   5   6
ENDBRANCH   3   5
ENDBRANCH   2   3
ENDBRANCH   1   2
BRANCH   1  15
ATOM     15  C   UNL     1       6.466   5.267  17.033  0.00  0.00    +0.000 C 
BRANCH  15  16
ATOM     16  C   UNL     1       7.548   5.308  18.101  0.00  0.00    +0.000 C 
BRANCH  16  17
ATOM     17  C   UNL     1       7.865   6.748  18.475  0.00  0.00    +0.000 C 
BRANCH  17  18
ATOM     18  C   UNL     1       7.598   7.675  17.300  0.00  0.00    +0.000 C 
BRANCH  18  19
ATOM     19  C   UNL     1       7.969   9.102  17.668  0.00  0.00    +0.000 C 
BRANCH  19  20
ATOM     20  C   UNL     1       8.907   9.110  18.861  0.00  0.00    +0.000 C 
BRANCH  20  21
ATOM     21  C   UNL     1       9.290  10.538  19.217  0.00  0.00    +0.000 C 
BRANCH  21  22
ATOM     22  C   UNL     1      10.002  11.193  18.046  0.00  0.00    +0.000 C 
BRANCH  22  23
ATOM     23  C   UNL     1       9.738  12.690  18.043  0.00  0.00    +0.000 C 
BRANCH  23  24
ATOM     24  C   UNL     1      10.529  13.365  19.153  0.00  0.00    +0.000 C 
BRANCH  24  25
ATOM     25  C   UNL     1       9.583  14.016  20.152  0.00  0.00    +0.000 C 
BRANCH  25  27
ATOM     26  C   UNL     1       9.019  14.274  22.573  0.00  0.00    +0.000 C 
ATOM     27  C   UNL     1       9.869  13.523  21.565  0.00  0.00    +0.000 C 
ENDBRANCH  25  27
ENDBRANCH  24  25
ENDBRANCH  23  24
ENDBRANCH  22  23
ENDBRANCH  21  22
ENDBRANCH  20  21
ENDBRANCH  19  20
ENDBRANCH  18  19
ENDBRANCH  17  18
ENDBRANCH  16  17
ENDBRANCH  15  16
ENDBRANCH   1  15
TORSDOF 18
ENDMDL
MODEL 2
REMARK VINA RESULT:      -6.0      1.611      2.873
REMARK  Name = 
REMARK  19 active torsions:
REMARK  status: ('A' for Active; 'I' for Inactive)
REMARK    1  A    between atoms: C_1  and  C_2
REMARK    2  A    between atoms: C_2  and  C_3
REMARK    3  A    between atoms: C_3  and  C_4
REMARK    4  A    between atoms: C_4  and  C_5
REMARK    5  A    between atoms: C_5  and  C_6
REMARK    6  A    between atoms: C_6  and  C_7
REMARK    7  A    between atoms: C_7  and  C_8
REMARK    8  A    between atoms: C_8  and  C_9
REMARK    9  A    between atoms: C_9  and  C_10
REMARK   10  A    between atoms: C_10  and  C_11
REMARK   11  A    between atoms: C_11  and  C_12
REMARK   12  A    between atoms: C_12  and  C_13
REMARK   13  A    between atoms: C_13  and  C_14
REMARK   14  A    between atoms: C_14  and  O_15
REMARK   15  A    between atoms: O_15  and  C_16
REMARK   16  A    between atoms: C_16  and  C_18
REMARK   17  A    between atoms: C_18  and  C_19
REMARK   18  A    between atoms: C_19  and  C_20
REMARK   19  A    between atoms: C_20  and  O_21
REMARK                            x       y       z     vdW  Elec       q    Type
REMARK                         _______ _______ _______ _____ _____    ______ ____
ROOT
ATOM      1  C   UNL     1       5.695   5.000  18.543  0.00  0.00    +0.000 C 
ENDROOT
BRANCH   1   2
ATOM      2  O   UNL     1       5.582   4.066  19.619  0.00  0.00    +0.000 OA
BRANCH   2   3
ATOM      3  C   UNL     1       4.473   3.281  19.518  0.00  0.00    +0.000 C 
ATOM      4  O   UNL     1       4.412   2.098  19.798  0.00  0.00    +0.000 OA
BRANCH   3   5
ATOM      5  C   UNL     1       3.324   4.006  18.856  0.00  0.00    +0.000 C 
BRANCH   5   6
ATOM      6  C   UNL     1       2.357   4.662  19.865  0.00  0.00    +0.000 C 
ATOM      7  C   UNL     1       0.917   4.208  19.588  0.00  0.00    +0.000 C 
ATOM      8  O   UNL     1       0.696   3.046  20.394  0.00  0.00    +0.000 OA
ATOM      9  C   UNL     1       1.611   2.986  21.395  0.00  0.00    +0.000 C 
ATOM     10  O   UNL     1       1.620   2.153  22.275  0.00  0.00    +0.000 OA
ATOM     11  C   UNL     1       2.578   4.122  21.279  0.00  0.00    +0.000 C 
BRANCH   6  12
ATOM     12  C   UNL     1       2.504   6.196  19.840  0.00  0.00    +0.000 C 
BRANCH  12  13
ATOM     13  O   UNL     1       1.690   6.837  20.822  0.00  0.00    +0.000 OA
ATOM     14  H   UNL     1       2.291   7.228  21.483  0.00  0.00    +0.000 HD
ENDBRANCH  12  13
ENDBRANCH   6  12
ENDBRANCH   5   6
ENDBRANCH   3   5
ENDBRANCH   2   3
ENDBRANCH   1   2
BRANCH   1  15
ATOM     15  C   UNL     1       7.149   5.149  18.121  0.00  0.00    +0.000 C 
BRANCH  15  16
ATOM     16  C   UNL     1       7.767   6.380  18.763  0.00  0.00    +0.000 C 
BRANCH  16  17
ATOM     17  C   UNL     1       7.805   7.531  17.769  0.00  0.00    +0.000 C 
BRANCH  17  18
ATOM     18  C   UNL     1       8.563   8.714  18.350  0.00  0.00    +0.000 C 
BRANCH  18  19
ATOM     19  C   UNL     1       7.966  10.015  17.841  0.00  0.00    +0.000 C 
BRANCH  19  20
ATOM     20  C   UNL     1       8.969  11.145  17.987  0.00  0.00    +0.000 C 
BRANCH  20  21
ATOM     21  C   UNL     1      10.136  10.701  18.856  0.00  0.00    +0.000 C 
BRANCH  21  22
ATOM     22  C   UNL     1      10.086  11.414  20.197  0.00  0.00    +0.000 C 
BRANCH  22  23
ATOM     23  C   UNL     1      11.424  12.072  20.490  0.00  0.00    +0.000 C 
BRANCH  23  24
ATOM     24  C   UNL     1      12.102  12.487  19.193  0.00  0.00    +0.000 C 
BRANCH  24  25
ATOM     25  C   UNL     1      12.157  14.004  19.089  0.00  0.00    +0.000 C 
BRANCH  25  27
ATOM     26  C   UNL     1      11.906  13.321  16.699  0.00  0.00    +0.000 C 
ATOM     27  C   UNL     1      12.315  14.439  17.638  0.00  0.00    +0.000 C 
ENDBRANCH  25  27
ENDBRANCH  24  25
ENDBRANCH  23  24
ENDBRANCH  22  23
ENDBRANCH  21  22
ENDBRANCH  20  21
ENDBRANCH  19  20
ENDBRANCH  18  19
ENDBRANCH  17  18
ENDBRANCH  16  17
ENDBRANCH  15  16
ENDBRANCH   1  15
TORSDOF 18
ENDMDL
MODEL 3
REMARK VINA RESULT:      -5.9      5.381      9.583
REMARK  Name = 
REMARK  19 active torsions:
REMARK  status: ('A' for Active; 'I' for Inactive)
REMARK    1  A    between atoms: C_1  and  C_2
REMARK    2  A    between atoms: C_2  and  C_3
REMARK    3  A    between atoms: C_3  and  C_4
REMARK    4  A    between atoms: C_4  and  C_5
REMARK    5  A    between atoms: C_5  and  C_6
REMARK    6  A    between atoms: C_6  and  C_7
REMARK    7  A    between atoms: C_7  and  C_8
REMARK    8  A    between atoms: C_8  and  C_9
REMARK    9  A    between atoms: C_9  and  C_10
REMARK   10  A    between atoms: C_10  and  C_11
REMARK   11  A    between atoms: C_11  and  C_12
REMARK   12  A    between atoms: C_12  and  C_13
REMARK   13  A    between atoms: C_13  and  C_14
REMARK   14  A    between atoms: C_14  and  O_15
REMARK   15  A    between atoms: O_15  and  C_16
REMARK   16  A    between atoms: C_16  and  C_18
REMARK   17  A    between atoms: C_18  and  C_19
REMARK   18  A    between atoms: C_19  and  C_20
REMARK   19  A    between atoms: C_20  and  O_21
REMARK                            x       y       z     vdW  Elec       q    Type
REMARK                         _______ _______ _______ _____ _____    ______ ____
ROOT
ATOM      1  C   UNL     1       1.815   9.014  17.829  0.00  0.00    +0.000 C 
ENDROOT
BRANCH   1   2
ATOM      2  O   UNL     1       1.829   9.880  18.965  0.00  0.00    +0.000 OA
BRANCH   2   3
ATOM      3  C   UNL     1       0.575  10.204  19.393  0.00  0.00    +0.000 C 
ATOM      4  O   UNL     1      -0.113   9.538  20.143  0.00  0.00    +0.000 OA
BRANCH   3   5
ATOM      5  C   UNL     1       0.043  11.438  18.701  0.00  0.00    +0.000 C 
BRANCH   5   6
ATOM      6  C   UNL     1       0.545  12.754  19.335  0.00  0.00    +0.000 C 
ATOM      7  C   UNL     1      -0.627  13.726  19.533  0.00  0.00    +0.000 C 
ATOM      8  O   UNL     1      -1.133  13.487  20.849  0.00  0.00    +0.000 OA
ATOM      9  C   UNL     1      -0.206  12.839  21.600  0.00  0.00    +0.000 C 
ATOM     10  O   UNL     1      -0.330  12.573  22.775  0.00  0.00    +0.000 OA
ATOM     11  C   UNL     1       1.006  12.538  20.777  0.00  0.00    +0.000 C 
BRANCH   6  12
ATOM     12  C   UNL     1       1.678  13.366  18.487  0.00  0.00    +0.000 C 
BRANCH  12  13
ATOM     13  O   UNL     1       2.159  12.465  17.491  0.00  0.00    +0.000 OA
ATOM     14  H   UNL     1       1.559  12.534  16.725  0.00  0.00    +0.000 HD
ENDBRANCH  12  13
ENDBRANCH   6  12
ENDBRANCH   5   6
ENDBRANCH   3   5
ENDBRANCH   2   3
ENDBRANCH   1   2
BRANCH   1  15
ATOM     15  C   UNL     1       2.874   7.932  17.976  0.00  0.00    +0.000 C 
BRANCH  15  16
ATOM     16  C   UNL     1       2.253   6.644  18.494  0.00  0.00    +0.000 C 
BRANCH  16  17
ATOM     17  C   UNL     1       2.206   6.656  20.014  0.00  0.00    +0.000 C 
BRANCH  17  18
ATOM     18  C   UNL     1       2.283   5.240  20.561  0.00  0.00    +0.000 C 
BRANCH  18  19
ATOM     19  C   UNL     1       0.946   4.541  20.388  0.00  0.00    +0.000 C 
BRANCH  19  20
ATOM     20  C   UNL     1       1.150   3.043  20.250  0.00  0.00    +0.000 C 
BRANCH  20  21
ATOM     21  C   UNL     1       1.000   2.625  18.795  0.00  0.00    +0.000 C 
BRANCH  21  22
ATOM     22  C   UNL     1       2.366   2.361  18.187  0.00  0.00    +0.000 C 
BRANCH  22  23
ATOM     23  C   UNL     1       2.668   3.391  17.110  0.00  0.00    +0.000 C 
BRANCH  23  24
ATOM     24  C   UNL     1       4.134   3.794  17.165  0.00  0.00    +0.000 C 
BRANCH  24  25
ATOM     25  C   UNL     1       4.707   3.509  18.546  0.00  0.00    +0.000 C 
BRANCH  25  27
ATOM     26  C   UNL     1       5.864   5.647  17.968  0.00  0.00    +0.000 C 
ATOM     27  C   UNL     1       5.423   4.735  19.097  0.00  0.00    +0.000 C 
ENDBRANCH  25  27
ENDBRANCH  24  25
ENDBRANCH  23  24
ENDBRANCH  22  23
ENDBRANCH  21  22
ENDBRANCH  20  21
ENDBRANCH  19  20
ENDBRANCH  18  19
ENDBRANCH  17  18
ENDBRANCH  16  17
ENDBRANCH  15  16
ENDBRANCH   1  15
TORSDOF 18
ENDMDL
MODEL 4
REMARK VINA RESULT:      -5.8      7.808     11.380
REMARK  Name = 
REMARK  19 active torsions:
REMARK  status: ('A' for Active; 'I' for Inactive)
REMARK    1  A    between atoms: C_1  and  C_2
REMARK    2  A    between atoms: C_2  and  C_3
REMARK    3  A    between atoms: C_3  and  C_4
REMARK    4  A    between atoms: C_4  and  C_5
REMARK    5  A    between atoms: C_5  and  C_6
REMARK    6  A    between atoms: C_6  and  C_7
REMARK    7  A    between atoms: C_7  and  C_8
REMARK    8  A    between atoms: C_8  and  C_9
REMARK    9  A    between atoms: C_9  and  C_10
REMARK   10  A    between atoms: C_10  and  C_11
REMARK   11  A    between atoms: C_11  and  C_12
REMARK   12  A    between atoms: C_12  and  C_13
REMARK   13  A    between atoms: C_13  and  C_14
REMARK   14  A    between atoms: C_14  and  O_15
REMARK   15  A    between atoms: O_15  and  C_16
REMARK   16  A    between atoms: C_16  and  C_18
REMARK   17  A    between atoms: C_18  and  C_19
REMARK   18  A    between atoms: C_19  and  C_20
REMARK   19  A    between atoms: C_20  and  O_21
REMARK                            x       y       z     vdW  Elec       q    Type
REMARK                         _______ _______ _______ _____ _____    ______ ____
ROOT
ATOM      1  C   UNL     1      -1.958  10.591  17.720  0.00  0.00    +0.000 C 
ENDROOT
BRANCH   1   2
ATOM      2  O   UNL     1      -3.254  10.530  18.320  0.00  0.00    +0.000 OA
BRANCH   2   3
ATOM      3  C   UNL     1      -4.158  11.341  17.701  0.00  0.00    +0.000 C 
ATOM      4  O   UNL     1      -4.259  11.503  16.500  0.00  0.00    +0.000 OA
BRANCH   3   5
ATOM      5  C   UNL     1      -4.949  12.166  18.690  0.00  0.00    +0.000 C 
BRANCH   5   6
ATOM      6  C   UNL     1      -6.474  11.947  18.582  0.00  0.00    +0.000 C 
ATOM      7  C   UNL     1      -6.788  10.446  18.513  0.00  0.00    +0.000 C 
ATOM      8  O   UNL     1      -6.994  10.013  19.861  0.00  0.00    +0.000 OA
ATOM      9  C   UNL     1      -7.261  11.076  20.662  0.00  0.00    +0.000 C 
ATOM     10  O   UNL     1      -7.552  11.002  21.836  0.00  0.00    +0.000 OA
ATOM     11  C   UNL     1      -7.186  12.346  19.875  0.00  0.00    +0.000 C 
BRANCH   6  12
ATOM     12  C   UNL     1      -7.050  12.723  17.382  0.00  0.00    +0.000 C 
BRANCH  12  13
ATOM     13  O   UNL     1      -6.201  13.793  16.968  0.00  0.00    +0.000 OA
ATOM     14  H   UNL     1      -6.762  14.585  16.872  0.00  0.00    +0.000 HD
ENDBRANCH  12  13
ENDBRANCH   6  12
ENDBRANCH   5   6
ENDBRANCH   3   5
ENDBRANCH   2   3
ENDBRANCH   1   2
BRANCH   1  15
ATOM     15  C   UNL     1      -0.901  10.090  18.693  0.00  0.00    +0.000 C 
BRANCH  15  16
ATOM     16  C   UNL     1       0.374   9.722  17.951  0.00  0.00    +0.000 C 
BRANCH  16  17
ATOM     17  C   UNL     1       1.460   9.319  18.937  0.00  0.00    +0.000 C 
BRANCH  17  18
ATOM     18  C   UNL     1       2.232   8.116  18.418  0.00  0.00    +0.000 C 
BRANCH  18  19
ATOM     19  C   UNL     1       2.236   7.011  19.460  0.00  0.00    +0.000 C 
BRANCH  19  20
ATOM     20  C   UNL     1       3.374   6.042  19.193  0.00  0.00    +0.000 C 
BRANCH  20  21
ATOM     21  C   UNL     1       3.218   5.417  17.815  0.00  0.00    +0.000 C 
BRANCH  21  22
ATOM     22  C   UNL     1       1.960   4.567  17.769  0.00  0.00    +0.000 C 
BRANCH  22  23
ATOM     23  C   UNL     1       2.322   3.107  17.547  0.00  0.00    +0.000 C 
BRANCH  23  24
ATOM     24  C   UNL     1       2.025   2.296  18.799  0.00  0.00    +0.000 C 
BRANCH  24  25
ATOM     25  C   UNL     1       0.816   2.870  19.524  0.00  0.00    +0.000 C 
BRANCH  25  27
ATOM     26  C   UNL     1       2.558   2.812  21.315  0.00  0.00    +0.000 C 
ATOM     27  C   UNL     1       1.205   3.367  20.911  0.00  0.00    +0.000 C 
ENDBRANCH  25  27
ENDBRANCH  24  25
ENDBRANCH  23  24
ENDBRANCH  22  23
ENDBRANCH  21  22
ENDBRANCH  20  21
ENDBRANCH  19  20
ENDBRANCH  18  19
ENDBRANCH  17  18
ENDBRANCH  16  17
ENDBRANCH  15  16
ENDBRANCH   1  15
TORSDOF 18
ENDMDL
MODEL 5
REMARK VINA RESULT:      -5.8      5.432      9.039
REMARK  Name = 
REMARK  19 active torsions:
REMARK  status: ('A' for Active; 'I' for Inactive)
REMARK    1  A    between atoms: C_1  and  C_2
REMARK    2  A    between atoms: C_2  and  C_3
REMARK    3  A    between atoms: C_3  and  C_4
REMARK    4  A    between atoms: C_4  and  C_5
REMARK    5  A    between atoms: C_5  and  C_6
REMARK    6  A    between atoms: C_6  and  C_7
REMARK    7  A    between atoms: C_7  and  C_8
REMARK    8  A    between atoms: C_8  and  C_9
REMARK    9  A    between atoms: C_9  and  C_10
REMARK   10  A    between atoms: C_10  and  C_11
REMARK   11  A    between atoms: C_11  and  C_12
REMARK   12  A    between atoms: C_12  and  C_13
REMARK   13  A    between atoms: C_13  and  C_14
REMARK   14  A    between atoms: C_14  and  O_15
REMARK   15  A    between atoms: O_15  and  C_16
REMARK   16  A    between atoms: C_16  and  C_18
REMARK   17  A    between atoms: C_18  and  C_19
REMARK   18  A    between atoms: C_19  and  C_20
REMARK   19  A    between atoms: C_20  and  O_21
REMARK                            x       y       z     vdW  Elec       q    Type
REMARK                         _______ _______ _______ _____ _____    ______ ____
ROOT
ATOM      1  C   UNL     1       2.383   6.664  18.449  0.00  0.00    +0.000 C 
ENDROOT
BRANCH   1   2
ATOM      2  O   UNL     1       2.904   7.994  18.406  0.00  0.00    +0.000 OA
BRANCH   2   3
ATOM      3  C   UNL     1       1.925   8.938  18.296  0.00  0.00    +0.000 C 
ATOM      4  O   UNL     1       1.729   9.646  17.326  0.00  0.00    +0.000 OA
BRANCH   3   5
ATOM      5  C   UNL     1       1.179   9.133  19.595  0.00  0.00    +0.000 C 
BRANCH   5   6
ATOM      6  C   UNL     1       0.252  10.369  19.583  0.00  0.00    +0.000 C 
ATOM      7  C   UNL     1      -0.370  10.576  20.971  0.00  0.00    +0.000 C 
ATOM      8  O   UNL     1       0.507  11.455  21.681  0.00  0.00    +0.000 OA
ATOM      9  C   UNL     1       1.311  12.121  20.814  0.00  0.00    +0.000 C 
ATOM     10  O   UNL     1       2.101  12.985  21.126  0.00  0.00    +0.000 OA
ATOM     11  C   UNL     1       1.051  11.662  19.413  0.00  0.00    +0.000 C 
BRANCH   6  12
ATOM     12  C   UNL     1      -0.812  10.238  18.476  0.00  0.00    +0.000 C 
BRANCH  12  13
ATOM     13  O   UNL     1      -0.850  11.380  17.620  0.00  0.00    +0.000 OA
ATOM     14  H   UNL     1      -1.478  11.181  16.902  0.00  0.00    +0.000 HD
ENDBRANCH  12  13
ENDBRANCH   6  12
ENDBRANCH   5   6
ENDBRANCH   3   5
ENDBRANCH   2   3
ENDBRANCH   1   2
BRANCH   1  15
ATOM     15  C   UNL     1       2.938   5.917  19.652  0.00  0.00    +0.000 C 
BRANCH  15  16
ATOM     16  C   UNL     1       1.856   5.718  20.702  0.00  0.00    +0.000 C 
BRANCH  16  17
ATOM     17  C   UNL     1       0.939   4.572  20.303  0.00  0.00    +0.000 C 
BRANCH  17  18
ATOM     18  C   UNL     1       1.378   3.280  20.975  0.00  0.00    +0.000 C 
BRANCH  18  19
ATOM     19  C   UNL     1       1.472   2.165  19.948  0.00  0.00    +0.000 C 
BRANCH  19  20
ATOM     20  C   UNL     1       1.256   2.717  18.551  0.00  0.00    +0.000 C 
BRANCH  20  21
ATOM     21  C   UNL     1       2.397   2.297  17.639  0.00  0.00    +0.000 C 
BRANCH  21  22
ATOM     22  C   UNL     1       3.689   2.203  18.432  0.00  0.00    +0.000 C 
BRANCH  22  23
ATOM     23  C   UNL     1       4.605   3.364  18.081  0.00  0.00    +0.000 C 
BRANCH  23  24
ATOM     24  C   UNL     1       4.201   3.967  16.744  0.00  0.00    +0.000 C 
BRANCH  24  25
ATOM     25  C   UNL     1       5.376   4.710  16.125  0.00  0.00    +0.000 C 
BRANCH  25  27
ATOM     26  C   UNL     1       6.937   4.807  14.176  0.00  0.00    +0.000 C 
ATOM     27  C   UNL     1       5.655   4.201  14.717  0.00  0.00    +0.000 C 
ENDBRANCH  25  27
ENDBRANCH  24  25
ENDBRANCH  23  24
ENDBRANCH  22  23
ENDBRANCH  21  22
ENDBRANCH  20  21
ENDBRANCH  19  20
ENDBRANCH  18  19
ENDBRANCH  17  18
ENDBRANCH  16  17
ENDBRANCH  15  16
ENDBRANCH   1  15
TORSDOF 18
ENDMDL
MODEL 6
REMARK VINA RESULT:      -5.8      4.329      7.852
REMARK  Name = 
REMARK  19 active torsions:
REMARK  status: ('A' for Active; 'I' for Inactive)
REMARK    1  A    between atoms: C_1  and  C_2
REMARK    2  A    between atoms: C_2  and  C_3
REMARK    3  A    between atoms: C_3  and  C_4
REMARK    4  A    between atoms: C_4  and  C_5
REMARK    5  A    between atoms: C_5  and  C_6
REMARK    6  A    between atoms: C_6  and  C_7
REMARK    7  A    between atoms: C_7  and  C_8
REMARK    8  A    between atoms: C_8  and  C_9
REMARK    9  A    between atoms: C_9  and  C_10
REMARK   10  A    between atoms: C_10  and  C_11
REMARK   11  A    between atoms: C_11  and  C_12
REMARK   12  A    between atoms: C_12  and  C_13
REMARK   13  A    between atoms: C_13  and  C_14
REMARK   14  A    between atoms: C_14  and  O_15
REMARK   15  A    between atoms: O_15  and  C_16
REMARK   16  A    between atoms: C_16  and  C_18
REMARK   17  A    between atoms: C_18  and  C_19
REMARK   18  A    between atoms: C_19  and  C_20
REMARK   19  A    between atoms: C_20  and  O_21
REMARK                            x       y       z     vdW  Elec       q    Type
REMARK                         _______ _______ _______ _____ _____    ______ ____
ROOT
ATOM      1  C   UNL     1       3.101   2.571  18.965  0.00  0.00    +0.000 C 
ENDROOT
BRANCH   1   2
ATOM      2  O   UNL     1       4.258   2.677  18.132  0.00  0.00    +0.000 OA
BRANCH   2   3
ATOM      3  C   UNL     1       5.063   3.721  18.482  0.00  0.00    +0.000 C 
ATOM      4  O   UNL     1       5.585   3.880  19.568  0.00  0.00    +0.000 OA
BRANCH   3   5
ATOM      5  C   UNL     1       5.121   4.777  17.402  0.00  0.00    +0.000 C 
BRANCH   5   6
ATOM      6  C   UNL     1       6.559   5.087  16.932  0.00  0.00    +0.000 C 
ATOM      7  C   UNL     1       6.853   6.586  17.084  0.00  0.00    +0.000 C 
ATOM      8  O   UNL     1       7.425   6.757  18.383  0.00  0.00    +0.000 OA
ATOM      9  C   UNL     1       7.894   5.573  18.852  0.00  0.00    +0.000 C 
ATOM     10  O   UNL     1       8.496   5.430  19.894  0.00  0.00    +0.000 OA
ATOM     11  C   UNL     1       7.597   4.478  17.877  0.00  0.00    +0.000 C 
BRANCH   6  12
ATOM     12  C   UNL     1       6.778   4.588  15.490  0.00  0.00    +0.000 C 
BRANCH  12  13
ATOM     13  O   UNL     1       7.756   5.357  14.791  0.00  0.00    +0.000 OA
ATOM     14  H   UNL     1       8.413   5.654  15.448  0.00  0.00    +0.000 HD
ENDBRANCH  12  13
ENDBRANCH   6  12
ENDBRANCH   5   6
ENDBRANCH   3   5
ENDBRANCH   2   3
ENDBRANCH   1   2
BRANCH   1  15
ATOM     15  C   UNL     1       1.837   2.776  18.143  0.00  0.00    +0.000 C 
BRANCH  15  16
ATOM     16  C   UNL     1       1.483   4.252  18.068  0.00  0.00    +0.000 C 
BRANCH  16  17
ATOM     17  C   UNL     1       1.782   4.934  19.394  0.00  0.00    +0.000 C 
BRANCH  17  18
ATOM     18  C   UNL     1       2.561   6.220  19.170  0.00  0.00    +0.000 C 
BRANCH  18  19
ATOM     19  C   UNL     1       1.989   6.975  17.982  0.00  0.00    +0.000 C 
BRANCH  19  20
ATOM     20  C   UNL     1       2.590   8.366  17.905  0.00  0.00    +0.000 C 
BRANCH  20  21
ATOM     21  C   UNL     1       1.726   9.355  18.673  0.00  0.00    +0.000 C 
BRANCH  21  22
ATOM     22  C   UNL     1       0.417   9.583  17.936  0.00  0.00    +0.000 C 
BRANCH  22  23
ATOM     23  C   UNL     1      -0.322  10.769  18.535  0.00  0.00    +0.000 C 
BRANCH  23  24
ATOM     24  C   UNL     1      -1.821  10.607  18.339  0.00  0.00    +0.000 C 
BRANCH  24  25
ATOM     25  C   UNL     1      -2.106   9.865  17.041  0.00  0.00    +0.000 C 
BRANCH  25  27
ATOM     26  C   UNL     1      -3.003  10.196  14.733  0.00  0.00    +0.000 C 
ATOM     27  C   UNL     1      -3.091  10.644  16.180  0.00  0.00    +0.000 C 
ENDBRANCH  25  27
ENDBRANCH  24  25
ENDBRANCH  23  24
ENDBRANCH  22  23
ENDBRANCH  21  22
ENDBRANCH  20  21
ENDBRANCH  19  20
ENDBRANCH  18  19
ENDBRANCH  17  18
ENDBRANCH  16  17
ENDBRANCH  15  16
ENDBRANCH   1  15
TORSDOF 18
ENDMDL
MODEL 7
REMARK VINA RESULT:      -5.7      4.052      6.828
REMARK  Name = 
REMARK  19 active torsions:
REMARK  status: ('A' for Active; 'I' for Inactive)
REMARK    1  A    between atoms: C_1  and  C_2
REMARK    2  A    between atoms: C_2  and  C_3
REMARK    3  A    between atoms: C_3  and  C_4
REMARK    4  A    between atoms: C_4  and  C_5
REMARK    5  A    between atoms: C_5  and  C_6
REMARK    6  A    between atoms: C_6  and  C_7
REMARK    7  A    between atoms: C_7  and  C_8
REMARK    8  A    between atoms: C_8  and  C_9
REMARK    9  A    between atoms: C_9  and  C_10
REMARK   10  A    between atoms: C_10  and  C_11
REMARK   11  A    between atoms: C_11  and  C_12
REMARK   12  A    between atoms: C_12  and  C_13
REMARK   13  A    between atoms: C_13  and  C_14
REMARK   14  A    between atoms: C_14  and  O_15
REMARK   15  A    between atoms: O_15  and  C_16
REMARK   16  A    between atoms: C_16  and  C_18
REMARK   17  A    between atoms: C_18  and  C_19
REMARK   18  A    between atoms: C_19  and  C_20
REMARK   19  A    between atoms: C_20  and  O_21
REMARK                            x       y       z     vdW  Elec       q    Type
REMARK                         _______ _______ _______ _____ _____    ______ ____
ROOT
ATOM      1  C   UNL     1       4.522   2.758  19.591  0.00  0.00    +0.000 C 
ENDROOT
BRANCH   1   2
ATOM      2  O   UNL     1       4.780   4.061  19.064  0.00  0.00    +0.000 OA
BRANCH   2   3
ATOM      3  C   UNL     1       4.792   4.083  17.700  0.00  0.00    +0.000 C 
ATOM      4  O   UNL     1       4.658   3.116  16.974  0.00  0.00    +0.000 OA
BRANCH   3   5
ATOM      5  C   UNL     1       5.155   5.447  17.159  0.00  0.00    +0.000 C 
BRANCH   5   6
ATOM      6  C   UNL     1       6.649   5.575  16.789  0.00  0.00    +0.000 C 
ATOM      7  C   UNL     1       7.182   6.951  17.210  0.00  0.00    +0.000 C 
ATOM      8  O   UNL     1       7.701   6.797  18.534  0.00  0.00    +0.000 OA
ATOM      9  C   UNL     1       7.938   5.487  18.798  0.00  0.00    +0.000 C 
ATOM     10  O   UNL     1       8.448   5.066  19.813  0.00  0.00    +0.000 OA
ATOM     11  C   UNL     1       7.516   4.642  17.637  0.00  0.00    +0.000 C 
BRANCH   6  12
ATOM     12  C   UNL     1       6.861   5.298  15.287  0.00  0.00    +0.000 C 
BRANCH  12  13
ATOM     13  O   UNL     1       6.559   3.948  14.936  0.00  0.00    +0.000 OA
ATOM     14  H   UNL     1       7.368   3.424  15.083  0.00  0.00    +0.000 HD
ENDBRANCH  12  13
ENDBRANCH   6  12
ENDBRANCH   5   6
ENDBRANCH   3   5
ENDBRANCH   2   3
ENDBRANCH   1   2
BRANCH   1  15
ATOM     15  C   UNL     1       3.036   2.581  19.861  0.00  0.00    +0.000 C 
BRANCH  15  16
ATOM     16  C   UNL     1       2.592   3.475  21.009  0.00  0.00    +0.000 C 
BRANCH  16  17
ATOM     17  C   UNL     1       1.247   4.110  20.692  0.00  0.00    +0.000 C 
BRANCH  17  18
ATOM     18  C   UNL     1       1.386   5.618  20.562  0.00  0.00    +0.000 C 
BRANCH  18  19
ATOM     19  C   UNL     1       2.142   5.964  19.291  0.00  0.00    +0.000 C 
BRANCH  19  20
ATOM     20  C   UNL     1       2.482   7.443  19.268  0.00  0.00    +0.000 C 
BRANCH  20  21
ATOM     21  C   UNL     1       2.324   7.996  17.860  0.00  0.00    +0.000 C 
BRANCH  21  22
ATOM     22  C   UNL     1       1.959   9.469  17.917  0.00  0.00    +0.000 C 
BRANCH  22  23
ATOM     23  C   UNL     1       0.448   9.633  17.939  0.00  0.00    +0.000 C 
BRANCH  23  24
ATOM     24  C   UNL     1       0.059  10.798  18.837  0.00  0.00    +0.000 C 
BRANCH  24  25
ATOM     25  C   UNL     1       1.266  11.687  19.100  0.00  0.00    +0.000 C 
BRANCH  25  27
ATOM     26  C   UNL     1      -0.081  11.870  21.196  0.00  0.00    +0.000 C 
ATOM     27  C   UNL     1       1.183  12.315  20.484  0.00  0.00    +0.000 C 
ENDBRANCH  25  27
ENDBRANCH  24  25
ENDBRANCH  23  24
ENDBRANCH  22  23
ENDBRANCH  21  22
ENDBRANCH  20  21
ENDBRANCH  19  20
ENDBRANCH  18  19
ENDBRANCH  17  18
ENDBRANCH  16  17
ENDBRANCH  15  16
ENDBRANCH   1  15
TORSDOF 18
ENDMDL
MODEL 8
REMARK VINA RESULT:      -5.7      4.332      6.963
REMARK  Name = 
REMARK  19 active torsions:
REMARK  status: ('A' for Active; 'I' for Inactive)
REMARK    1  A    between atoms: C_1  and  C_2
REMARK    2  A    between atoms: C_2  and  C_3
REMARK    3  A    between atoms: C_3  and  C_4
REMARK    4  A    between atoms: C_4  and  C_5
REMARK    5  A    between atoms: C_5  and  C_6
REMARK    6  A    between atoms: C_6  and  C_7
REMARK    7  A    between atoms: C_7  and  C_8
REMARK    8  A    between atoms: C_8  and  C_9
REMARK    9  A    between atoms: C_9  and  C_10
REMARK   10  A    between atoms: C_10  and  C_11
REMARK   11  A    between atoms: C_11  and  C_12
REMARK   12  A    between atoms: C_12  and  C_13
REMARK   13  A    between atoms: C_13  and  C_14
REMARK   14  A    between atoms: C_14  and  O_15
REMARK   15  A    between atoms: O_15  and  C_16
REMARK   16  A    between atoms: C_16  and  C_18
REMARK   17  A    between atoms: C_18  and  C_19
REMARK   18  A    between atoms: C_19  and  C_20
REMARK   19  A    between atoms: C_20  and  O_21
REMARK                            x       y       z     vdW  Elec       q    Type
REMARK                         _______ _______ _______ _____ _____    ______ ____
ROOT
ATOM      1  C   UNL     1       3.003   1.996  18.709  0.00  0.00    +0.000 C 
ENDROOT
BRANCH   1   2
ATOM      2  O   UNL     1       3.764   2.750  17.763  0.00  0.00    +0.000 OA
BRANCH   2   3
ATOM      3  C   UNL     1       4.629   3.620  18.359  0.00  0.00    +0.000 C 
ATOM      4  O   UNL     1       5.165   3.459  19.438  0.00  0.00    +0.000 OA
BRANCH   3   5
ATOM      5  C   UNL     1       4.742   4.918  17.593  0.00  0.00    +0.000 C 
BRANCH   5   6
ATOM      6  C   UNL     1       6.138   5.135  16.968  0.00  0.00    +0.000 C 
ATOM      7  C   UNL     1       6.541   6.613  17.076  0.00  0.00    +0.000 C 
ATOM      8  O   UNL     1       7.260   6.747  18.305  0.00  0.00    +0.000 OA
ATOM      9  C   UNL     1       7.701   5.535  18.729  0.00  0.00    +0.000 C 
ATOM     10  O   UNL     1       8.402   5.354  19.700  0.00  0.00    +0.000 OA
ATOM     11  C   UNL     1       7.231   4.461  17.799  0.00  0.00    +0.000 C 
BRANCH   6  12
ATOM     12  C   UNL     1       6.166   4.624  15.515  0.00  0.00    +0.000 C 
BRANCH  12  13
ATOM     13  O   UNL     1       7.450   4.775  14.910  0.00  0.00    +0.000 OA
ATOM     14  H   UNL     1       7.534   5.708  14.641  0.00  0.00    +0.000 HD
ENDBRANCH  12  13
ENDBRANCH   6  12
ENDBRANCH   5   6
ENDBRANCH   3   5
ENDBRANCH   2   3
ENDBRANCH   1   2
BRANCH   1  15
ATOM     15  C   UNL     1       1.547   2.434  18.687  0.00  0.00    +0.000 C 
BRANCH  15  16
ATOM     16  C   UNL     1       1.443   3.948  18.784  0.00  0.00    +0.000 C 
BRANCH  16  17
ATOM     17  C   UNL     1       0.971   4.355  20.171  0.00  0.00    +0.000 C 
BRANCH  17  18
ATOM     18  C   UNL     1       1.971   5.299  20.820  0.00  0.00    +0.000 C 
BRANCH  18  19
ATOM     19  C   UNL     1       2.640   6.158  19.760  0.00  0.00    +0.000 C 
BRANCH  19  20
ATOM     20  C   UNL     1       1.851   7.437  19.545  0.00  0.00    +0.000 C 
BRANCH  20  21
ATOM     21  C   UNL     1       2.422   8.213  18.368  0.00  0.00    +0.000 C 
BRANCH  21  22
ATOM     22  C   UNL     1       1.428   9.266  17.909  0.00  0.00    +0.000 C 
BRANCH  22  23
ATOM     23  C   UNL     1       0.508   9.654  19.055  0.00  0.00    +0.000 C 
BRANCH  23  24
ATOM     24  C   UNL     1       0.812  11.070  19.517  0.00  0.00    +0.000 C 
BRANCH  24  25
ATOM     25  C   UNL     1       0.734  11.158  21.035  0.00  0.00    +0.000 C 
BRANCH  25  27
ATOM     26  C   UNL     1      -0.669  10.601  23.026  0.00  0.00    +0.000 C 
ATOM     27  C   UNL     1      -0.666  10.811  21.523  0.00  0.00    +0.000 C 
ENDBRANCH  25  27
ENDBRANCH  24  25
ENDBRANCH  23  24
ENDBRANCH  22  23
ENDBRANCH  21  22
ENDBRANCH  20  21
ENDBRANCH  19  20
ENDBRANCH  18  19
ENDBRANCH  17  18
ENDBRANCH  16  17
ENDBRANCH  15  16
ENDBRANCH   1  15
TORSDOF 18
ENDMDL
MODEL 9
REMARK VINA RESULT:      -5.7      4.542     10.337
REMARK  Name = 
REMARK  19 active torsions:
REMARK  status: ('A' for Active; 'I' for Inactive)
REMARK    1  A    between atoms: C_1  and  C_2
REMARK    2  A    between atoms: C_2  and  C_3
REMARK    3  A    between atoms: C_3  and  C_4
REMARK    4  A    between atoms: C_4  and  C_5
REMARK    5  A    between atoms: C_5  and  C_6
REMARK    6  A    between atoms: C_6  and  C_7
REMARK    7  A    between atoms: C_7  and  C_8
REMARK    8  A    between atoms: C_8  and  C_9
REMARK    9  A    between atoms: C_9  and  C_10
REMARK   10  A    between atoms: C_10  and  C_11
REMARK   11  A    between atoms: C_11  and  C_12
REMARK   12  A    between atoms: C_12  and  C_13
REMARK   13  A    between atoms: C_13  and  C_14
REMARK   14  A    between atoms: C_14  and  O_15
REMARK   15  A    between atoms: O_15  and  C_16
REMARK   16  A    between atoms: C_16  and  C_18
REMARK   17  A    between atoms: C_18  and  C_19
REMARK   18  A    between atoms: C_19  and  C_20
REMARK   19  A    between atoms: C_20  and  O_21
REMARK                            x       y       z     vdW  Elec       q    Type
REMARK                         _______ _______ _______ _____ _____    ______ ____
ROOT
ATOM      1  C   UNL     1       8.633   9.032  18.824  0.00  0.00    +0.000 C 
ENDROOT
BRANCH   1   2
ATOM      2  O   UNL     1       9.119  10.329  18.470  0.00  0.00    +0.000 OA
BRANCH   2   3
ATOM      3  C   UNL     1       9.646  11.000  19.533  0.00  0.00    +0.000 C 
ATOM      4  O   UNL     1       9.104  11.161  20.610  0.00  0.00    +0.000 OA
BRANCH   3   5
ATOM      5  C   UNL     1      10.949  11.682  19.183  0.00  0.00    +0.000 C 
BRANCH   5   6
ATOM      6  C   UNL     1      10.753  13.031  18.458  0.00  0.00    +0.000 C 
ATOM      7  C   UNL     1       9.379  13.621  18.802  0.00  0.00    +0.000 C 
ATOM      8  O   UNL     1       9.572  14.459  19.945  0.00  0.00    +0.000 OA
ATOM      9  C   UNL     1      10.884  14.784  20.074  0.00  0.00    +0.000 C 
ATOM     10  O   UNL     1      11.330  15.543  20.907  0.00  0.00    +0.000 OA
ATOM     11  C   UNL     1      11.691  14.104  19.014  0.00  0.00    +0.000 C 
BRANCH   6  12
ATOM     12  C   UNL     1      10.957  12.866  16.939  0.00  0.00    +0.000 C 
BRANCH  12  13
ATOM     13  O   UNL     1      12.333  12.722  16.587  0.00  0.00    +0.000 OA
ATOM     14  H   UNL     1      12.725  12.083  17.211  0.00  0.00    +0.000 HD
ENDBRANCH  12  13
ENDBRANCH   6  12
ENDBRANCH   5   6
ENDBRANCH   3   5
ENDBRANCH   2   3
ENDBRANCH   1   2
BRANCH   1  15
ATOM     15  C   UNL     1       7.888   8.409  17.654  0.00  0.00    +0.000 C 
BRANCH  15  16
ATOM     16  C   UNL     1       7.595   6.942  17.928  0.00  0.00    +0.000 C 
BRANCH  16  17
ATOM     17  C   UNL     1       7.147   6.247  16.652  0.00  0.00    +0.000 C 
BRANCH  17  18
ATOM     18  C   UNL     1       7.221   4.737  16.813  0.00  0.00    +0.000 C 
BRANCH  18  19
ATOM     19  C   UNL     1       6.060   4.078  16.089  0.00  0.00    +0.000 C 
BRANCH  19  20
ATOM     20  C   UNL     1       4.743   4.659  16.571  0.00  0.00    +0.000 C 
BRANCH  20  21
ATOM     21  C   UNL     1       3.795   3.541  16.979  0.00  0.00    +0.000 C 
BRANCH  21  22
ATOM     22  C   UNL     1       3.114   3.890  18.291  0.00  0.00    +0.000 C 
BRANCH  22  23
ATOM     23  C   UNL     1       3.959   4.883  19.071  0.00  0.00    +0.000 C 
BRANCH  23  24
ATOM     24  C   UNL     1       3.080   5.985  19.644  0.00  0.00    +0.000 C 
BRANCH  24  25
ATOM     25  C   UNL     1       2.226   6.601  18.546  0.00  0.00    +0.000 C 
BRANCH  25  27
ATOM     26  C   UNL     1       2.146   8.990  17.817  0.00  0.00    +0.000 C 
ATOM     27  C   UNL     1       2.979   7.722  17.842  0.00  0.00    +0.000 C 
ENDBRANCH  25  27
ENDBRANCH  24  25
ENDBRANCH  23  24
ENDBRANCH  22  23
ENDBRANCH  21  22
ENDBRANCH  20  21
ENDBRANCH  19  20
ENDBRANCH  18  19
ENDBRANCH  17  18
ENDBRANCH  16  17
ENDBRANCH  15  16
ENDBRANCH   1  15
TORSDOF 18
ENDMDL
