MODEL 1
REMARK VINA RESULT:      -7.7      0.000      0.000
REMARK  Name = 
REMARK  3 active torsions:
REMARK  status: ('A' for Active; 'I' for Inactive)
REMARK    1  A    between atoms: C_2  and  C_10
REMARK    2  A    between atoms: N_3  and  C_4
REMARK    3  A    between atoms: C_16  and  C_17
REMARK                            x       y       z     vdW  Elec       q    Type
REMARK                         _______ _______ _______ _____ _____    ______ ____
ROOT
ATOM      1  C   UNL     1       1.361   9.775  19.764  0.00  0.00    +0.000 C 
ATOM      2  C   UNL     1       2.249   9.757  18.508  0.00  0.00    +0.000 C 
ATOM      3  C   UNL     1       2.189   8.413  17.776  0.00  0.00    +0.000 C 
ATOM      4  N   UNL     1       2.491   7.343  18.719  0.00  0.00    +0.000 N 
ATOM      5  C   UNL     1       3.507   6.432  18.519  0.00  0.00    +0.000 A 
ATOM      6  C   UNL     1       3.952   6.120  17.248  0.00  0.00    +0.000 A 
ATOM      7  C   UNL     1       5.009   5.237  17.108  0.00  0.00    +0.000 A 
ATOM      8  N   UNL     1       5.584   4.653  18.174  0.00  0.00    +0.000 NA
ATOM      9  C   UNL     1       5.082   4.994  19.366  0.00  0.00    +0.000 A 
ATOM     10  N   UNL     1       4.072   5.850  19.589  0.00  0.00    +0.000 NA
ATOM     11  C   UNL     1       1.661   7.254  19.913  0.00  0.00    +0.000 C 
ATOM     12  C   UNL     1       1.696   8.581  20.670  0.00  0.00    +0.000 C 
ENDROOT
BRANCH   7  13
ATOM     13  C   UNL     1       5.577   4.904  15.788  0.00  0.00    +0.000 A 
ATOM     14  C   UNL     1       6.935   5.140  15.499  0.00  0.00    +0.000 A 
ATOM     15  C   UNL     1       7.477   4.836  14.245  0.00  0.00    +0.000 A 
ATOM     16  C   UNL     1       6.668   4.295  13.252  0.00  0.00    +0.000 A 
ATOM     17  C   UNL     1       5.330   4.057  13.520  0.00  0.00    +0.000 A 
ATOM     18  F   UNL     1       4.545   3.539  12.567  0.00  0.00    +0.000 F 
ATOM     19  C   UNL     1       4.784   4.354  14.764  0.00  0.00    +0.000 A 
ENDBRANCH   7  13
BRANCH   1  21
ATOM     20  O   UNL     1      -0.974   9.309  20.086  0.00  0.00    +0.000 OA
ATOM     21  C   UNL     1      -0.114   9.814  19.362  0.00  0.00    +0.000 C 
ATOM     22  N   UNL     1      -0.356  10.387  18.128  0.00  0.00    +0.000 N 
ATOM     23  H   UNL     1       0.435  10.541  17.517  0.00  0.00    +0.000 HD
BRANCH  22  24
ATOM     24  C   UNL     1      -1.639  10.590  17.570  0.00  0.00    +0.000 A 
ATOM     25  C   UNL     1      -2.557  11.503  18.095  0.00  0.00    +0.000 A 
ATOM     26  C   UNL     1      -3.827  11.648  17.535  0.00  0.00    +0.000 A 
ATOM     27  C   UNL     1      -4.190  10.883  16.434  0.00  0.00    +0.000 A 
ATOM     28  C   UNL     1      -3.275   9.985  15.882  0.00  0.00    +0.000 A 
ATOM     29  C   UNL     1      -1.999   9.847  16.440  0.00  0.00    +0.000 A 
ENDBRANCH  22  24
ENDBRANCH   1  21
TORSDOF 3
ENDMDL
MODEL 2
REMARK VINA RESULT:      -7.6      0.883      1.547
REMARK  Name = 
REMARK  3 active torsions:
REMARK  status: ('A' for Active; 'I' for Inactive)
REMARK    1  A    between atoms: C_2  and  C_10
REMARK    2  A    between atoms: N_3  and  C_4
REMARK    3  A    between atoms: C_16  and  C_17
REMARK                            x       y       z     vdW  Elec       q    Type
REMARK                         _______ _______ _______ _____ _____    ______ ____
ROOT
ATOM      1  C   UNL     1       1.390   9.808  19.613  0.00  0.00    +0.000 C 
ATOM      2  C   UNL     1       2.240   9.770  18.331  0.00  0.00    +0.000 C 
ATOM      3  C   UNL     1       2.188   8.402  17.643  0.00  0.00    +0.000 C 
ATOM      4  N   UNL     1       2.543   7.370  18.609  0.00  0.00    +0.000 N 
ATOM      5  C   UNL     1       3.573   6.475  18.405  0.00  0.00    +0.000 A 
ATOM      6  C   UNL     1       3.987   6.133  17.132  0.00  0.00    +0.000 A 
ATOM      7  C   UNL     1       5.059   5.271  16.986  0.00  0.00    +0.000 A 
ATOM      8  N   UNL     1       5.680   4.732  18.052  0.00  0.00    +0.000 NA
ATOM      9  C   UNL     1       5.206   5.100  19.247  0.00  0.00    +0.000 A 
ATOM     10  N   UNL     1       4.184   5.940  19.475  0.00  0.00    +0.000 NA
ATOM     11  C   UNL     1       1.752   7.300  19.830  0.00  0.00    +0.000 C 
ATOM     12  C   UNL     1       1.779   8.651  20.544  0.00  0.00    +0.000 C 
ENDROOT
BRANCH   7  13
ATOM     13  C   UNL     1       5.595   4.909  15.660  0.00  0.00    +0.000 A 
ATOM     14  C   UNL     1       4.900   4.030  14.809  0.00  0.00    +0.000 A 
ATOM     15  C   UNL     1       5.409   3.674  13.554  0.00  0.00    +0.000 A 
ATOM     16  C   UNL     1       6.629   4.189  13.129  0.00  0.00    +0.000 A 
ATOM     17  C   UNL     1       7.326   5.056  13.955  0.00  0.00    +0.000 A 
ATOM     18  F   UNL     1       8.502   5.553  13.553  0.00  0.00    +0.000 F 
ATOM     19  C   UNL     1       6.826   5.416  15.202  0.00  0.00    +0.000 A 
ENDBRANCH   7  13
BRANCH   1  21
ATOM     20  O   UNL     1      -0.914   9.236  19.984  0.00  0.00    +0.000 OA
ATOM     21  C   UNL     1      -0.097   9.802  19.256  0.00  0.00    +0.000 C 
ATOM     22  N   UNL     1      -0.400  10.410  18.052  0.00  0.00    +0.000 N 
ATOM     23  H   UNL     1       0.366  10.618  17.424  0.00  0.00    +0.000 HD
BRANCH  22  24
ATOM     24  C   UNL     1      -1.706  10.581  17.539  0.00  0.00    +0.000 A 
ATOM     25  C   UNL     1      -2.182   9.875  16.431  0.00  0.00    +0.000 A 
ATOM     26  C   UNL     1      -3.466  10.099  15.934  0.00  0.00    +0.000 A 
ATOM     27  C   UNL     1      -4.294  11.030  16.548  0.00  0.00    +0.000 A 
ATOM     28  C   UNL     1      -3.843  11.724  17.672  0.00  0.00    +0.000 A 
ATOM     29  C   UNL     1      -2.557  11.492  18.174  0.00  0.00    +0.000 A 
ENDBRANCH  22  24
ENDBRANCH   1  21
TORSDOF 3
ENDMDL
MODEL 3
REMARK VINA RESULT:      -7.5      1.814      2.571
REMARK  Name = 
REMARK  3 active torsions:
REMARK  status: ('A' for Active; 'I' for Inactive)
REMARK    1  A    between atoms: C_2  and  C_10
REMARK    2  A    between atoms: N_3  and  C_4
REMARK    3  A    between atoms: C_16  and  C_17
REMARK                            x       y       z     vdW  Elec       q    Type
REMARK                         _______ _______ _______ _____ _____    ______ ____
ROOT
ATOM      1  C   UNL     1       0.421  11.882  20.118  0.00  0.00    +0.000 C 
ATOM      2  C   UNL     1       1.624  11.594  19.204  0.00  0.00    +0.000 C 
ATOM      3  C   UNL     1       1.433  10.316  18.382  0.00  0.00    +0.000 C 
ATOM      4  N   UNL     1       1.106   9.216  19.281  0.00  0.00    +0.000 N 
ATOM      5  C   UNL     1       1.838   8.048  19.333  0.00  0.00    +0.000 A 
ATOM      6  C   UNL     1       2.564   7.605  18.243  0.00  0.00    +0.000 A 
ATOM      7  C   UNL     1       3.321   6.454  18.367  0.00  0.00    +0.000 A 
ATOM      8  N   UNL     1       3.337   5.741  19.508  0.00  0.00    +0.000 NA
ATOM      9  C   UNL     1       2.593   6.226  20.507  0.00  0.00    +0.000 A 
ATOM     10  N   UNL     1       1.844   7.340  20.474  0.00  0.00    +0.000 NA
ATOM     11  C   UNL     1      -0.054   9.385  20.146  0.00  0.00    +0.000 C 
ATOM     12  C   UNL     1       0.102  10.654  20.981  0.00  0.00    +0.000 C 
ENDROOT
BRANCH   7  13
ATOM     13  C   UNL     1       4.169   5.955  17.267  0.00  0.00    +0.000 A 
ATOM     14  C   UNL     1       4.666   6.825  16.279  0.00  0.00    +0.000 A 
ATOM     15  C   UNL     1       5.461   6.356  15.227  0.00  0.00    +0.000 A 
ATOM     16  C   UNL     1       5.770   5.003  15.141  0.00  0.00    +0.000 A 
ATOM     17  C   UNL     1       5.288   4.133  16.105  0.00  0.00    +0.000 A 
ATOM     18  F   UNL     1       5.579   2.828  16.027  0.00  0.00    +0.000 F 
ATOM     19  C   UNL     1       4.499   4.592  17.155  0.00  0.00    +0.000 A 
ENDBRANCH   7  13
BRANCH   1  21
ATOM     20  O   UNL     1      -0.713  13.376  18.616  0.00  0.00    +0.000 OA
ATOM     21  C   UNL     1      -0.774  12.341  19.281  0.00  0.00    +0.000 C 
ATOM     22  N   UNL     1      -1.898  11.546  19.403  0.00  0.00    +0.000 N 
ATOM     23  H   UNL     1      -1.919  10.872  20.158  0.00  0.00    +0.000 HD
BRANCH  22  24
ATOM     24  C   UNL     1      -3.101  11.732  18.685  0.00  0.00    +0.000 A 
ATOM     25  C   UNL     1      -4.245  12.295  19.258  0.00  0.00    +0.000 A 
ATOM     26  C   UNL     1      -5.425  12.429  18.525  0.00  0.00    +0.000 A 
ATOM     27  C   UNL     1      -5.470  12.007  17.202  0.00  0.00    +0.000 A 
ATOM     28  C   UNL     1      -4.329  11.468  16.608  0.00  0.00    +0.000 A 
ATOM     29  C   UNL     1      -3.144  11.341  17.342  0.00  0.00    +0.000 A 
ENDBRANCH  22  24
ENDBRANCH   1  21
TORSDOF 3
ENDMDL
MODEL 4
REMARK VINA RESULT:      -7.4      1.905      2.427
REMARK  Name = 
REMARK  3 active torsions:
REMARK  status: ('A' for Active; 'I' for Inactive)
REMARK    1  A    between atoms: C_2  and  C_10
REMARK    2  A    between atoms: N_3  and  C_4
REMARK    3  A    between atoms: C_16  and  C_17
REMARK                            x       y       z     vdW  Elec       q    Type
REMARK                         _______ _______ _______ _____ _____    ______ ____
ROOT
ATOM      1  C   UNL     1       0.536  11.358  19.804  0.00  0.00    +0.000 C 
ATOM      2  C   UNL     1       1.890  11.143  19.105  0.00  0.00    +0.000 C 
ATOM      3  C   UNL     1       1.896   9.886  18.229  0.00  0.00    +0.000 C 
ATOM      4  N   UNL     1       1.465   8.747  19.028  0.00  0.00    +0.000 N 
ATOM      5  C   UNL     1       2.224   7.604  19.175  0.00  0.00    +0.000 A 
ATOM      6  C   UNL     1       3.144   7.224  18.216  0.00  0.00    +0.000 A 
ATOM      7  C   UNL     1       3.915   6.097  18.439  0.00  0.00    +0.000 A 
ATOM      8  N   UNL     1       3.763   5.347  19.546  0.00  0.00    +0.000 NA
ATOM      9  C   UNL     1       2.839   5.773  20.413  0.00  0.00    +0.000 A 
ATOM     10  N   UNL     1       2.062   6.859  20.281  0.00  0.00    +0.000 NA
ATOM     11  C   UNL     1       0.167   8.845  19.683  0.00  0.00    +0.000 C 
ATOM     12  C   UNL     1       0.124  10.090  20.566  0.00  0.00    +0.000 C 
ENDROOT
BRANCH   7  13
ATOM     13  C   UNL     1       4.959   5.666  17.490  0.00  0.00    +0.000 A 
ATOM     14  C   UNL     1       4.780   5.799  16.100  0.00  0.00    +0.000 A 
ATOM     15  C   UNL     1       5.762   5.382  15.194  0.00  0.00    +0.000 A 
ATOM     16  C   UNL     1       6.943   4.817  15.663  0.00  0.00    +0.000 A 
ATOM     17  C   UNL     1       7.135   4.678  17.028  0.00  0.00    +0.000 A 
ATOM     18  F   UNL     1       8.268   4.132  17.486  0.00  0.00    +0.000 F 
ATOM     19  C   UNL     1       6.165   5.093  17.935  0.00  0.00    +0.000 A 
ENDBRANCH   7  13
BRANCH   1  21
ATOM     20  O   UNL     1      -0.413  12.887  18.213  0.00  0.00    +0.000 OA
ATOM     21  C   UNL     1      -0.514  11.801  18.785  0.00  0.00    +0.000 C 
ATOM     22  N   UNL     1      -1.573  10.925  18.636  0.00  0.00    +0.000 N 
ATOM     23  H   UNL     1      -1.680  10.194  19.328  0.00  0.00    +0.000 HD
BRANCH  22  24
ATOM     24  C   UNL     1      -2.632  11.087  17.715  0.00  0.00    +0.000 A 
ATOM     25  C   UNL     1      -3.853  11.672  18.061  0.00  0.00    +0.000 A 
ATOM     26  C   UNL     1      -4.887  11.781  17.130  0.00  0.00    +0.000 A 
ATOM     27  C   UNL     1      -4.706  11.312  15.835  0.00  0.00    +0.000 A 
ATOM     28  C   UNL     1      -3.483  10.750  15.466  0.00  0.00    +0.000 A 
ATOM     29  C   UNL     1      -2.444  10.648  16.399  0.00  0.00    +0.000 A 
ENDBRANCH  22  24
ENDBRANCH   1  21
TORSDOF 3
ENDMDL
MODEL 5
REMARK VINA RESULT:      -7.3      3.675      5.629
REMARK  Name = 
REMARK  3 active torsions:
REMARK  status: ('A' for Active; 'I' for Inactive)
REMARK    1  A    between atoms: C_2  and  C_10
REMARK    2  A    between atoms: N_3  and  C_4
REMARK    3  A    between atoms: C_16  and  C_17
REMARK                            x       y       z     vdW  Elec       q    Type
REMARK                         _______ _______ _______ _____ _____    ______ ____
ROOT
ATOM      1  C   UNL     1      -1.145  11.810  18.934  0.00  0.00    +0.000 C 
ATOM      2  C   UNL     1      -1.469  10.328  19.187  0.00  0.00    +0.000 C 
ATOM      3  C   UNL     1      -0.385   9.632  20.016  0.00  0.00    +0.000 C 
ATOM      4  N   UNL     1       0.909   9.845  19.381  0.00  0.00    +0.000 N 
ATOM      5  C   UNL     1       1.740   8.810  19.006  0.00  0.00    +0.000 A 
ATOM      6  C   UNL     1       1.689   7.582  19.638  0.00  0.00    +0.000 A 
ATOM      7  C   UNL     1       2.509   6.563  19.188  0.00  0.00    +0.000 A 
ATOM      8  N   UNL     1       3.376   6.752  18.177  0.00  0.00    +0.000 NA
ATOM      9  C   UNL     1       3.377   7.974  17.633  0.00  0.00    +0.000 A 
ATOM     10  N   UNL     1       2.606   9.009  17.999  0.00  0.00    +0.000 NA
ATOM     11  C   UNL     1       1.320  11.224  19.152  0.00  0.00    +0.000 C 
ATOM     12  C   UNL     1       0.259  11.952  18.328  0.00  0.00    +0.000 C 
ENDROOT
BRANCH   7  13
ATOM     13  C   UNL     1       2.465   5.209  19.773  0.00  0.00    +0.000 A 
ATOM     14  C   UNL     1       1.356   4.775  20.522  0.00  0.00    +0.000 A 
ATOM     15  C   UNL     1       1.313   3.496  21.089  0.00  0.00    +0.000 A 
ATOM     16  C   UNL     1       2.385   2.627  20.921  0.00  0.00    +0.000 A 
ATOM     17  C   UNL     1       3.486   3.039  20.187  0.00  0.00    +0.000 A 
ATOM     18  F   UNL     1       4.523   2.208  20.024  0.00  0.00    +0.000 F 
ATOM     19  C   UNL     1       3.534   4.308  19.618  0.00  0.00    +0.000 A 
ENDBRANCH   7  13
BRANCH   1  21
ATOM     20  O   UNL     1      -0.371  13.253  20.691  0.00  0.00    +0.000 OA
ATOM     21  C   UNL     1      -1.313  12.611  20.225  0.00  0.00    +0.000 C 
ATOM     22  N   UNL     1      -2.554  12.486  20.820  0.00  0.00    +0.000 N 
ATOM     23  H   UNL     1      -3.162  11.747  20.490  0.00  0.00    +0.000 HD
BRANCH  22  24
ATOM     24  C   UNL     1      -2.966  13.175  21.983  0.00  0.00    +0.000 A 
ATOM     25  C   UNL     1      -3.161  14.559  22.015  0.00  0.00    +0.000 A 
ATOM     26  C   UNL     1      -3.534  15.205  23.194  0.00  0.00    +0.000 A 
ATOM     27  C   UNL     1      -3.724  14.470  24.357  0.00  0.00    +0.000 A 
ATOM     28  C   UNL     1      -3.559  13.084  24.335  0.00  0.00    +0.000 A 
ATOM     29  C   UNL     1      -3.193  12.436  23.150  0.00  0.00    +0.000 A 
ENDBRANCH  22  24
ENDBRANCH   1  21
TORSDOF 3
ENDMDL
MODEL 6
REMARK VINA RESULT:      -7.3      2.051      3.028
REMARK  Name = 
REMARK  3 active torsions:
REMARK  status: ('A' for Active; 'I' for Inactive)
REMARK    1  A    between atoms: C_2  and  C_10
REMARK    2  A    between atoms: N_3  and  C_4
REMARK    3  A    between atoms: C_16  and  C_17
REMARK                            x       y       z     vdW  Elec       q    Type
REMARK                         _______ _______ _______ _____ _____    ______ ____
ROOT
ATOM      1  C   UNL     1       0.271  11.783  20.146  0.00  0.00    +0.000 C 
ATOM      2  C   UNL     1       1.531  11.459  19.325  0.00  0.00    +0.000 C 
ATOM      3  C   UNL     1       1.391  10.150  18.541  0.00  0.00    +0.000 C 
ATOM      4  N   UNL     1       1.004   9.086  19.458  0.00  0.00    +0.000 N 
ATOM      5  C   UNL     1       1.728   7.921  19.603  0.00  0.00    +0.000 A 
ATOM      6  C   UNL     1       2.522   7.437  18.581  0.00  0.00    +0.000 A 
ATOM      7  C   UNL     1       3.267   6.291  18.798  0.00  0.00    +0.000 A 
ATOM      8  N   UNL     1       3.206   5.622  19.964  0.00  0.00    +0.000 NA
ATOM      9  C   UNL     1       2.400   6.146  20.893  0.00  0.00    +0.000 A 
ATOM     10  N   UNL     1       1.658   7.257  20.768  0.00  0.00    +0.000 NA
ATOM     11  C   UNL     1      -0.210   9.288  20.238  0.00  0.00    +0.000 C 
ATOM     12  C   UNL     1      -0.107  10.588  21.033  0.00  0.00    +0.000 C 
ENDROOT
BRANCH   7  13
ATOM     13  C   UNL     1       4.183   5.751  17.776  0.00  0.00    +0.000 A 
ATOM     14  C   UNL     1       3.851   4.601  17.035  0.00  0.00    +0.000 A 
ATOM     15  C   UNL     1       4.721   4.078  16.071  0.00  0.00    +0.000 A 
ATOM     16  C   UNL     1       5.946   4.693  15.835  0.00  0.00    +0.000 A 
ATOM     17  C   UNL     1       6.289   5.825  16.557  0.00  0.00    +0.000 A 
ATOM     18  F   UNL     1       7.467   6.420  16.336  0.00  0.00    +0.000 F 
ATOM     19  C   UNL     1       5.428   6.353  17.514  0.00  0.00    +0.000 A 
ENDBRANCH   7  13
BRANCH   1  21
ATOM     20  O   UNL     1      -0.704  13.125  18.409  0.00  0.00    +0.000 OA
ATOM     21  C   UNL     1      -0.866  12.209  19.216  0.00  0.00    +0.000 C 
ATOM     22  N   UNL     1      -2.055  11.534  19.418  0.00  0.00    +0.000 N 
ATOM     23  H   UNL     1      -2.146  10.983  20.262  0.00  0.00    +0.000 HD
BRANCH  22  24
ATOM     24  C   UNL     1      -3.225  11.710  18.645  0.00  0.00    +0.000 A 
ATOM     25  C   UNL     1      -3.341  11.245  17.332  0.00  0.00    +0.000 A 
ATOM     26  C   UNL     1      -4.501  11.471  16.590  0.00  0.00    +0.000 A 
ATOM     27  C   UNL     1      -5.565  12.160  17.160  0.00  0.00    +0.000 A 
ATOM     28  C   UNL     1      -5.474  12.606  18.479  0.00  0.00    +0.000 A 
ATOM     29  C   UNL     1      -4.313  12.373  19.224  0.00  0.00    +0.000 A 
ENDBRANCH  22  24
ENDBRANCH   1  21
TORSDOF 3
ENDMDL
MODEL 7
REMARK VINA RESULT:      -7.3      1.370      1.879
REMARK  Name = 
REMARK  3 active torsions:
REMARK  status: ('A' for Active; 'I' for Inactive)
REMARK    1  A    between atoms: C_2  and  C_10
REMARK    2  A    between atoms: N_3  and  C_4
REMARK    3  A    between atoms: C_16  and  C_17
REMARK                            x       y       z     vdW  Elec       q    Type
REMARK                         _______ _______ _______ _____ _____    ______ ____
ROOT
ATOM      1  C   UNL     1       0.938  11.298  19.568  0.00  0.00    +0.000 C 
ATOM      2  C   UNL     1       2.213  11.048  18.743  0.00  0.00    +0.000 C 
ATOM      3  C   UNL     1       2.118   9.768  17.906  0.00  0.00    +0.000 C 
ATOM      4  N   UNL     1       1.761   8.656  18.778  0.00  0.00    +0.000 N 
ATOM      5  C   UNL     1       2.521   7.509  18.880  0.00  0.00    +0.000 A 
ATOM      6  C   UNL     1       3.336   7.092  17.845  0.00  0.00    +0.000 A 
ATOM      7  C   UNL     1       4.116   5.963  18.021  0.00  0.00    +0.000 A 
ATOM      8  N   UNL     1       4.070   5.246  19.159  0.00  0.00    +0.000 NA
ATOM      9  C   UNL     1       3.242   5.706  20.103  0.00  0.00    +0.000 A 
ATOM     10  N   UNL     1       2.466   6.797  20.018  0.00  0.00    +0.000 NA
ATOM     11  C   UNL     1       0.537   8.787  19.557  0.00  0.00    +0.000 C 
ATOM     12  C   UNL     1       0.595  10.057  20.404  0.00  0.00    +0.000 C 
ENDROOT
BRANCH   7  13
ATOM     13  C   UNL     1       5.054   5.493  16.984  0.00  0.00    +0.000 A 
ATOM     14  C   UNL     1       6.446   5.529  17.191  0.00  0.00    +0.000 A 
ATOM     15  C   UNL     1       7.342   5.095  16.207  0.00  0.00    +0.000 A 
ATOM     16  C   UNL     1       6.861   4.621  14.991  0.00  0.00    +0.000 A 
ATOM     17  C   UNL     1       5.493   4.579  14.772  0.00  0.00    +0.000 A 
ATOM     18  F   UNL     1       5.023   4.127  13.602  0.00  0.00    +0.000 F 
ATOM     19  C   UNL     1       4.597   5.007  15.746  0.00  0.00    +0.000 A 
ENDBRANCH   7  13
BRANCH   1  21
ATOM     20  O   UNL     1      -0.179  12.817  18.080  0.00  0.00    +0.000 OA
ATOM     21  C   UNL     1      -0.206  11.724  18.648  0.00  0.00    +0.000 C 
ATOM     22  N   UNL     1      -1.254  10.825  18.582  0.00  0.00    +0.000 N 
ATOM     23  H   UNL     1      -1.284  10.086  19.273  0.00  0.00    +0.000 HD
BRANCH  22  24
ATOM     24  C   UNL     1      -2.392  10.970  17.757  0.00  0.00    +0.000 A 
ATOM     25  C   UNL     1      -2.403  10.598  16.410  0.00  0.00    +0.000 A 
ATOM     26  C   UNL     1      -3.537  10.790  15.620  0.00  0.00    +0.000 A 
ATOM     27  C   UNL     1      -4.680  11.354  16.174  0.00  0.00    +0.000 A 
ATOM     28  C   UNL     1      -4.693  11.706  17.524  0.00  0.00    +0.000 A 
ATOM     29  C   UNL     1      -3.558  11.506  18.317  0.00  0.00    +0.000 A 
ENDBRANCH  22  24
ENDBRANCH   1  21
TORSDOF 3
ENDMDL
MODEL 8
REMARK VINA RESULT:      -7.2      3.668      5.585
REMARK  Name = 
REMARK  3 active torsions:
REMARK  status: ('A' for Active; 'I' for Inactive)
REMARK    1  A    between atoms: C_2  and  C_10
REMARK    2  A    between atoms: N_3  and  C_4
REMARK    3  A    between atoms: C_16  and  C_17
REMARK                            x       y       z     vdW  Elec       q    Type
REMARK                         _______ _______ _______ _____ _____    ______ ____
ROOT
ATOM      1  C   UNL     1      -1.055  12.009  18.612  0.00  0.00    +0.000 C 
ATOM      2  C   UNL     1      -1.507  10.547  18.776  0.00  0.00    +0.000 C 
ATOM      3  C   UNL     1      -0.588   9.759  19.714  0.00  0.00    +0.000 C 
ATOM      4  N   UNL     1       0.789   9.895  19.256  0.00  0.00    +0.000 N 
ATOM      5  C   UNL     1       1.590   8.812  18.958  0.00  0.00    +0.000 A 
ATOM      6  C   UNL     1       1.376   7.577  19.540  0.00  0.00    +0.000 A 
ATOM      7  C   UNL     1       2.177   6.514  19.166  0.00  0.00    +0.000 A 
ATOM      8  N   UNL     1       3.179   6.664  18.280  0.00  0.00    +0.000 NA
ATOM      9  C   UNL     1       3.331   7.894  17.778  0.00  0.00    +0.000 A 
ATOM     10  N   UNL     1       2.590   8.973  18.075  0.00  0.00    +0.000 NA
ATOM     11  C   UNL     1       1.316  11.247  19.124  0.00  0.00    +0.000 C 
ATOM     12  C   UNL     1       0.421  12.065  18.195  0.00  0.00    +0.000 C 
ENDROOT
BRANCH   7  13
ATOM     13  C   UNL     1       1.968   5.154  19.699  0.00  0.00    +0.000 A 
ATOM     14  C   UNL     1       2.296   4.835  21.030  0.00  0.00    +0.000 A 
ATOM     15  C   UNL     1       2.110   3.544  21.538  0.00  0.00    +0.000 A 
ATOM     16  C   UNL     1       1.596   2.544  20.719  0.00  0.00    +0.000 A 
ATOM     17  C   UNL     1       1.269   2.841  19.406  0.00  0.00    +0.000 A 
ATOM     18  F   UNL     1       0.777   1.882  18.612  0.00  0.00    +0.000 F 
ATOM     19  C   UNL     1       1.449   4.122  18.895  0.00  0.00    +0.000 A 
ENDBRANCH   7  13
BRANCH   1  21
ATOM     20  O   UNL     1      -0.522  13.616  20.316  0.00  0.00    +0.000 OA
ATOM     21  C   UNL     1      -1.334  12.791  19.896  0.00  0.00    +0.000 C 
ATOM     22  N   UNL     1      -2.506  12.438  20.539  0.00  0.00    +0.000 N 
ATOM     23  H   UNL     1      -2.966  11.586  20.244  0.00  0.00    +0.000 HD
BRANCH  22  24
ATOM     24  C   UNL     1      -3.006  13.059  21.705  0.00  0.00    +0.000 A 
ATOM     25  C   UNL     1      -2.751  12.571  22.990  0.00  0.00    +0.000 A 
ATOM     26  C   UNL     1      -3.294  13.193  24.116  0.00  0.00    +0.000 A 
ATOM     27  C   UNL     1      -4.093  14.320  23.967  0.00  0.00    +0.000 A 
ATOM     28  C   UNL     1      -4.335  14.834  22.692  0.00  0.00    +0.000 A 
ATOM     29  C   UNL     1      -3.784  14.214  21.565  0.00  0.00    +0.000 A 
ENDBRANCH  22  24
ENDBRANCH   1  21
TORSDOF 3
ENDMDL
MODEL 9
REMARK VINA RESULT:      -7.2      2.003      2.919
REMARK  Name = 
REMARK  3 active torsions:
REMARK  status: ('A' for Active; 'I' for Inactive)
REMARK    1  A    between atoms: C_2  and  C_10
REMARK    2  A    between atoms: N_3  and  C_4
REMARK    3  A    between atoms: C_16  and  C_17
REMARK                            x       y       z     vdW  Elec       q    Type
REMARK                         _______ _______ _______ _____ _____    ______ ____
ROOT
ATOM      1  C   UNL     1       0.272  11.993  20.046  0.00  0.00    +0.000 C 
ATOM      2  C   UNL     1       1.446  11.583  19.140  0.00  0.00    +0.000 C 
ATOM      3  C   UNL     1       1.200  10.239  18.448  0.00  0.00    +0.000 C 
ATOM      4  N   UNL     1       0.865   9.240  19.455  0.00  0.00    +0.000 N 
ATOM      5  C   UNL     1       1.565   8.061  19.603  0.00  0.00    +0.000 A 
ATOM      6  C   UNL     1       2.253   7.495  18.547  0.00  0.00    +0.000 A 
ATOM      7  C   UNL     1       2.981   6.339  18.765  0.00  0.00    +0.000 A 
ATOM      8  N   UNL     1       3.003   5.737  19.968  0.00  0.00    +0.000 NA
ATOM      9  C   UNL     1       2.296   6.338  20.931  0.00  0.00    +0.000 A 
ATOM     10  N   UNL     1       1.578   7.465  20.807  0.00  0.00    +0.000 NA
ATOM     11  C   UNL     1      -0.270   9.525  20.323  0.00  0.00    +0.000 C 
ATOM     12  C   UNL     1      -0.060  10.862  21.030  0.00  0.00    +0.000 C 
ENDROOT
BRANCH   7  13
ATOM     13  C   UNL     1       3.789   5.713  17.701  0.00  0.00    +0.000 A 
ATOM     14  C   UNL     1       3.918   4.314  17.612  0.00  0.00    +0.000 A 
ATOM     15  C   UNL     1       4.691   3.715  16.611  0.00  0.00    +0.000 A 
ATOM     16  C   UNL     1       5.357   4.507  15.681  0.00  0.00    +0.000 A 
ATOM     17  C   UNL     1       5.241   5.885  15.756  0.00  0.00    +0.000 A 
ATOM     18  F   UNL     1       5.882   6.653  14.866  0.00  0.00    +0.000 F 
ATOM     19  C   UNL     1       4.472   6.488  16.746  0.00  0.00    +0.000 A 
ENDBRANCH   7  13
BRANCH   1  21
ATOM     20  O   UNL     1      -0.831  13.322  18.377  0.00  0.00    +0.000 OA
ATOM     21  C   UNL     1      -0.929  12.405  19.194  0.00  0.00    +0.000 C 
ATOM     22  N   UNL     1      -2.094  11.719  19.476  0.00  0.00    +0.000 N 
ATOM     23  H   UNL     1      -2.123  11.169  20.326  0.00  0.00    +0.000 HD
BRANCH  22  24
ATOM     24  C   UNL     1      -3.315  11.881  18.783  0.00  0.00    +0.000 A 
ATOM     25  C   UNL     1      -4.451  12.442  19.373  0.00  0.00    +0.000 A 
ATOM     26  C   UNL     1      -5.649  12.552  18.665  0.00  0.00    +0.000 A 
ATOM     27  C   UNL     1      -5.720  12.106  17.351  0.00  0.00    +0.000 A 
ATOM     28  C   UNL     1      -4.587  11.568  16.739  0.00  0.00    +0.000 A 
ATOM     29  C   UNL     1      -3.385  11.465  17.448  0.00  0.00    +0.000 A 
ENDBRANCH  22  24
ENDBRANCH   1  21
TORSDOF 3
ENDMDL
