MODEL 1
REMARK VINA RESULT:      -8.3      0.000      0.000
REMARK  Name = 
REMARK  4 active torsions:
REMARK  status: ('A' for Active; 'I' for Inactive)
REMARK    1  A    between atoms: C_2  and  C_3
REMARK    2  A    between atoms: C_13  and  N_14
REMARK    3  A    between atoms: N_17  and  C_18
REMARK    4  A    between atoms: C_22  and  C_23
REMARK                            x       y       z     vdW  Elec       q    Type
REMARK                         _______ _______ _______ _____ _____    ______ ____
ROOT
ATOM      1  N   UNL     1       0.697  10.381  19.158  0.00  0.00    +0.000 NA
ATOM      2  C   UNL     1       1.019   9.669  20.404  0.00  0.00    +0.000 C 
ATOM      3  C   UNL     1       1.153   8.134  20.312  0.00  0.00    +0.000 C 
ATOM      4  N   UNL     1       1.940   7.693  19.143  0.00  0.00    +0.000 N 
ATOM      5  C   UNL     1       1.777   8.437  17.884  0.00  0.00    +0.000 C 
ATOM      6  C   UNL     1       1.652   9.953  18.125  0.00  0.00    +0.000 C 
ENDROOT
BRANCH   1  13
ATOM      7  O   UNL     1      -3.365  12.491  20.449  0.00  0.00    +0.000 OA
ATOM      8  C   UNL     1      -3.646  12.107  19.313  0.00  0.00    +0.000 C 
ATOM      9  N   UNL     1      -2.668  11.926  18.344  0.00  0.00    +0.000 N 
ATOM     10  C   UNL     1      -2.883  11.367  17.018  0.00  0.00    +0.000 C 
ATOM     11  C   UNL     1      -2.589   9.877  17.060  0.00  0.00    +0.000 C 
ATOM     12  C   UNL     1      -1.161   9.617  17.539  0.00  0.00    +0.000 C 
ATOM     13  C   UNL     1      -0.735  10.416  18.799  0.00  0.00    +0.000 C 
ATOM     14  C   UNL     1      -1.272  11.880  18.774  0.00  0.00    +0.000 C 
BRANCH   8  15
ATOM     15  C   UNL     1      -5.098  11.833  18.927  0.00  0.00    +0.000 C 
ATOM     16  C   UNL     1      -5.603  12.856  17.906  0.00  0.00    +0.000 C 
ATOM     17  C   UNL     1      -7.095  12.664  17.657  0.00  0.00    +0.000 C 
ATOM     18  O   UNL     1      -7.833  12.713  18.877  0.00  0.00    +0.000 OA
ATOM     19  C   UNL     1      -7.444  11.691  19.793  0.00  0.00    +0.000 C 
ATOM     20  C   UNL     1      -5.988  11.854  20.178  0.00  0.00    +0.000 C 
ENDBRANCH   8  15
ENDBRANCH   1  13
BRANCH   4  21
ATOM     21  C   UNL     1       2.769   6.590  19.259  0.00  0.00    +0.000 A 
ATOM     22  C   UNL     1       3.951   6.455  18.509  0.00  0.00    +0.000 A 
ATOM     23  C   UNL     1       4.691   5.271  18.492  0.00  0.00    +0.000 A 
ATOM     24  C   UNL     1       4.283   4.186  19.260  0.00  0.00    +0.000 A 
ATOM     25  C   UNL     1       3.157   4.300  20.075  0.00  0.00    +0.000 A 
ATOM     26  C   UNL     1       2.435   5.504  20.078  0.00  0.00    +0.000 A 
BRANCH  25  27
ATOM     27  C   UNL     1       2.655   3.166  20.926  0.00  0.00    +0.000 C 
ATOM     28  F   UNL     1       1.694   2.410  20.326  0.00  0.00    +0.000 F 
ATOM     29  F   UNL     1       3.649   2.302  21.279  0.00  0.00    +0.000 F 
ATOM     30  F   UNL     1       2.112   3.601  22.098  0.00  0.00    +0.000 F 
ENDBRANCH  25  27
ENDBRANCH   4  21
TORSDOF 4
ENDMDL
MODEL 2
REMARK VINA RESULT:      -8.2      4.097      6.258
REMARK  Name = 
REMARK  4 active torsions:
REMARK  status: ('A' for Active; 'I' for Inactive)
REMARK    1  A    between atoms: C_2  and  C_3
REMARK    2  A    between atoms: C_13  and  N_14
REMARK    3  A    between atoms: N_17  and  C_18
REMARK    4  A    between atoms: C_22  and  C_23
REMARK                            x       y       z     vdW  Elec       q    Type
REMARK                         _______ _______ _______ _____ _____    ______ ____
ROOT
ATOM      1  N   UNL     1       0.038  10.564  19.777  0.00  0.00    +0.000 NA
ATOM      2  C   UNL     1       0.394   9.986  18.473  0.00  0.00    +0.000 C 
ATOM      3  C   UNL     1       1.670   9.120  18.421  0.00  0.00    +0.000 C 
ATOM      4  N   UNL     1       1.770   8.172  19.549  0.00  0.00    +0.000 N 
ATOM      5  C   UNL     1       1.311   8.625  20.871  0.00  0.00    +0.000 C 
ATOM      6  C   UNL     1       0.033   9.481  20.772  0.00  0.00    +0.000 C 
ENDROOT
BRANCH   1  13
ATOM      7  O   UNL     1       3.454  13.446  18.152  0.00  0.00    +0.000 OA
ATOM      8  C   UNL     1       2.861  14.194  18.932  0.00  0.00    +0.000 C 
ATOM      9  N   UNL     1       1.519  14.011  19.236  0.00  0.00    +0.000 N 
ATOM     10  C   UNL     1       0.766  14.763  20.227  0.00  0.00    +0.000 C 
ATOM     11  C   UNL     1       0.782  13.998  21.540  0.00  0.00    +0.000 C 
ATOM     12  C   UNL     1       0.201  12.596  21.359  0.00  0.00    +0.000 C 
ATOM     13  C   UNL     1       0.736  11.817  20.128  0.00  0.00    +0.000 C 
ATOM     14  C   UNL     1       0.899  12.736  18.879  0.00  0.00    +0.000 C 
BRANCH   8  15
ATOM     15  C   UNL     1       3.591  15.368  19.581  0.00  0.00    +0.000 C 
ATOM     16  C   UNL     1       4.517  16.067  18.581  0.00  0.00    +0.000 C 
ATOM     17  C   UNL     1       5.353  17.128  19.286  0.00  0.00    +0.000 C 
ATOM     18  O   UNL     1       6.072  16.574  20.386  0.00  0.00    +0.000 OA
ATOM     19  C   UNL     1       5.210  16.018  21.378  0.00  0.00    +0.000 C 
ATOM     20  C   UNL     1       4.398  14.881  20.793  0.00  0.00    +0.000 C 
ENDBRANCH   8  15
ENDBRANCH   1  13
BRANCH   4  21
ATOM     21  C   UNL     1       2.316   6.917  19.336  0.00  0.00    +0.000 A 
ATOM     22  C   UNL     1       3.085   6.615  18.199  0.00  0.00    +0.000 A 
ATOM     23  C   UNL     1       3.485   5.312  17.894  0.00  0.00    +0.000 A 
ATOM     24  C   UNL     1       3.150   4.266  18.747  0.00  0.00    +0.000 A 
ATOM     25  C   UNL     1       2.450   4.531  19.924  0.00  0.00    +0.000 A 
ATOM     26  C   UNL     1       2.066   5.850  20.209  0.00  0.00    +0.000 A 
BRANCH  25  27
ATOM     27  C   UNL     1       2.048   3.448  20.888  0.00  0.00    +0.000 C 
ATOM     28  F   UNL     1       2.593   2.232  20.611  0.00  0.00    +0.000 F 
ATOM     29  F   UNL     1       2.405   3.738  22.172  0.00  0.00    +0.000 F 
ATOM     30  F   UNL     1       0.699   3.256  20.915  0.00  0.00    +0.000 F 
ENDBRANCH  25  27
ENDBRANCH   4  21
TORSDOF 4
ENDMDL
MODEL 3
REMARK VINA RESULT:      -8.2      2.304      2.777
REMARK  Name = 
REMARK  4 active torsions:
REMARK  status: ('A' for Active; 'I' for Inactive)
REMARK    1  A    between atoms: C_2  and  C_3
REMARK    2  A    between atoms: C_13  and  N_14
REMARK    3  A    between atoms: N_17  and  C_18
REMARK    4  A    between atoms: C_22  and  C_23
REMARK                            x       y       z     vdW  Elec       q    Type
REMARK                         _______ _______ _______ _____ _____    ______ ____
ROOT
ATOM      1  N   UNL     1       0.655  10.524  19.293  0.00  0.00    +0.000 NA
ATOM      2  C   UNL     1       1.043   9.612  20.379  0.00  0.00    +0.000 C 
ATOM      3  C   UNL     1       1.280   8.135  19.996  0.00  0.00    +0.000 C 
ATOM      4  N   UNL     1       2.077   7.980  18.763  0.00  0.00    +0.000 N 
ATOM      5  C   UNL     1       1.847   8.936  17.670  0.00  0.00    +0.000 C 
ATOM      6  C   UNL     1       1.622  10.367  18.196  0.00  0.00    +0.000 C 
ENDROOT
BRANCH   1  13
ATOM      7  O   UNL     1      -3.425  12.605  20.571  0.00  0.00    +0.000 OA
ATOM      8  C   UNL     1      -3.712  12.186  19.449  0.00  0.00    +0.000 C 
ATOM      9  N   UNL     1      -2.743  11.993  18.475  0.00  0.00    +0.000 N 
ATOM     10  C   UNL     1      -2.963  11.394  17.167  0.00  0.00    +0.000 C 
ATOM     11  C   UNL     1      -2.645   9.910  17.247  0.00  0.00    +0.000 C 
ATOM     12  C   UNL     1      -1.208   9.686  17.716  0.00  0.00    +0.000 C 
ATOM     13  C   UNL     1      -0.781  10.526  18.949  0.00  0.00    +0.000 C 
ATOM     14  C   UNL     1      -1.341  11.980  18.890  0.00  0.00    +0.000 C 
BRANCH   8  15
ATOM     15  C   UNL     1      -5.164  11.878  19.088  0.00  0.00    +0.000 C 
ATOM     16  C   UNL     1      -5.697  12.865  18.045  0.00  0.00    +0.000 C 
ATOM     17  C   UNL     1      -7.188  12.644  17.819  0.00  0.00    +0.000 C 
ATOM     18  O   UNL     1      -7.913  12.714  19.045  0.00  0.00    +0.000 OA
ATOM     19  C   UNL     1      -7.498  11.724  19.983  0.00  0.00    +0.000 C 
ATOM     20  C   UNL     1      -6.041  11.920  20.347  0.00  0.00    +0.000 C 
ENDBRANCH   8  15
ENDBRANCH   1  13
BRANCH   4  21
ATOM     21  C   UNL     1       2.981   6.935  18.666  0.00  0.00    +0.000 A 
ATOM     22  C   UNL     1       3.156   5.994  19.695  0.00  0.00    +0.000 A 
ATOM     23  C   UNL     1       4.185   5.050  19.675  0.00  0.00    +0.000 A 
ATOM     24  C   UNL     1       5.059   4.999  18.594  0.00  0.00    +0.000 A 
ATOM     25  C   UNL     1       4.877   5.866  17.517  0.00  0.00    +0.000 A 
ATOM     26  C   UNL     1       3.831   6.801  17.561  0.00  0.00    +0.000 A 
BRANCH  25  27
ATOM     27  C   UNL     1       5.788   5.871  16.319  0.00  0.00    +0.000 C 
ATOM     28  F   UNL     1       6.100   4.629  15.858  0.00  0.00    +0.000 F 
ATOM     29  F   UNL     1       5.250   6.543  15.262  0.00  0.00    +0.000 F 
ATOM     30  F   UNL     1       6.977   6.484  16.579  0.00  0.00    +0.000 F 
ENDBRANCH  25  27
ENDBRANCH   4  21
TORSDOF 4
ENDMDL
MODEL 4
REMARK VINA RESULT:      -8.1      6.907     10.623
REMARK  Name = 
REMARK  4 active torsions:
REMARK  status: ('A' for Active; 'I' for Inactive)
REMARK    1  A    between atoms: C_2  and  C_3
REMARK    2  A    between atoms: C_13  and  N_14
REMARK    3  A    between atoms: N_17  and  C_18
REMARK    4  A    between atoms: C_22  and  C_23
REMARK                            x       y       z     vdW  Elec       q    Type
REMARK                         _______ _______ _______ _____ _____    ______ ____
ROOT
ATOM      1  N   UNL     1       3.945  15.202  19.176  0.00  0.00    +0.000 NA
ATOM      2  C   UNL     1       3.303  14.538  18.031  0.00  0.00    +0.000 C 
ATOM      3  C   UNL     1       2.862  13.074  18.235  0.00  0.00    +0.000 C 
ATOM      4  N   UNL     1       2.177  12.852  19.524  0.00  0.00    +0.000 N 
ATOM      5  C   UNL     1       2.674  13.581  20.701  0.00  0.00    +0.000 C 
ATOM      6  C   UNL     1       3.081  15.025  20.351  0.00  0.00    +0.000 C 
ENDROOT
BRANCH   1  13
ATOM      7  O   UNL     1       7.478  12.755  17.139  0.00  0.00    +0.000 OA
ATOM      8  C   UNL     1       8.110  13.581  17.799  0.00  0.00    +0.000 C 
ATOM      9  N   UNL     1       7.568  14.816  18.128  0.00  0.00    +0.000 N 
ATOM     10  C   UNL     1       8.184  15.807  18.998  0.00  0.00    +0.000 C 
ATOM     11  C   UNL     1       7.655  15.618  20.409  0.00  0.00    +0.000 C 
ATOM     12  C   UNL     1       6.131  15.735  20.439  0.00  0.00    +0.000 C 
ATOM     13  C   UNL     1       5.389  14.935  19.336  0.00  0.00    +0.000 C 
ATOM     14  C   UNL     1       6.128  15.003  17.965  0.00  0.00    +0.000 C 
BRANCH   8  15
ATOM     15  C   UNL     1       9.530  13.273  18.267  0.00  0.00    +0.000 C 
ATOM     16  C   UNL     1      10.525  13.345  17.105  0.00  0.00    +0.000 C 
ATOM     17  C   UNL     1      11.904  12.879  17.557  0.00  0.00    +0.000 C 
ATOM     18  O   UNL     1      11.846  11.575  18.132  0.00  0.00    +0.000 OA
ATOM     19  C   UNL     1      11.006  11.524  19.285  0.00  0.00    +0.000 C 
ATOM     20  C   UNL     1       9.581  11.883  18.916  0.00  0.00    +0.000 C 
ENDBRANCH   8  15
ENDBRANCH   1  13
BRANCH   4  21
ATOM     21  C   UNL     1       1.126  11.952  19.589  0.00  0.00    +0.000 A 
ATOM     22  C   UNL     1      -0.013  12.067  18.772  0.00  0.00    +0.000 A 
ATOM     23  C   UNL     1      -1.146  11.272  18.957  0.00  0.00    +0.000 A 
ATOM     24  C   UNL     1      -1.159  10.305  19.956  0.00  0.00    +0.000 A 
ATOM     25  C   UNL     1      -0.024  10.107  20.743  0.00  0.00    +0.000 A 
ATOM     26  C   UNL     1       1.103  10.917  20.531  0.00  0.00    +0.000 A 
BRANCH  25  27
ATOM     27  C   UNL     1       0.029   9.086  21.846  0.00  0.00    +0.000 C 
ATOM     28  F   UNL     1       1.243   8.484  21.982  0.00  0.00    +0.000 F 
ATOM     29  F   UNL     1      -0.267   9.622  23.064  0.00  0.00    +0.000 F 
ATOM     30  F   UNL     1      -0.869   8.078  21.659  0.00  0.00    +0.000 F 
ENDBRANCH  25  27
ENDBRANCH   4  21
TORSDOF 4
ENDMDL
MODEL 5
REMARK VINA RESULT:      -8.0      2.523      3.375
REMARK  Name = 
REMARK  4 active torsions:
REMARK  status: ('A' for Active; 'I' for Inactive)
REMARK    1  A    between atoms: C_2  and  C_3
REMARK    2  A    between atoms: C_13  and  N_14
REMARK    3  A    between atoms: N_17  and  C_18
REMARK    4  A    between atoms: C_22  and  C_23
REMARK                            x       y       z     vdW  Elec       q    Type
REMARK                         _______ _______ _______ _____ _____    ______ ____
ROOT
ATOM      1  N   UNL     1       0.494  11.717  21.736  0.00  0.00    +0.000 NA
ATOM      2  C   UNL     1       0.630  10.410  22.395  0.00  0.00    +0.000 C 
ATOM      3  C   UNL     1       0.437   9.161  21.508  0.00  0.00    +0.000 C 
ATOM      4  N   UNL     1       1.136   9.261  20.212  0.00  0.00    +0.000 N 
ATOM      5  C   UNL     1       1.163  10.570  19.543  0.00  0.00    +0.000 C 
ATOM      6  C   UNL     1       1.358  11.723  20.546  0.00  0.00    +0.000 C 
ENDROOT
BRANCH   1  13
ATOM      7  O   UNL     1      -3.650  11.809  24.067  0.00  0.00    +0.000 OA
ATOM      8  C   UNL     1      -3.812  12.722  23.256  0.00  0.00    +0.000 C 
ATOM      9  N   UNL     1      -2.738  13.429  22.734  0.00  0.00    +0.000 N 
ATOM     10  C   UNL     1      -2.816  14.439  21.689  0.00  0.00    +0.000 C 
ATOM     11  C   UNL     1      -2.552  13.778  20.347  0.00  0.00    +0.000 C 
ATOM     12  C   UNL     1      -1.189  13.087  20.339  0.00  0.00    +0.000 C 
ATOM     13  C   UNL     1      -0.890  12.210  21.585  0.00  0.00    +0.000 C 
ATOM     14  C   UNL     1      -1.398  12.871  22.902  0.00  0.00    +0.000 C 
BRANCH   8  15
ATOM     15  C   UNL     1      -5.218  13.118  22.810  0.00  0.00    +0.000 C 
ATOM     16  C   UNL     1      -6.247  12.842  23.909  0.00  0.00    +0.000 C 
ATOM     17  C   UNL     1      -7.658  13.091  23.389  0.00  0.00    +0.000 C 
ATOM     18  O   UNL     1      -7.916  12.332  22.209  0.00  0.00    +0.000 OA
ATOM     19  C   UNL     1      -7.030  12.664  21.141  0.00  0.00    +0.000 C 
ATOM     20  C   UNL     1      -5.598  12.359  21.530  0.00  0.00    +0.000 C 
ENDBRANCH   8  15
ENDBRANCH   1  13
BRANCH   4  21
ATOM     21  C   UNL     1       1.709   8.126  19.660  0.00  0.00    +0.000 A 
ATOM     22  C   UNL     1       2.293   8.126  18.381  0.00  0.00    +0.000 A 
ATOM     23  C   UNL     1       2.709   6.950  17.753  0.00  0.00    +0.000 A 
ATOM     24  C   UNL     1       2.581   5.730  18.408  0.00  0.00    +0.000 A 
ATOM     25  C   UNL     1       2.074   5.693  19.707  0.00  0.00    +0.000 A 
ATOM     26  C   UNL     1       1.668   6.890  20.317  0.00  0.00    +0.000 A 
BRANCH  25  27
ATOM     27  C   UNL     1       1.900   4.409  20.472  0.00  0.00    +0.000 C 
ATOM     28  F   UNL     1       2.573   3.353  19.937  0.00  0.00    +0.000 F 
ATOM     29  F   UNL     1       2.325   4.513  21.763  0.00  0.00    +0.000 F 
ATOM     30  F   UNL     1       0.595   4.024  20.543  0.00  0.00    +0.000 F 
ENDBRANCH  25  27
ENDBRANCH   4  21
TORSDOF 4
ENDMDL
MODEL 6
REMARK VINA RESULT:      -8.0      4.197      6.227
REMARK  Name = 
REMARK  4 active torsions:
REMARK  status: ('A' for Active; 'I' for Inactive)
REMARK    1  A    between atoms: C_2  and  C_3
REMARK    2  A    between atoms: C_13  and  N_14
REMARK    3  A    between atoms: N_17  and  C_18
REMARK    4  A    between atoms: C_22  and  C_23
REMARK                            x       y       z     vdW  Elec       q    Type
REMARK                         _______ _______ _______ _____ _____    ______ ____
ROOT
ATOM      1  N   UNL     1       0.203  10.095  19.539  0.00  0.00    +0.000 NA
ATOM      2  C   UNL     1       0.445   9.722  18.137  0.00  0.00    +0.000 C 
ATOM      3  C   UNL     1       1.791   9.036  17.822  0.00  0.00    +0.000 C 
ATOM      4  N   UNL     1       2.144   7.984  18.797  0.00  0.00    +0.000 N 
ATOM      5  C   UNL     1       1.816   8.219  20.211  0.00  0.00    +0.000 C 
ATOM      6  C   UNL     1       0.450   8.912  20.376  0.00  0.00    +0.000 C 
ENDROOT
BRANCH   1  13
ATOM      7  O   UNL     1       3.398  13.318  18.117  0.00  0.00    +0.000 OA
ATOM      8  C   UNL     1       2.743  13.973  18.928  0.00  0.00    +0.000 C 
ATOM      9  N   UNL     1       1.416  13.671  19.205  0.00  0.00    +0.000 N 
ATOM     10  C   UNL     1       0.598  14.307  20.226  0.00  0.00    +0.000 C 
ATOM     11  C   UNL     1       0.663  13.474  21.495  0.00  0.00    +0.000 C 
ATOM     12  C   UNL     1       0.195  12.043  21.231  0.00  0.00    +0.000 C 
ATOM     13  C   UNL     1       0.799  11.378  19.966  0.00  0.00    +0.000 C 
ATOM     14  C   UNL     1       0.900  12.374  18.771  0.00  0.00    +0.000 C 
BRANCH   8  15
ATOM     15  C   UNL     1       3.373  15.163  19.649  0.00  0.00    +0.000 C 
ATOM     16  C   UNL     1       4.246  15.988  18.700  0.00  0.00    +0.000 C 
ATOM     17  C   UNL     1       4.992  17.070  19.471  0.00  0.00    +0.000 C 
ATOM     18  O   UNL     1       5.747  16.513  20.546  0.00  0.00    +0.000 OA
ATOM     19  C   UNL     1       4.926  15.836  21.496  0.00  0.00    +0.000 C 
ATOM     20  C   UNL     1       4.209  14.673  20.840  0.00  0.00    +0.000 C 
ENDBRANCH   8  15
ENDBRANCH   1  13
BRANCH   4  21
ATOM     21  C   UNL     1       2.792   6.841  18.358  0.00  0.00    +0.000 A 
ATOM     22  C   UNL     1       3.967   6.892  17.588  0.00  0.00    +0.000 A 
ATOM     23  C   UNL     1       4.521   5.754  16.998  0.00  0.00    +0.000 A 
ATOM     24  C   UNL     1       3.925   4.512  17.191  0.00  0.00    +0.000 A 
ATOM     25  C   UNL     1       2.799   4.405  18.006  0.00  0.00    +0.000 A 
ATOM     26  C   UNL     1       2.266   5.564  18.592  0.00  0.00    +0.000 A 
BRANCH  25  27
ATOM     27  C   UNL     1       2.098   3.097  18.253  0.00  0.00    +0.000 C 
ATOM     28  F   UNL     1       2.448   2.495  19.423  0.00  0.00    +0.000 F 
ATOM     29  F   UNL     1       0.742   3.233  18.288  0.00  0.00    +0.000 F 
ATOM     30  F   UNL     1       2.351   2.184  17.272  0.00  0.00    +0.000 F 
ENDBRANCH  25  27
ENDBRANCH   4  21
TORSDOF 4
ENDMDL
MODEL 7
REMARK VINA RESULT:      -8.0      2.702      3.377
REMARK  Name = 
REMARK  4 active torsions:
REMARK  status: ('A' for Active; 'I' for Inactive)
REMARK    1  A    between atoms: C_2  and  C_3
REMARK    2  A    between atoms: C_13  and  N_14
REMARK    3  A    between atoms: N_17  and  C_18
REMARK    4  A    between atoms: C_22  and  C_23
REMARK                            x       y       z     vdW  Elec       q    Type
REMARK                         _______ _______ _______ _____ _____    ______ ____
ROOT
ATOM      1  N   UNL     1       0.239  11.465  21.724  0.00  0.00    +0.000 NA
ATOM      2  C   UNL     1       0.499  10.213  22.450  0.00  0.00    +0.000 C 
ATOM      3  C   UNL     1       0.380   8.903  21.642  0.00  0.00    +0.000 C 
ATOM      4  N   UNL     1       1.029   8.981  20.319  0.00  0.00    +0.000 N 
ATOM      5  C   UNL     1       0.930  10.247  19.577  0.00  0.00    +0.000 C 
ATOM      6  C   UNL     1       1.062  11.468  20.506  0.00  0.00    +0.000 C 
ENDROOT
BRANCH   1  13
ATOM      7  O   UNL     1      -3.460  12.832  24.382  0.00  0.00    +0.000 OA
ATOM      8  C   UNL     1      -3.822  13.199  23.263  0.00  0.00    +0.000 C 
ATOM      9  N   UNL     1      -2.905  13.513  22.270  0.00  0.00    +0.000 N 
ATOM     10  C   UNL     1      -3.229  13.841  20.890  0.00  0.00    +0.000 C 
ATOM     11  C   UNL     1      -3.141  12.577  20.051  0.00  0.00    +0.000 C 
ATOM     12  C   UNL     1      -1.749  11.953  20.153  0.00  0.00    +0.000 C 
ATOM     13  C   UNL     1      -1.185  11.838  21.594  0.00  0.00    +0.000 C 
ATOM     14  C   UNL     1      -1.517  13.094  22.456  0.00  0.00    +0.000 C 
BRANCH   8  15
ATOM     15  C   UNL     1      -5.307  13.338  22.938  0.00  0.00    +0.000 C 
ATOM     16  C   UNL     1      -5.716  14.810  22.830  0.00  0.00    +0.000 C 
ATOM     17  C   UNL     1      -7.227  14.930  22.666  0.00  0.00    +0.000 C 
ATOM     18  O   UNL     1      -7.916  14.258  23.719  0.00  0.00    +0.000 OA
ATOM     19  C   UNL     1      -7.626  12.861  23.757  0.00  0.00    +0.000 C 
ATOM     20  C   UNL     1      -6.150  12.636  24.013  0.00  0.00    +0.000 C 
ENDBRANCH   8  15
ENDBRANCH   1  13
BRANCH   4  21
ATOM     21  C   UNL     1       1.673   7.864  19.811  0.00  0.00    +0.000 A 
ATOM     22  C   UNL     1       2.330   7.876  18.568  0.00  0.00    +0.000 A 
ATOM     23  C   UNL     1       2.825   6.712  17.976  0.00  0.00    +0.000 A 
ATOM     24  C   UNL     1       2.704   5.493  18.635  0.00  0.00    +0.000 A 
ATOM     25  C   UNL     1       2.124   5.446  19.902  0.00  0.00    +0.000 A 
ATOM     26  C   UNL     1       1.640   6.632  20.477  0.00  0.00    +0.000 A 
BRANCH  25  27
ATOM     27  C   UNL     1       1.953   4.163  20.668  0.00  0.00    +0.000 C 
ATOM     28  F   UNL     1       2.347   4.240  21.969  0.00  0.00    +0.000 F 
ATOM     29  F   UNL     1       0.657   3.740  20.691  0.00  0.00    +0.000 F 
ATOM     30  F   UNL     1       2.665   3.137  20.122  0.00  0.00    +0.000 F 
ENDBRANCH  25  27
ENDBRANCH   4  21
TORSDOF 4
ENDMDL
MODEL 8
REMARK VINA RESULT:      -8.0      2.349      2.837
REMARK  Name = 
REMARK  4 active torsions:
REMARK  status: ('A' for Active; 'I' for Inactive)
REMARK    1  A    between atoms: C_2  and  C_3
REMARK    2  A    between atoms: C_13  and  N_14
REMARK    3  A    between atoms: N_17  and  C_18
REMARK    4  A    between atoms: C_22  and  C_23
REMARK                            x       y       z     vdW  Elec       q    Type
REMARK                         _______ _______ _______ _____ _____    ______ ____
ROOT
ATOM      1  N   UNL     1       0.836  10.419  19.265  0.00  0.00    +0.000 NA
ATOM      2  C   UNL     1       1.129   9.457  20.338  0.00  0.00    +0.000 C 
ATOM      3  C   UNL     1       1.335   7.987  19.915  0.00  0.00    +0.000 C 
ATOM      4  N   UNL     1       2.195   7.844  18.724  0.00  0.00    +0.000 N 
ATOM      5  C   UNL     1       2.061   8.845  17.655  0.00  0.00    +0.000 C 
ATOM      6  C   UNL     1       1.857  10.264  18.219  0.00  0.00    +0.000 C 
ENDROOT
BRANCH   1  13
ATOM      7  O   UNL     1      -3.210  12.684  20.320  0.00  0.00    +0.000 OA
ATOM      8  C   UNL     1      -3.454  12.278  19.183  0.00  0.00    +0.000 C 
ATOM      9  N   UNL     1      -2.441  12.041  18.263  0.00  0.00    +0.000 N 
ATOM     10  C   UNL     1      -2.616  11.453  16.945  0.00  0.00    +0.000 C 
ATOM     11  C   UNL     1      -2.371   9.956  17.038  0.00  0.00    +0.000 C 
ATOM     12  C   UNL     1      -0.973   9.667  17.586  0.00  0.00    +0.000 C 
ATOM     13  C   UNL     1      -0.578  10.487  18.843  0.00  0.00    +0.000 C 
ATOM     14  C   UNL     1      -1.067  11.965  18.756  0.00  0.00    +0.000 C 
BRANCH   8  15
ATOM     15  C   UNL     1      -4.895  12.037  18.741  0.00  0.00    +0.000 C 
ATOM     16  C   UNL     1      -5.844  13.069  19.357  0.00  0.00    +0.000 C 
ATOM     17  C   UNL     1      -7.292  12.717  19.036  0.00  0.00    +0.000 C 
ATOM     18  O   UNL     1      -7.604  11.388  19.449  0.00  0.00    +0.000 OA
ATOM     19  C   UNL     1      -6.798  10.409  18.795  0.00  0.00    +0.000 C 
ATOM     20  C   UNL     1      -5.336  10.619  19.132  0.00  0.00    +0.000 C 
ENDBRANCH   8  15
ENDBRANCH   1  13
BRANCH   4  21
ATOM     21  C   UNL     1       3.065   6.770  18.639  0.00  0.00    +0.000 A 
ATOM     22  C   UNL     1       3.114   5.762  19.619  0.00  0.00    +0.000 A 
ATOM     23  C   UNL     1       4.106   4.779  19.628  0.00  0.00    +0.000 A 
ATOM     24  C   UNL     1       5.069   4.756  18.626  0.00  0.00    +0.000 A 
ATOM     25  C   UNL     1       5.016   5.693  17.594  0.00  0.00    +0.000 A 
ATOM     26  C   UNL     1       4.005   6.666  17.606  0.00  0.00    +0.000 A 
BRANCH  25  27
ATOM     27  C   UNL     1       6.029   5.732  16.482  0.00  0.00    +0.000 C 
ATOM     28  F   UNL     1       7.083   6.560  16.724  0.00  0.00    +0.000 F 
ATOM     29  F   UNL     1       6.564   4.505  16.225  0.00  0.00    +0.000 F 
ATOM     30  F   UNL     1       5.486   6.152  15.304  0.00  0.00    +0.000 F 
ENDBRANCH  25  27
ENDBRANCH   4  21
TORSDOF 4
ENDMDL
MODEL 9
REMARK VINA RESULT:      -7.9      7.333     10.949
REMARK  Name = 
REMARK  4 active torsions:
REMARK  status: ('A' for Active; 'I' for Inactive)
REMARK    1  A    between atoms: C_2  and  C_3
REMARK    2  A    between atoms: C_13  and  N_14
REMARK    3  A    between atoms: N_17  and  C_18
REMARK    4  A    between atoms: C_22  and  C_23
REMARK                            x       y       z     vdW  Elec       q    Type
REMARK                         _______ _______ _______ _____ _____    ______ ____
ROOT
ATOM      1  N   UNL     1       3.910  15.195  19.109  0.00  0.00    +0.000 NA
ATOM      2  C   UNL     1       3.267  14.431  18.029  0.00  0.00    +0.000 C 
ATOM      3  C   UNL     1       2.831  12.988  18.363  0.00  0.00    +0.000 C 
ATOM      4  N   UNL     1       2.150  12.879  19.668  0.00  0.00    +0.000 N 
ATOM      5  C   UNL     1       2.647  13.711  20.775  0.00  0.00    +0.000 C 
ATOM      6  C   UNL     1       3.049  15.119  20.299  0.00  0.00    +0.000 C 
ENDROOT
BRANCH   1  13
ATOM      7  O   UNL     1       7.488  12.746  17.156  0.00  0.00    +0.000 OA
ATOM      8  C   UNL     1       8.105  13.592  17.805  0.00  0.00    +0.000 C 
ATOM      9  N   UNL     1       7.547  14.828  18.104  0.00  0.00    +0.000 N 
ATOM     10  C   UNL     1       8.144  15.842  18.958  0.00  0.00    +0.000 C 
ATOM     11  C   UNL     1       7.603  15.676  20.369  0.00  0.00    +0.000 C 
ATOM     12  C   UNL     1       6.078  15.778  20.382  0.00  0.00    +0.000 C 
ATOM     13  C   UNL     1       5.355  14.947  19.288  0.00  0.00    +0.000 C 
ATOM     14  C   UNL     1       6.106  14.995  17.923  0.00  0.00    +0.000 C 
BRANCH   8  15
ATOM     15  C   UNL     1       9.524  13.309  18.293  0.00  0.00    +0.000 C 
ATOM     16  C   UNL     1      10.517  13.289  17.127  0.00  0.00    +0.000 C 
ATOM     17  C   UNL     1      11.894  12.848  17.610  0.00  0.00    +0.000 C 
ATOM     18  O   UNL     1      11.828  11.590  18.280  0.00  0.00    +0.000 OA
ATOM     19  C   UNL     1      10.990  11.629  19.434  0.00  0.00    +0.000 C 
ATOM     20  C   UNL     1       9.567  11.970  19.042  0.00  0.00    +0.000 C 
ENDBRANCH   8  15
ENDBRANCH   1  13
BRANCH   4  21
ATOM     21  C   UNL     1       1.102  11.986  19.816  0.00  0.00    +0.000 A 
ATOM     22  C   UNL     1       1.037  11.071  20.881  0.00  0.00    +0.000 A 
ATOM     23  C   UNL     1       0.080  10.056  20.934  0.00  0.00    +0.000 A 
ATOM     24  C   UNL     1      -0.873   9.947  19.928  0.00  0.00    +0.000 A 
ATOM     25  C   UNL     1      -0.892  10.878  18.889  0.00  0.00    +0.000 A 
ATOM     26  C   UNL     1       0.079  11.892  18.863  0.00  0.00    +0.000 A 
BRANCH  25  27
ATOM     27  C   UNL     1      -1.888  10.817  17.764  0.00  0.00    +0.000 C 
ATOM     28  F   UNL     1      -3.172  10.619  18.174  0.00  0.00    +0.000 F 
ATOM     29  F   UNL     1      -1.901  11.959  17.019  0.00  0.00    +0.000 F 
ATOM     30  F   UNL     1      -1.615   9.809  16.888  0.00  0.00    +0.000 F 
ENDBRANCH  25  27
ENDBRANCH   4  21
TORSDOF 4
ENDMDL
