MODEL 1
REMARK VINA RESULT:      -7.4      0.000      0.000
REMARK  Name = 
REMARK  5 active torsions:
REMARK  status: ('A' for Active; 'I' for Inactive)
REMARK    1  A    between atoms: C_2  and  C_3
REMARK    2  A    between atoms: C_5  and  C_6
REMARK    3  A    between atoms: C_6  and  O_7
REMARK    4  A    between atoms: O_7  and  C_8
REMARK    5  A    between atoms: C_18  and  N_19
REMARK                            x       y       z     vdW  Elec       q    Type
REMARK                         _______ _______ _______ _____ _____    ______ ____
ROOT
ATOM      1  C   UNL     1       6.380   5.440  16.143  0.00  0.00    +0.000 A 
ATOM      2  N   UNL     1       7.462   6.282  16.277  0.00  0.00    +0.000 NA
ATOM      3  C   UNL     1       7.239   6.885  17.430  0.00  0.00    +0.000 A 
ATOM      4  O   UNL     1       6.090   6.485  18.063  0.00  0.00    +0.000 OA
ATOM      5  C   UNL     1       5.539   5.533  17.238  0.00  0.00    +0.000 A 
ENDROOT
BRANCH   5   6
ATOM      6  N   UNL     1       4.400   4.923  17.650  0.00  0.00    +0.000 N 
ATOM      7  C   UNL     1       4.186   3.485  17.556  0.00  0.00    +0.000 C 
ATOM      8  C   UNL     1       2.715   3.366  17.171  0.00  0.00    +0.000 C 
ATOM      9  C   UNL     1       2.071   4.547  17.878  0.00  0.00    +0.000 C 
ATOM     10  C   UNL     1       3.138   5.642  17.819  0.00  0.00    +0.000 C 
ENDBRANCH   5   6
BRANCH   1  12
ATOM     11  N   UNL     1       6.149   3.916  14.063  0.00  0.00    +0.000 NA
ATOM     12  C   UNL     1       6.235   4.595  15.002  0.00  0.00    +0.000 C 
ENDBRANCH   1  12
BRANCH   3  13
ATOM     13  C   UNL     1       8.127   7.825  18.177  0.00  0.00    +0.000 C 
BRANCH  13  14
ATOM     14  O   UNL     1       7.934   9.144  17.657  0.00  0.00    +0.000 OA
BRANCH  14  15
ATOM     15  C   UNL     1       8.597  10.159  18.304  0.00  0.00    +0.000 A 
ATOM     16  C   UNL     1       9.315  10.029  19.509  0.00  0.00    +0.000 A 
ATOM     17  C   UNL     1       9.960  11.133  20.085  0.00  0.00    +0.000 A 
ATOM     18  C   UNL     1       9.865  12.344  19.438  0.00  0.00    +0.000 A 
ATOM     19  C   UNL     1       9.163  12.480  18.265  0.00  0.00    +0.000 A 
ATOM     20  C   UNL     1       8.521  11.411  17.675  0.00  0.00    +0.000 A 
ATOM     21  O   UNL     1       9.191  13.757  17.796  0.00  0.00    +0.000 OA
ATOM     22  C   UNL     1       9.967  14.411  18.821  0.00  0.00    +0.000 C 
ATOM     23  O   UNL     1      10.423  13.511  19.854  0.00  0.00    +0.000 OA
ENDBRANCH  14  15
ENDBRANCH  13  14
ENDBRANCH   3  13
TORSDOF 5
ENDMDL
MODEL 2
REMARK VINA RESULT:      -7.3      0.546      1.027
REMARK  Name = 
REMARK  5 active torsions:
REMARK  status: ('A' for Active; 'I' for Inactive)
REMARK    1  A    between atoms: C_2  and  C_3
REMARK    2  A    between atoms: C_5  and  C_6
REMARK    3  A    between atoms: C_6  and  O_7
REMARK    4  A    between atoms: O_7  and  C_8
REMARK    5  A    between atoms: C_18  and  N_19
REMARK                            x       y       z     vdW  Elec       q    Type
REMARK                         _______ _______ _______ _____ _____    ______ ____
ROOT
ATOM      1  C   UNL     1       6.437   5.719  16.096  0.00  0.00    +0.000 A 
ATOM      2  N   UNL     1       7.605   6.410  16.330  0.00  0.00    +0.000 NA
ATOM      3  C   UNL     1       7.300   7.189  17.352  0.00  0.00    +0.000 A 
ATOM      4  O   UNL     1       6.015   7.045  17.806  0.00  0.00    +0.000 OA
ATOM      5  C   UNL     1       5.457   6.078  17.004  0.00  0.00    +0.000 A 
ENDROOT
BRANCH   5   6
ATOM      6  N   UNL     1       4.182   5.698  17.267  0.00  0.00    +0.000 N 
ATOM      7  C   UNL     1       3.211   6.565  17.922  0.00  0.00    +0.000 C 
ATOM      8  C   UNL     1       2.435   5.615  18.828  0.00  0.00    +0.000 C 
ATOM      9  C   UNL     1       2.419   4.315  18.040  0.00  0.00    +0.000 C 
ATOM     10  C   UNL     1       3.773   4.296  17.328  0.00  0.00    +0.000 C 
ENDBRANCH   5   6
BRANCH   1  12
ATOM     11  N   UNL     1       6.240   3.959  14.208  0.00  0.00    +0.000 NA
ATOM     12  C   UNL     1       6.343   4.757  15.046  0.00  0.00    +0.000 C 
ENDBRANCH   1  12
BRANCH   3  13
ATOM     13  C   UNL     1       8.197   8.086  18.139  0.00  0.00    +0.000 C 
BRANCH  13  14
ATOM     14  O   UNL     1       7.906   9.443  17.791  0.00  0.00    +0.000 OA
BRANCH  14  15
ATOM     15  C   UNL     1       8.681  10.407  18.388  0.00  0.00    +0.000 A 
ATOM     16  C   UNL     1       9.434  10.237  19.566  0.00  0.00    +0.000 A 
ATOM     17  C   UNL     1      10.197  11.290  20.091  0.00  0.00    +0.000 A 
ATOM     18  C   UNL     1      10.181  12.493  19.422  0.00  0.00    +0.000 A 
ATOM     19  C   UNL     1       9.445  12.669  18.275  0.00  0.00    +0.000 A 
ATOM     20  C   UNL     1       8.689  11.649  17.735  0.00  0.00    +0.000 A 
ATOM     21  O   UNL     1       9.564  13.929  17.776  0.00  0.00    +0.000 OA
ATOM     22  C   UNL     1      10.437  14.531  18.755  0.00  0.00    +0.000 C 
ATOM     23  O   UNL     1      10.856  13.614  19.788  0.00  0.00    +0.000 OA
ENDBRANCH  14  15
ENDBRANCH  13  14
ENDBRANCH   3  13
TORSDOF 5
ENDMDL
MODEL 3
REMARK VINA RESULT:      -7.1      4.947      7.537
REMARK  Name = 
REMARK  5 active torsions:
REMARK  status: ('A' for Active; 'I' for Inactive)
REMARK    1  A    between atoms: C_2  and  C_3
REMARK    2  A    between atoms: C_5  and  C_6
REMARK    3  A    between atoms: C_6  and  O_7
REMARK    4  A    between atoms: O_7  and  C_8
REMARK    5  A    between atoms: C_18  and  N_19
REMARK                            x       y       z     vdW  Elec       q    Type
REMARK                         _______ _______ _______ _____ _____    ______ ____
ROOT
ATOM      1  C   UNL     1       3.483   3.581  19.236  0.00  0.00    +0.000 A 
ATOM      2  N   UNL     1       2.313   3.985  19.842  0.00  0.00    +0.000 NA
ATOM      3  C   UNL     1       2.525   5.264  20.093  0.00  0.00    +0.000 A 
ATOM      4  O   UNL     1       3.749   5.724  19.682  0.00  0.00    +0.000 OA
ATOM      5  C   UNL     1       4.367   4.637  19.109  0.00  0.00    +0.000 A 
ENDROOT
BRANCH   5   6
ATOM      6  N   UNL     1       5.596   4.824  18.567  0.00  0.00    +0.000 N 
ATOM      7  C   UNL     1       6.692   5.468  19.279  0.00  0.00    +0.000 C 
ATOM      8  C   UNL     1       7.384   6.295  18.200  0.00  0.00    +0.000 C 
ATOM      9  C   UNL     1       7.208   5.453  16.947  0.00  0.00    +0.000 C 
ATOM     10  C   UNL     1       5.833   4.806  17.125  0.00  0.00    +0.000 C 
ENDBRANCH   5   6
BRANCH   1  12
ATOM     11  N   UNL     1       3.846   1.136  18.468  0.00  0.00    +0.000 NA
ATOM     12  C   UNL     1       3.666   2.234  18.804  0.00  0.00    +0.000 C 
ENDBRANCH   1  12
BRANCH   3  13
ATOM     13  C   UNL     1       1.570   6.277  20.632  0.00  0.00    +0.000 C 
BRANCH  13  14
ATOM     14  O   UNL     1       2.123   7.581  20.426  0.00  0.00    +0.000 OA
BRANCH  14  15
ATOM     15  C   UNL     1       1.260   8.641  20.567  0.00  0.00    +0.000 A 
ATOM     16  C   UNL     1       0.676   9.366  19.510  0.00  0.00    +0.000 A 
ATOM     17  C   UNL     1      -0.197  10.432  19.767  0.00  0.00    +0.000 A 
ATOM     18  C   UNL     1      -0.460  10.749  21.080  0.00  0.00    +0.000 A 
ATOM     19  C   UNL     1       0.110  10.050  22.116  0.00  0.00    +0.000 A 
ATOM     20  C   UNL     1       0.970   8.994  21.894  0.00  0.00    +0.000 A 
ATOM     21  O   UNL     1      -0.277  10.527  23.331  0.00  0.00    +0.000 OA
ATOM     22  C   UNL     1      -1.132  11.620  22.937  0.00  0.00    +0.000 C 
ATOM     23  O   UNL     1      -1.276  11.748  21.507  0.00  0.00    +0.000 OA
ENDBRANCH  14  15
ENDBRANCH  13  14
ENDBRANCH   3  13
TORSDOF 5
ENDMDL
MODEL 4
REMARK VINA RESULT:      -7.1      5.856      8.732
REMARK  Name = 
REMARK  5 active torsions:
REMARK  status: ('A' for Active; 'I' for Inactive)
REMARK    1  A    between atoms: C_2  and  C_3
REMARK    2  A    between atoms: C_5  and  C_6
REMARK    3  A    between atoms: C_6  and  O_7
REMARK    4  A    between atoms: O_7  and  C_8
REMARK    5  A    between atoms: C_18  and  N_19
REMARK                            x       y       z     vdW  Elec       q    Type
REMARK                         _______ _______ _______ _____ _____    ______ ____
ROOT
ATOM      1  C   UNL     1       0.680   9.406  21.283  0.00  0.00    +0.000 A 
ATOM      2  N   UNL     1       1.217   8.139  21.353  0.00  0.00    +0.000 NA
ATOM      3  C   UNL     1       1.667   7.930  20.130  0.00  0.00    +0.000 A 
ATOM      4  O   UNL     1       1.470   8.979  19.269  0.00  0.00    +0.000 OA
ATOM      5  C   UNL     1       0.845   9.946  20.020  0.00  0.00    +0.000 A 
ENDROOT
BRANCH   5   6
ATOM      6  N   UNL     1       0.570  11.131  19.419  0.00  0.00    +0.000 N 
ATOM      7  C   UNL     1       1.434  12.300  19.528  0.00  0.00    +0.000 C 
ATOM      8  C   UNL     1       0.452  13.463  19.626  0.00  0.00    +0.000 C 
ATOM      9  C   UNL     1      -0.713  13.012  18.760  0.00  0.00    +0.000 C 
ATOM     10  C   UNL     1      -0.775  11.499  18.981  0.00  0.00    +0.000 C 
ENDBRANCH   5   6
BRANCH   1  12
ATOM     11  N   UNL     1      -0.439  10.537  23.325  0.00  0.00    +0.000 NA
ATOM     12  C   UNL     1       0.072  10.017  22.420  0.00  0.00    +0.000 C 
ENDBRANCH   1  12
BRANCH   3  13
ATOM     13  C   UNL     1       2.464   6.777  19.615  0.00  0.00    +0.000 C 
BRANCH  13  14
ATOM     14  O   UNL     1       2.929   7.093  18.300  0.00  0.00    +0.000 OA
BRANCH  14  15
ATOM     15  C   UNL     1       3.620   6.105  17.641  0.00  0.00    +0.000 A 
ATOM     16  C   UNL     1       3.319   4.730  17.682  0.00  0.00    +0.000 A 
ATOM     17  C   UNL     1       4.090   3.803  16.967  0.00  0.00    +0.000 A 
ATOM     18  C   UNL     1       5.149   4.279  16.229  0.00  0.00    +0.000 A 
ATOM     19  C   UNL     1       5.453   5.618  16.187  0.00  0.00    +0.000 A 
ATOM     20  C   UNL     1       4.709   6.553  16.879  0.00  0.00    +0.000 A 
ATOM     21  O   UNL     1       6.537   5.875  15.406  0.00  0.00    +0.000 OA
ATOM     22  C   UNL     1       6.894   4.542  14.985  0.00  0.00    +0.000 C 
ATOM     23  O   UNL     1       5.998   3.526  15.482  0.00  0.00    +0.000 OA
ENDBRANCH  14  15
ENDBRANCH  13  14
ENDBRANCH   3  13
TORSDOF 5
ENDMDL
MODEL 5
REMARK VINA RESULT:      -7.1      5.096      7.971
REMARK  Name = 
REMARK  5 active torsions:
REMARK  status: ('A' for Active; 'I' for Inactive)
REMARK    1  A    between atoms: C_2  and  C_3
REMARK    2  A    between atoms: C_5  and  C_6
REMARK    3  A    between atoms: C_6  and  O_7
REMARK    4  A    between atoms: O_7  and  C_8
REMARK    5  A    between atoms: C_18  and  N_19
REMARK                            x       y       z     vdW  Elec       q    Type
REMARK                         _______ _______ _______ _____ _____    ______ ____
ROOT
ATOM      1  C   UNL     1       6.326   5.462  17.156  0.00  0.00    +0.000 A 
ATOM      2  N   UNL     1       5.608   6.117  18.133  0.00  0.00    +0.000 NA
ATOM      3  C   UNL     1       4.640   6.707  17.457  0.00  0.00    +0.000 A 
ATOM      4  O   UNL     1       4.671   6.474  16.106  0.00  0.00    +0.000 OA
ATOM      5  C   UNL     1       5.755   5.650  15.910  0.00  0.00    +0.000 A 
ENDROOT
BRANCH   5   6
ATOM      6  N   UNL     1       5.997   5.217  14.648  0.00  0.00    +0.000 N 
ATOM      7  C   UNL     1       5.143   4.259  13.956  0.00  0.00    +0.000 C 
ATOM      8  C   UNL     1       6.131   3.390  13.185  0.00  0.00    +0.000 C 
ATOM      9  C   UNL     1       7.243   4.361  12.822  0.00  0.00    +0.000 C 
ATOM     10  C   UNL     1       7.314   5.308  14.022  0.00  0.00    +0.000 C 
ENDBRANCH   5   6
BRANCH   1  12
ATOM     11  N   UNL     1       8.423   4.076  17.771  0.00  0.00    +0.000 NA
ATOM     12  C   UNL     1       7.482   4.692  17.477  0.00  0.00    +0.000 C 
ENDBRANCH   1  12
BRANCH   3  13
ATOM     13  C   UNL     1       3.467   7.468  17.982  0.00  0.00    +0.000 C 
BRANCH  13  14
ATOM     14  O   UNL     1       2.273   6.753  17.651  0.00  0.00    +0.000 OA
BRANCH  14  15
ATOM     15  C   UNL     1       2.112   5.524  18.243  0.00  0.00    +0.000 A 
ATOM     16  C   UNL     1       1.861   4.315  17.565  0.00  0.00    +0.000 A 
ATOM     17  C   UNL     1       1.717   3.112  18.269  0.00  0.00    +0.000 A 
ATOM     18  C   UNL     1       1.823   3.151  19.640  0.00  0.00    +0.000 A 
ATOM     19  C   UNL     1       2.062   4.325  20.310  0.00  0.00    +0.000 A 
ATOM     20  C   UNL     1       2.213   5.524  19.643  0.00  0.00    +0.000 A 
ATOM     21  O   UNL     1       2.127   4.144  21.657  0.00  0.00    +0.000 OA
ATOM     22  C   UNL     1       1.873   2.728  21.757  0.00  0.00    +0.000 C 
ATOM     23  O   UNL     1       1.708   2.085  20.475  0.00  0.00    +0.000 OA
ENDBRANCH  14  15
ENDBRANCH  13  14
ENDBRANCH   3  13
TORSDOF 5
ENDMDL
MODEL 6
REMARK VINA RESULT:      -7.1      1.823      2.826
REMARK  Name = 
REMARK  5 active torsions:
REMARK  status: ('A' for Active; 'I' for Inactive)
REMARK    1  A    between atoms: C_2  and  C_3
REMARK    2  A    between atoms: C_5  and  C_6
REMARK    3  A    between atoms: C_6  and  O_7
REMARK    4  A    between atoms: O_7  and  C_8
REMARK    5  A    between atoms: C_18  and  N_19
REMARK                            x       y       z     vdW  Elec       q    Type
REMARK                         _______ _______ _______ _____ _____    ______ ____
ROOT
ATOM      1  C   UNL     1       6.638   5.585  17.966  0.00  0.00    +0.000 A 
ATOM      2  N   UNL     1       7.068   6.729  18.603  0.00  0.00    +0.000 NA
ATOM      3  C   UNL     1       7.643   7.420  17.636  0.00  0.00    +0.000 A 
ATOM      4  O   UNL     1       7.608   6.809  16.409  0.00  0.00    +0.000 OA
ATOM      5  C   UNL     1       6.940   5.626  16.617  0.00  0.00    +0.000 A 
ENDROOT
BRANCH   5   6
ATOM      6  N   UNL     1       6.717   4.830  15.541  0.00  0.00    +0.000 N 
ATOM      7  C   UNL     1       7.623   4.758  14.402  0.00  0.00    +0.000 C 
ATOM      8  C   UNL     1       6.686   4.641  13.205  0.00  0.00    +0.000 C 
ATOM      9  C   UNL     1       5.515   3.841  13.754  0.00  0.00    +0.000 C 
ATOM     10  C   UNL     1       5.393   4.311  15.205  0.00  0.00    +0.000 C 
ENDBRANCH   5   6
BRANCH   1  12
ATOM     11  N   UNL     1       5.372   3.730  19.252  0.00  0.00    +0.000 NA
ATOM     12  C   UNL     1       5.956   4.553  18.677  0.00  0.00    +0.000 C 
ENDBRANCH   1  12
BRANCH   3  13
ATOM     13  C   UNL     1       8.194   8.807  17.684  0.00  0.00    +0.000 C 
BRANCH  13  14
ATOM     14  O   UNL     1       8.685   9.059  19.003  0.00  0.00    +0.000 OA
BRANCH  14  15
ATOM     15  C   UNL     1       9.297  10.272  19.207  0.00  0.00    +0.000 A 
ATOM     16  C   UNL     1       9.692  10.789  20.456  0.00  0.00    +0.000 A 
ATOM     17  C   UNL     1      10.314  12.041  20.552  0.00  0.00    +0.000 A 
ATOM     18  C   UNL     1      10.522  12.749  19.390  0.00  0.00    +0.000 A 
ATOM     19  C   UNL     1      10.135  12.254  18.168  0.00  0.00    +0.000 A 
ATOM     20  C   UNL     1       9.524  11.023  18.044  0.00  0.00    +0.000 A 
ATOM     21  O   UNL     1      10.428  13.110  17.152  0.00  0.00    +0.000 OA
ATOM     22  C   UNL     1      11.017  14.208  17.878  0.00  0.00    +0.000 C 
ATOM     23  O   UNL     1      11.106  13.972  19.299  0.00  0.00    +0.000 OA
ENDBRANCH  14  15
ENDBRANCH  13  14
ENDBRANCH   3  13
TORSDOF 5
ENDMDL
MODEL 7
REMARK VINA RESULT:      -7.1      5.608      6.982
REMARK  Name = 
REMARK  5 active torsions:
REMARK  status: ('A' for Active; 'I' for Inactive)
REMARK    1  A    between atoms: C_2  and  C_3
REMARK    2  A    between atoms: C_5  and  C_6
REMARK    3  A    between atoms: C_6  and  O_7
REMARK    4  A    between atoms: O_7  and  C_8
REMARK    5  A    between atoms: C_18  and  N_19
REMARK                            x       y       z     vdW  Elec       q    Type
REMARK                         _______ _______ _______ _____ _____    ______ ____
ROOT
ATOM      1  C   UNL     1       4.112   5.813  17.518  0.00  0.00    +0.000 A 
ATOM      2  N   UNL     1       4.080   7.172  17.294  0.00  0.00    +0.000 NA
ATOM      3  C   UNL     1       2.961   7.553  17.882  0.00  0.00    +0.000 A 
ATOM      4  O   UNL     1       2.266   6.536  18.483  0.00  0.00    +0.000 OA
ATOM      5  C   UNL     1       3.020   5.407  18.264  0.00  0.00    +0.000 A 
ENDROOT
BRANCH   5   6
ATOM      6  N   UNL     1       2.582   4.241  18.802  0.00  0.00    +0.000 N 
ATOM      7  C   UNL     1       1.924   3.202  18.021  0.00  0.00    +0.000 C 
ATOM      8  C   UNL     1       0.843   2.678  18.961  0.00  0.00    +0.000 C 
ATOM      9  C   UNL     1       1.481   2.808  20.335  0.00  0.00    +0.000 C 
ATOM     10  C   UNL     1       2.328   4.078  20.231  0.00  0.00    +0.000 C 
ENDBRANCH   5   6
BRANCH   1  12
ATOM     11  N   UNL     1       6.072   4.357  16.660  0.00  0.00    +0.000 NA
ATOM     12  C   UNL     1       5.183   5.007  17.029  0.00  0.00    +0.000 C 
ENDBRANCH   1  12
BRANCH   3  13
ATOM     13  C   UNL     1       2.439   8.937  18.084  0.00  0.00    +0.000 C 
BRANCH  13  14
ATOM     14  O   UNL     1       1.066   8.855  18.476  0.00  0.00    +0.000 OA
BRANCH  14  15
ATOM     15  C   UNL     1       0.773   9.235  19.763  0.00  0.00    +0.000 A 
ATOM     16  C   UNL     1       1.271   8.622  20.930  0.00  0.00    +0.000 A 
ATOM     17  C   UNL     1       0.910   9.093  22.200  0.00  0.00    +0.000 A 
ATOM     18  C   UNL     1       0.052  10.167  22.269  0.00  0.00    +0.000 A 
ATOM     19  C   UNL     1      -0.442  10.767  21.136  0.00  0.00    +0.000 A 
ATOM     20  C   UNL     1      -0.100  10.327  19.874  0.00  0.00    +0.000 A 
ATOM     21  O   UNL     1      -1.273  11.805  21.426  0.00  0.00    +0.000 OA
ATOM     22  C   UNL     1      -1.265  11.770  22.868  0.00  0.00    +0.000 C 
ATOM     23  O   UNL     1      -0.401  10.749  23.411  0.00  0.00    +0.000 OA
ENDBRANCH  14  15
ENDBRANCH  13  14
ENDBRANCH   3  13
TORSDOF 5
ENDMDL
MODEL 8
REMARK VINA RESULT:      -7.0      5.548      7.494
REMARK  Name = 
REMARK  5 active torsions:
REMARK  status: ('A' for Active; 'I' for Inactive)
REMARK    1  A    between atoms: C_2  and  C_3
REMARK    2  A    between atoms: C_5  and  C_6
REMARK    3  A    between atoms: C_6  and  O_7
REMARK    4  A    between atoms: O_7  and  C_8
REMARK    5  A    between atoms: C_18  and  N_19
REMARK                            x       y       z     vdW  Elec       q    Type
REMARK                         _______ _______ _______ _____ _____    ______ ____
ROOT
ATOM      1  C   UNL     1       3.302   3.933  18.903  0.00  0.00    +0.000 A 
ATOM      2  N   UNL     1       2.267   4.295  19.736  0.00  0.00    +0.000 NA
ATOM      3  C   UNL     1       2.434   5.596  19.884  0.00  0.00    +0.000 A 
ATOM      4  O   UNL     1       3.503   6.109  19.195  0.00  0.00    +0.000 OA
ATOM      5  C   UNL     1       4.058   5.034  18.542  0.00  0.00    +0.000 A 
ENDROOT
BRANCH   5   6
ATOM      6  N   UNL     1       5.122   5.267  17.735  0.00  0.00    +0.000 N 
ATOM      7  C   UNL     1       4.999   5.829  16.396  0.00  0.00    +0.000 C 
ATOM      8  C   UNL     1       6.047   5.070  15.590  0.00  0.00    +0.000 C 
ATOM      9  C   UNL     1       7.156   4.825  16.601  0.00  0.00    +0.000 C 
ATOM     10  C   UNL     1       6.413   4.608  17.920  0.00  0.00    +0.000 C 
ENDBRANCH   5   6
BRANCH   1  12
ATOM     11  N   UNL     1       3.637   1.466  18.194  0.00  0.00    +0.000 NA
ATOM     12  C   UNL     1       3.485   2.578  18.494  0.00  0.00    +0.000 C 
ENDBRANCH   1  12
BRANCH   3  13
ATOM     13  C   UNL     1       1.549   6.576  20.582  0.00  0.00    +0.000 C 
BRANCH  13  14
ATOM     14  O   UNL     1       2.050   7.894  20.343  0.00  0.00    +0.000 OA
BRANCH  14  15
ATOM     15  C   UNL     1       1.162   8.927  20.520  0.00  0.00    +0.000 A 
ATOM     16  C   UNL     1       0.565   9.679  19.489  0.00  0.00    +0.000 A 
ATOM     17  C   UNL     1      -0.334  10.714  19.781  0.00  0.00    +0.000 A 
ATOM     18  C   UNL     1      -0.610  10.974  21.104  0.00  0.00    +0.000 A 
ATOM     19  C   UNL     1      -0.029  10.249  22.116  0.00  0.00    +0.000 A 
ATOM     20  C   UNL     1       0.857   9.223  21.858  0.00  0.00    +0.000 A 
ATOM     21  O   UNL     1      -0.433  10.669  23.346  0.00  0.00    +0.000 OA
ATOM     22  C   UNL     1      -1.312  11.756  22.990  0.00  0.00    +0.000 C 
ATOM     23  O   UNL     1      -1.451  11.936  21.565  0.00  0.00    +0.000 OA
ENDBRANCH  14  15
ENDBRANCH  13  14
ENDBRANCH   3  13
TORSDOF 5
ENDMDL
MODEL 9
REMARK VINA RESULT:      -7.0      5.590      7.127
REMARK  Name = 
REMARK  5 active torsions:
REMARK  status: ('A' for Active; 'I' for Inactive)
REMARK    1  A    between atoms: C_2  and  C_3
REMARK    2  A    between atoms: C_5  and  C_6
REMARK    3  A    between atoms: C_6  and  O_7
REMARK    4  A    between atoms: O_7  and  C_8
REMARK    5  A    between atoms: C_18  and  N_19
REMARK                            x       y       z     vdW  Elec       q    Type
REMARK                         _______ _______ _______ _____ _____    ______ ____
ROOT
ATOM      1  C   UNL     1       3.914   5.768  17.556  0.00  0.00    +0.000 A 
ATOM      2  N   UNL     1       3.944   7.103  17.215  0.00  0.00    +0.000 NA
ATOM      3  C   UNL     1       2.913   7.608  17.866  0.00  0.00    +0.000 A 
ATOM      4  O   UNL     1       2.218   6.696  18.617  0.00  0.00    +0.000 OA
ATOM      5  C   UNL     1       2.877   5.503  18.433  0.00  0.00    +0.000 A 
ENDROOT
BRANCH   5   6
ATOM      6  N   UNL     1       2.422   4.420  19.110  0.00  0.00    +0.000 N 
ATOM      7  C   UNL     1       1.877   3.239  18.453  0.00  0.00    +0.000 C 
ATOM      8  C   UNL     1       0.724   2.824  19.360  0.00  0.00    +0.000 C 
ATOM      9  C   UNL     1       1.216   3.202  20.748  0.00  0.00    +0.000 C 
ATOM     10  C   UNL     1       2.031   4.477  20.517  0.00  0.00    +0.000 C 
ENDBRANCH   5   6
BRANCH   1  12
ATOM     11  N   UNL     1       5.687   4.109  16.659  0.00  0.00    +0.000 NA
ATOM     12  C   UNL     1       4.881   4.851  17.046  0.00  0.00    +0.000 C 
ENDBRANCH   1  12
BRANCH   3  13
ATOM     13  C   UNL     1       2.499   9.037  17.989  0.00  0.00    +0.000 C 
BRANCH  13  14
ATOM     14  O   UNL     1       1.123   9.149  17.615  0.00  0.00    +0.000 OA
BRANCH  14  15
ATOM     15  C   UNL     1       0.323   9.899  18.442  0.00  0.00    +0.000 A 
ATOM     16  C   UNL     1      -0.956  10.392  18.116  0.00  0.00    +0.000 A 
ATOM     17  C   UNL     1      -1.692  11.147  19.039  0.00  0.00    +0.000 A 
ATOM     18  C   UNL     1      -1.124  11.395  20.268  0.00  0.00    +0.000 A 
ATOM     19  C   UNL     1       0.124  10.923  20.592  0.00  0.00    +0.000 A 
ATOM     20  C   UNL     1       0.870  10.174  19.705  0.00  0.00    +0.000 A 
ATOM     21  O   UNL     1       0.499  11.283  21.849  0.00  0.00    +0.000 OA
ATOM     22  C   UNL     1      -0.645  12.057  22.266  0.00  0.00    +0.000 C 
ATOM     23  O   UNL     1      -1.693  12.108  21.276  0.00  0.00    +0.000 OA
ENDBRANCH  14  15
ENDBRANCH  13  14
ENDBRANCH   3  13
TORSDOF 5
ENDMDL
