MODEL 1
REMARK VINA RESULT:      -6.9      0.000      0.000
REMARK  Name = 
REMARK  12 active torsions:
REMARK  status: ('A' for Active; 'I' for Inactive)
REMARK    1  A    between atoms: C_1  and  C_2
REMARK    2  A    between atoms: C_2  and  O_3
REMARK    3  A    between atoms: O_3  and  C_4
REMARK    4  A    between atoms: C_4  and  C_5
REMARK    5  A    between atoms: C_4  and  O_29
REMARK    6  A    between atoms: C_5  and  N_6
REMARK    7  A    between atoms: C_7  and  C_9
REMARK    8  A    between atoms: C_9  and  N_10
REMARK    9  A    between atoms: C_18  and  S_19
REMARK   10  A    between atoms: S_19  and  N_22
REMARK   11  A    between atoms: O_29  and  C_30
REMARK   12  A    between atoms: C_30  and  C_31
REMARK                            x       y       z     vdW  Elec       q    Type
REMARK                         _______ _______ _______ _____ _____    ______ ____
ROOT
ATOM      1  N   UNL     1       2.340   6.039  19.400  0.00  0.00    +0.000 N 
ATOM      2  C   UNL     1       1.385   5.607  20.315  0.00  0.00    +0.000 C 
ATOM      3  O   UNL     1       0.907   6.334  21.184  0.00  0.00    +0.000 OA
ATOM      4  C   UNL     1       0.928   4.170  20.126  0.00  0.00    +0.000 C 
ATOM      5  O   UNL     1       1.917   3.235  19.731  0.00  0.00    +0.000 OA
ATOM      6  C   UNL     1       2.778   3.723  18.783  0.00  0.00    +0.000 A 
ATOM      7  C   UNL     1       3.515   2.759  18.091  0.00  0.00    +0.000 A 
ATOM      8  C   UNL     1       4.468   3.145  17.149  0.00  0.00    +0.000 A 
ATOM      9  C   UNL     1       4.658   4.500  16.878  0.00  0.00    +0.000 A 
ATOM     10  C   UNL     1       3.867   5.468  17.518  0.00  0.00    +0.000 A 
ATOM     11  C   UNL     1       2.982   5.093  18.545  0.00  0.00    +0.000 A 
ENDROOT
BRANCH   9  12
ATOM     12  S   UNL     1       5.834   4.965  15.609  0.00  0.00    +0.000 S 
ATOM     13  O   UNL     1       6.119   3.779  14.839  0.00  0.00    +0.000 OA
ATOM     14  O   UNL     1       5.302   6.161  14.964  0.00  0.00    +0.000 OA
BRANCH  12  15
ATOM     15  N   UNL     1       7.249   5.404  16.419  0.00  0.00    +0.000 NA
ATOM     16  C   UNL     1       7.795   4.560  17.498  0.00  0.00    +0.000 C 
ATOM     17  C   UNL     1       7.492   5.355  18.752  0.00  0.00    +0.000 C 
ATOM     18  C   UNL     1       7.670   6.804  18.319  0.00  0.00    +0.000 C 
ATOM     19  C   UNL     1       7.476   6.815  16.803  0.00  0.00    +0.000 C 
ENDBRANCH  12  15
ENDBRANCH   9  12
BRANCH   1  20
ATOM     20  C   UNL     1       2.836   7.408  19.533  0.00  0.00    +0.000 C 
BRANCH  20  22
ATOM     21  N   UNL     1       1.141   9.223  19.561  0.00  0.00    +0.000 N 
ATOM     22  C   UNL     1       1.976   8.443  18.785  0.00  0.00    +0.000 C 
ATOM     23  O   UNL     1       1.980   8.502  17.555  0.00  0.00    +0.000 OA
ATOM     24  H   UNL     1       1.068   9.039  20.560  0.00  0.00    +0.000 HD
BRANCH  21  25
ATOM     25  C   UNL     1       0.107  10.076  18.969  0.00  0.00    +0.000 C 
BRANCH  25  26
ATOM     26  C   UNL     1      -0.340  11.265  19.867  0.00  0.00    +0.000 C 
BRANCH  26  27
ATOM     27  O   UNL     1      -1.066  10.839  21.023  0.00  0.00    +0.000 OA
BRANCH  27  29
ATOM     28  C   UNL     1      -0.390   9.858  23.083  0.00  0.00    +0.000 C 
ATOM     29  C   UNL     1      -0.436  11.134  22.263  0.00  0.00    +0.000 C 
ENDBRANCH  27  29
ENDBRANCH  26  27
BRANCH  26  30
ATOM     30  O   UNL     1      -1.158  12.158  19.087  0.00  0.00    +0.000 OA
BRANCH  30  31
ATOM     31  C   UNL     1      -1.736  11.504  17.952  0.00  0.00    +0.000 C 
ATOM     32  C   UNL     1      -3.250  11.501  18.076  0.00  0.00    +0.000 C 
ENDBRANCH  30  31
ENDBRANCH  26  30
ENDBRANCH  25  26
ENDBRANCH  21  25
ENDBRANCH  20  22
ENDBRANCH   1  20
TORSDOF 10
ENDMDL
MODEL 2
REMARK VINA RESULT:      -6.9      0.985      1.083
REMARK  Name = 
REMARK  12 active torsions:
REMARK  status: ('A' for Active; 'I' for Inactive)
REMARK    1  A    between atoms: C_1  and  C_2
REMARK    2  A    between atoms: C_2  and  O_3
REMARK    3  A    between atoms: O_3  and  C_4
REMARK    4  A    between atoms: C_4  and  C_5
REMARK    5  A    between atoms: C_4  and  O_29
REMARK    6  A    between atoms: C_5  and  N_6
REMARK    7  A    between atoms: C_7  and  C_9
REMARK    8  A    between atoms: C_9  and  N_10
REMARK    9  A    between atoms: C_18  and  S_19
REMARK   10  A    between atoms: S_19  and  N_22
REMARK   11  A    between atoms: O_29  and  C_30
REMARK   12  A    between atoms: C_30  and  C_31
REMARK                            x       y       z     vdW  Elec       q    Type
REMARK                         _______ _______ _______ _____ _____    ______ ____
ROOT
ATOM      1  N   UNL     1       2.380   5.391  19.360  0.00  0.00    +0.000 N 
ATOM      2  C   UNL     1       1.415   4.709  20.094  0.00  0.00    +0.000 C 
ATOM      3  O   UNL     1       0.942   5.136  21.146  0.00  0.00    +0.000 OA
ATOM      4  C   UNL     1       0.940   3.409  19.466  0.00  0.00    +0.000 C 
ATOM      5  O   UNL     1       1.919   2.629  18.800  0.00  0.00    +0.000 OA
ATOM      6  C   UNL     1       2.791   3.376  18.053  0.00  0.00    +0.000 A 
ATOM      7  C   UNL     1       3.519   2.666  17.095  0.00  0.00    +0.000 A 
ATOM      8  C   UNL     1       4.482   3.313  16.321  0.00  0.00    +0.000 A 
ATOM      9  C   UNL     1       4.690   4.682  16.486  0.00  0.00    +0.000 A 
ATOM     10  C   UNL     1       3.908   5.414  17.395  0.00  0.00    +0.000 A 
ATOM     11  C   UNL     1       3.013   4.749  18.253  0.00  0.00    +0.000 A 
ENDROOT
BRANCH   9  12
ATOM     12  S   UNL     1       5.878   5.503  15.426  0.00  0.00    +0.000 S 
ATOM     13  O   UNL     1       6.191   4.592  14.352  0.00  0.00    +0.000 OA
ATOM     14  O   UNL     1       5.339   6.829  15.142  0.00  0.00    +0.000 OA
BRANCH  12  15
ATOM     15  N   UNL     1       7.275   5.703  16.353  0.00  0.00    +0.000 NA
ATOM     16  C   UNL     1       7.740   4.636  17.258  0.00  0.00    +0.000 C 
ATOM     17  C   UNL     1       7.418   5.180  18.635  0.00  0.00    +0.000 C 
ATOM     18  C   UNL     1       7.673   6.675  18.508  0.00  0.00    +0.000 C 
ATOM     19  C   UNL     1       7.543   6.997  17.020  0.00  0.00    +0.000 C 
ENDBRANCH  12  15
ENDBRANCH   9  12
BRANCH   1  20
ATOM     20  C   UNL     1       2.892   6.643  19.912  0.00  0.00    +0.000 C 
BRANCH  20  22
ATOM     21  N   UNL     1       1.277   8.334  20.750  0.00  0.00    +0.000 N 
ATOM     22  C   UNL     1       1.967   7.846  19.657  0.00  0.00    +0.000 C 
ATOM     23  O   UNL     1       1.795   8.286  18.520  0.00  0.00    +0.000 OA
ATOM     24  H   UNL     1       1.342   7.846  21.642  0.00  0.00    +0.000 HD
BRANCH  21  25
ATOM     25  C   UNL     1       0.195   9.313  20.610  0.00  0.00    +0.000 C 
BRANCH  25  26
ATOM     26  C   UNL     1       0.651  10.796  20.721  0.00  0.00    +0.000 C 
BRANCH  26  27
ATOM     27  O   UNL     1       0.371  11.363  22.003  0.00  0.00    +0.000 OA
BRANCH  27  29
ATOM     28  C   UNL     1      -1.594  12.182  23.068  0.00  0.00    +0.000 C 
ATOM     29  C   UNL     1      -0.859  10.947  22.583  0.00  0.00    +0.000 C 
ENDBRANCH  27  29
ENDBRANCH  26  27
BRANCH  26  30
ATOM     30  O   UNL     1      -0.011  11.566  19.700  0.00  0.00    +0.000 OA
BRANCH  30  31
ATOM     31  C   UNL     1      -0.811  10.745  18.842  0.00  0.00    +0.000 C 
ATOM     32  C   UNL     1      -2.088  11.480  18.471  0.00  0.00    +0.000 C 
ENDBRANCH  30  31
ENDBRANCH  26  30
ENDBRANCH  25  26
ENDBRANCH  21  25
ENDBRANCH  20  22
ENDBRANCH   1  20
TORSDOF 10
ENDMDL
MODEL 3
REMARK VINA RESULT:      -6.8      0.564      1.880
REMARK  Name = 
REMARK  12 active torsions:
REMARK  status: ('A' for Active; 'I' for Inactive)
REMARK    1  A    between atoms: C_1  and  C_2
REMARK    2  A    between atoms: C_2  and  O_3
REMARK    3  A    between atoms: O_3  and  C_4
REMARK    4  A    between atoms: C_4  and  C_5
REMARK    5  A    between atoms: C_4  and  O_29
REMARK    6  A    between atoms: C_5  and  N_6
REMARK    7  A    between atoms: C_7  and  C_9
REMARK    8  A    between atoms: C_9  and  N_10
REMARK    9  A    between atoms: C_18  and  S_19
REMARK   10  A    between atoms: S_19  and  N_22
REMARK   11  A    between atoms: O_29  and  C_30
REMARK   12  A    between atoms: C_30  and  C_31
REMARK                            x       y       z     vdW  Elec       q    Type
REMARK                         _______ _______ _______ _____ _____    ______ ____
ROOT
ATOM      1  N   UNL     1       2.357   6.043  19.361  0.00  0.00    +0.000 N 
ATOM      2  C   UNL     1       1.391   5.627  20.270  0.00  0.00    +0.000 C 
ATOM      3  O   UNL     1       0.911   6.363  21.131  0.00  0.00    +0.000 OA
ATOM      4  C   UNL     1       0.923   4.192  20.086  0.00  0.00    +0.000 C 
ATOM      5  O   UNL     1       1.907   3.246  19.706  0.00  0.00    +0.000 OA
ATOM      6  C   UNL     1       2.780   3.720  18.764  0.00  0.00    +0.000 A 
ATOM      7  C   UNL     1       3.516   2.746  18.084  0.00  0.00    +0.000 A 
ATOM      8  C   UNL     1       4.481   3.116  17.148  0.00  0.00    +0.000 A 
ATOM      9  C   UNL     1       4.684   4.468  16.870  0.00  0.00    +0.000 A 
ATOM     10  C   UNL     1       3.896   5.447  17.497  0.00  0.00    +0.000 A 
ATOM     11  C   UNL     1       2.998   5.086  18.518  0.00  0.00    +0.000 A 
ENDROOT
BRANCH   9  12
ATOM     12  S   UNL     1       5.875   4.915  15.609  0.00  0.00    +0.000 S 
ATOM     13  O   UNL     1       6.158   3.721  14.851  0.00  0.00    +0.000 OA
ATOM     14  O   UNL     1       5.359   6.109  14.950  0.00  0.00    +0.000 OA
BRANCH  12  15
ATOM     15  N   UNL     1       7.287   5.349  16.429  0.00  0.00    +0.000 NA
ATOM     16  C   UNL     1       7.800   4.524  17.539  0.00  0.00    +0.000 C 
ATOM     17  C   UNL     1       7.493   5.359  18.766  0.00  0.00    +0.000 C 
ATOM     18  C   UNL     1       7.706   6.792  18.297  0.00  0.00    +0.000 C 
ATOM     19  C   UNL     1       7.534   6.765  16.778  0.00  0.00    +0.000 C 
ENDBRANCH  12  15
ENDBRANCH   9  12
BRANCH   1  20
ATOM     20  C   UNL     1       2.864   7.409  19.489  0.00  0.00    +0.000 C 
BRANCH  20  22
ATOM     21  N   UNL     1       1.258   9.287  19.235  0.00  0.00    +0.000 N 
ATOM     22  C   UNL     1       2.124   8.420  18.596  0.00  0.00    +0.000 C 
ATOM     23  O   UNL     1       2.241   8.391  17.370  0.00  0.00    +0.000 OA
ATOM     24  H   UNL     1       1.086   9.178  20.233  0.00  0.00    +0.000 HD
BRANCH  21  25
ATOM     25  C   UNL     1       0.322  10.135  18.492  0.00  0.00    +0.000 C 
BRANCH  25  26
ATOM     26  C   UNL     1      -1.052  10.343  19.190  0.00  0.00    +0.000 C 
BRANCH  26  27
ATOM     27  O   UNL     1      -1.660  11.591  18.848  0.00  0.00    +0.000 OA
BRANCH  27  29
ATOM     28  C   UNL     1      -3.043  10.022  17.713  0.00  0.00    +0.000 C 
ATOM     29  C   UNL     1      -2.846  11.483  18.073  0.00  0.00    +0.000 C 
ENDBRANCH  27  29
ENDBRANCH  26  27
BRANCH  26  30
ATOM     30  O   UNL     1      -0.868  10.273  20.617  0.00  0.00    +0.000 OA
BRANCH  30  31
ATOM     31  C   UNL     1      -0.769  11.573  21.209  0.00  0.00    +0.000 C 
ATOM     32  C   UNL     1      -1.299  11.530  22.632  0.00  0.00    +0.000 C 
ENDBRANCH  30  31
ENDBRANCH  26  30
ENDBRANCH  25  26
ENDBRANCH  21  25
ENDBRANCH  20  22
ENDBRANCH   1  20
TORSDOF 10
ENDMDL
MODEL 4
REMARK VINA RESULT:      -6.7      1.055      1.866
REMARK  Name = 
REMARK  12 active torsions:
REMARK  status: ('A' for Active; 'I' for Inactive)
REMARK    1  A    between atoms: C_1  and  C_2
REMARK    2  A    between atoms: C_2  and  O_3
REMARK    3  A    between atoms: O_3  and  C_4
REMARK    4  A    between atoms: C_4  and  C_5
REMARK    5  A    between atoms: C_4  and  O_29
REMARK    6  A    between atoms: C_5  and  N_6
REMARK    7  A    between atoms: C_7  and  C_9
REMARK    8  A    between atoms: C_9  and  N_10
REMARK    9  A    between atoms: C_18  and  S_19
REMARK   10  A    between atoms: S_19  and  N_22
REMARK   11  A    between atoms: O_29  and  C_30
REMARK   12  A    between atoms: C_30  and  C_31
REMARK                            x       y       z     vdW  Elec       q    Type
REMARK                         _______ _______ _______ _____ _____    ______ ____
ROOT
ATOM      1  N   UNL     1       2.310   6.097  19.430  0.00  0.00    +0.000 N 
ATOM      2  C   UNL     1       1.368   5.654  20.352  0.00  0.00    +0.000 C 
ATOM      3  O   UNL     1       0.883   6.377  21.221  0.00  0.00    +0.000 OA
ATOM      4  C   UNL     1       0.934   4.209  20.172  0.00  0.00    +0.000 C 
ATOM      5  O   UNL     1       1.936   3.288  19.776  0.00  0.00    +0.000 OA
ATOM      6  C   UNL     1       2.783   3.785  18.822  0.00  0.00    +0.000 A 
ATOM      7  C   UNL     1       3.532   2.831  18.130  0.00  0.00    +0.000 A 
ATOM      8  C   UNL     1       4.474   3.228  17.180  0.00  0.00    +0.000 A 
ATOM      9  C   UNL     1       4.640   4.584  16.902  0.00  0.00    +0.000 A 
ATOM     10  C   UNL     1       3.836   5.543  17.542  0.00  0.00    +0.000 A 
ATOM     11  C   UNL     1       2.963   5.157  18.576  0.00  0.00    +0.000 A 
ENDROOT
BRANCH   9  12
ATOM     12  S   UNL     1       5.800   5.063  15.625  0.00  0.00    +0.000 S 
ATOM     13  O   UNL     1       6.052   3.893  14.820  0.00  0.00    +0.000 OA
ATOM     14  O   UNL     1       5.277   6.283  15.020  0.00  0.00    +0.000 OA
BRANCH  12  15
ATOM     15  N   UNL     1       7.237   5.458  16.420  0.00  0.00    +0.000 NA
ATOM     16  C   UNL     1       7.795   4.570  17.457  0.00  0.00    +0.000 C 
ATOM     17  C   UNL     1       7.527   5.323  18.744  0.00  0.00    +0.000 C 
ATOM     18  C   UNL     1       7.712   6.785  18.360  0.00  0.00    +0.000 C 
ATOM     19  C   UNL     1       7.487   6.852  16.850  0.00  0.00    +0.000 C 
ENDBRANCH  12  15
ENDBRANCH   9  12
BRANCH   1  20
ATOM     20  C   UNL     1       2.785   7.474  19.554  0.00  0.00    +0.000 C 
BRANCH  20  22
ATOM     21  N   UNL     1       1.018   9.205  19.789  0.00  0.00    +0.000 N 
ATOM     22  C   UNL     1       1.833   8.505  18.920  0.00  0.00    +0.000 C 
ATOM     23  O   UNL     1       1.753   8.629  17.697  0.00  0.00    +0.000 OA
ATOM     24  H   UNL     1       1.019   8.966  20.779  0.00  0.00    +0.000 HD
BRANCH  21  25
ATOM     25  C   UNL     1      -0.088  10.038  19.311  0.00  0.00    +0.000 C 
BRANCH  25  26
ATOM     26  C   UNL     1      -0.019  11.524  19.765  0.00  0.00    +0.000 C 
BRANCH  26  27
ATOM     27  O   UNL     1       1.279  11.896  20.237  0.00  0.00    +0.000 OA
BRANCH  27  29
ATOM     28  C   UNL     1       2.775  13.733  20.466  0.00  0.00    +0.000 C 
ATOM     29  C   UNL     1       1.899  12.947  19.508  0.00  0.00    +0.000 C 
ENDBRANCH  27  29
ENDBRANCH  26  27
BRANCH  26  30
ATOM     30  O   UNL     1      -0.989  11.741  20.808  0.00  0.00    +0.000 OA
BRANCH  30  31
ATOM     31  C   UNL     1      -0.387  11.753  22.107  0.00  0.00    +0.000 C 
ATOM     32  C   UNL     1      -1.142  10.814  23.032  0.00  0.00    +0.000 C 
ENDBRANCH  30  31
ENDBRANCH  26  30
ENDBRANCH  25  26
ENDBRANCH  21  25
ENDBRANCH  20  22
ENDBRANCH   1  20
TORSDOF 10
ENDMDL
MODEL 5
REMARK VINA RESULT:      -6.7      0.722      1.981
REMARK  Name = 
REMARK  12 active torsions:
REMARK  status: ('A' for Active; 'I' for Inactive)
REMARK    1  A    between atoms: C_1  and  C_2
REMARK    2  A    between atoms: C_2  and  O_3
REMARK    3  A    between atoms: O_3  and  C_4
REMARK    4  A    between atoms: C_4  and  C_5
REMARK    5  A    between atoms: C_4  and  O_29
REMARK    6  A    between atoms: C_5  and  N_6
REMARK    7  A    between atoms: C_7  and  C_9
REMARK    8  A    between atoms: C_9  and  N_10
REMARK    9  A    between atoms: C_18  and  S_19
REMARK   10  A    between atoms: S_19  and  N_22
REMARK   11  A    between atoms: O_29  and  C_30
REMARK   12  A    between atoms: C_30  and  C_31
REMARK                            x       y       z     vdW  Elec       q    Type
REMARK                         _______ _______ _______ _____ _____    ______ ____
ROOT
ATOM      1  N   UNL     1       2.273   6.322  19.469  0.00  0.00    +0.000 N 
ATOM      2  C   UNL     1       1.370   5.862  20.421  0.00  0.00    +0.000 C 
ATOM      3  O   UNL     1       0.910   6.573  21.314  0.00  0.00    +0.000 OA
ATOM      4  C   UNL     1       0.944   4.414  20.245  0.00  0.00    +0.000 C 
ATOM      5  O   UNL     1       1.940   3.507  19.803  0.00  0.00    +0.000 OA
ATOM      6  C   UNL     1       2.746   4.022  18.823  0.00  0.00    +0.000 A 
ATOM      7  C   UNL     1       3.479   3.081  18.095  0.00  0.00    +0.000 A 
ATOM      8  C   UNL     1       4.380   3.496  17.114  0.00  0.00    +0.000 A 
ATOM      9  C   UNL     1       4.521   4.856  16.842  0.00  0.00    +0.000 A 
ATOM     10  C   UNL     1       3.733   5.800  17.520  0.00  0.00    +0.000 A 
ATOM     11  C   UNL     1       2.903   5.397  18.582  0.00  0.00    +0.000 A 
ENDROOT
BRANCH   9  12
ATOM     12  S   UNL     1       5.628   5.358  15.527  0.00  0.00    +0.000 S 
ATOM     13  O   UNL     1       5.766   4.233  14.635  0.00  0.00    +0.000 OA
ATOM     14  O   UNL     1       5.139   6.641  15.034  0.00  0.00    +0.000 OA
BRANCH  12  15
ATOM     15  N   UNL     1       7.130   5.624  16.253  0.00  0.00    +0.000 NA
ATOM     16  C   UNL     1       7.753   4.590  17.100  0.00  0.00    +0.000 C 
ATOM     17  C   UNL     1       7.600   5.147  18.501  0.00  0.00    +0.000 C 
ATOM     18  C   UNL     1       7.779   6.648  18.321  0.00  0.00    +0.000 C 
ATOM     19  C   UNL     1       7.437   6.938  16.860  0.00  0.00    +0.000 C 
ENDBRANCH  12  15
ENDBRANCH   9  12
BRANCH   1  20
ATOM     20  C   UNL     1       2.737   7.704  19.587  0.00  0.00    +0.000 C 
BRANCH  20  22
ATOM     21  N   UNL     1       1.207   9.656  19.716  0.00  0.00    +0.000 N 
ATOM     22  C   UNL     1       1.808   8.720  18.898  0.00  0.00    +0.000 C 
ATOM     23  O   UNL     1       1.558   8.638  17.694  0.00  0.00    +0.000 OA
ATOM     24  H   UNL     1       1.333   9.595  20.725  0.00  0.00    +0.000 HD
BRANCH  21  25
ATOM     25  C   UNL     1       0.129  10.525  19.236  0.00  0.00    +0.000 C 
BRANCH  25  26
ATOM     26  C   UNL     1      -0.833  11.033  20.348  0.00  0.00    +0.000 C 
BRANCH  26  27
ATOM     27  O   UNL     1      -1.487  12.254  19.995  0.00  0.00    +0.000 OA
BRANCH  27  29
ATOM     28  C   UNL     1      -3.783  12.794  20.315  0.00  0.00    +0.000 C 
ATOM     29  C   UNL     1      -2.778  12.093  19.420  0.00  0.00    +0.000 C 
ENDBRANCH  27  29
ENDBRANCH  26  27
BRANCH  26  30
ATOM     30  O   UNL     1      -0.084  11.223  21.564  0.00  0.00    +0.000 OA
BRANCH  30  31
ATOM     31  C   UNL     1      -0.810  10.782  22.716  0.00  0.00    +0.000 C 
ATOM     32  C   UNL     1      -0.202   9.495  23.245  0.00  0.00    +0.000 C 
ENDBRANCH  30  31
ENDBRANCH  26  30
ENDBRANCH  25  26
ENDBRANCH  21  25
ENDBRANCH  20  22
ENDBRANCH   1  20
TORSDOF 10
ENDMDL
MODEL 6
REMARK VINA RESULT:      -6.6      1.699      2.333
REMARK  Name = 
REMARK  12 active torsions:
REMARK  status: ('A' for Active; 'I' for Inactive)
REMARK    1  A    between atoms: C_1  and  C_2
REMARK    2  A    between atoms: C_2  and  O_3
REMARK    3  A    between atoms: O_3  and  C_4
REMARK    4  A    between atoms: C_4  and  C_5
REMARK    5  A    between atoms: C_4  and  O_29
REMARK    6  A    between atoms: C_5  and  N_6
REMARK    7  A    between atoms: C_7  and  C_9
REMARK    8  A    between atoms: C_9  and  N_10
REMARK    9  A    between atoms: C_18  and  S_19
REMARK   10  A    between atoms: S_19  and  N_22
REMARK   11  A    between atoms: O_29  and  C_30
REMARK   12  A    between atoms: C_30  and  C_31
REMARK                            x       y       z     vdW  Elec       q    Type
REMARK                         _______ _______ _______ _____ _____    ______ ____
ROOT
ATOM      1  N   UNL     1       2.328   4.119  19.980  0.00  0.00    +0.000 N 
ATOM      2  C   UNL     1       1.658   2.976  20.404  0.00  0.00    +0.000 C 
ATOM      3  O   UNL     1       1.172   2.856  21.527  0.00  0.00    +0.000 OA
ATOM      4  C   UNL     1       1.520   1.892  19.347  0.00  0.00    +0.000 C 
ATOM      5  O   UNL     1       2.621   1.712  18.473  0.00  0.00    +0.000 OA
ATOM      6  C   UNL     1       3.182   2.890  18.057  0.00  0.00    +0.000 A 
ATOM      7  C   UNL     1       4.000   2.799  16.928  0.00  0.00    +0.000 A 
ATOM      8  C   UNL     1       4.674   3.924  16.454  0.00  0.00    +0.000 A 
ATOM      9  C   UNL     1       4.500   5.150  17.096  0.00  0.00    +0.000 A 
ATOM     10  C   UNL     1       3.622   5.262  18.185  0.00  0.00    +0.000 A 
ATOM     11  C   UNL     1       3.024   4.112  18.733  0.00  0.00    +0.000 A 
ENDROOT
BRANCH   9  12
ATOM     12  S   UNL     1       5.317   6.595  16.421  0.00  0.00    +0.000 S 
ATOM     13  O   UNL     1       5.235   6.497  14.985  0.00  0.00    +0.000 OA
ATOM     14  O   UNL     1       4.767   7.751  17.120  0.00  0.00    +0.000 OA
BRANCH  12  15
ATOM     15  N   UNL     1       6.944   6.459  16.853  0.00  0.00    +0.000 NA
ATOM     16  C   UNL     1       7.444   5.257  17.547  0.00  0.00    +0.000 C 
ATOM     17  C   UNL     1       7.684   5.745  18.962  0.00  0.00    +0.000 C 
ATOM     18  C   UNL     1       8.182   7.171  18.779  0.00  0.00    +0.000 C 
ATOM     19  C   UNL     1       7.661   7.625  17.416  0.00  0.00    +0.000 C 
ENDBRANCH  12  15
ENDBRANCH   9  12
BRANCH   1  20
ATOM     20  C   UNL     1       2.510   5.197  20.950  0.00  0.00    +0.000 C 
BRANCH  20  22
ATOM     21  N   UNL     1       1.774   7.551  21.243  0.00  0.00    +0.000 N 
ATOM     22  C   UNL     1       1.407   6.268  20.886  0.00  0.00    +0.000 C 
ATOM     23  O   UNL     1       0.244   5.968  20.611  0.00  0.00    +0.000 OA
ATOM     24  H   UNL     1       2.712   7.723  21.601  0.00  0.00    +0.000 HD
BRANCH  21  25
ATOM     25  C   UNL     1       0.783   8.610  21.452  0.00  0.00    +0.000 C 
BRANCH  25  26
ATOM     26  C   UNL     1       0.959   9.849  20.527  0.00  0.00    +0.000 C 
BRANCH  26  27
ATOM     27  O   UNL     1       1.058  11.073  21.259  0.00  0.00    +0.000 OA
BRANCH  27  29
ATOM     28  C   UNL     1      -0.813  11.689  22.594  0.00  0.00    +0.000 C 
ATOM     29  C   UNL     1      -0.121  11.866  21.255  0.00  0.00    +0.000 C 
ENDBRANCH  27  29
ENDBRANCH  26  27
BRANCH  26  30
ATOM     30  O   UNL     1      -0.159   9.920  19.622  0.00  0.00    +0.000 OA
BRANCH  30  31
ATOM     31  C   UNL     1       0.260   9.946  18.253  0.00  0.00    +0.000 C 
ATOM     32  C   UNL     1       1.704   9.487  18.149  0.00  0.00    +0.000 C 
ENDBRANCH  30  31
ENDBRANCH  26  30
ENDBRANCH  25  26
ENDBRANCH  21  25
ENDBRANCH  20  22
ENDBRANCH   1  20
TORSDOF 10
ENDMDL
MODEL 7
REMARK VINA RESULT:      -6.6      0.960      1.911
REMARK  Name = 
REMARK  12 active torsions:
REMARK  status: ('A' for Active; 'I' for Inactive)
REMARK    1  A    between atoms: C_1  and  C_2
REMARK    2  A    between atoms: C_2  and  O_3
REMARK    3  A    between atoms: O_3  and  C_4
REMARK    4  A    between atoms: C_4  and  C_5
REMARK    5  A    between atoms: C_4  and  O_29
REMARK    6  A    between atoms: C_5  and  N_6
REMARK    7  A    between atoms: C_7  and  C_9
REMARK    8  A    between atoms: C_9  and  N_10
REMARK    9  A    between atoms: C_18  and  S_19
REMARK   10  A    between atoms: S_19  and  N_22
REMARK   11  A    between atoms: O_29  and  C_30
REMARK   12  A    between atoms: C_30  and  C_31
REMARK                            x       y       z     vdW  Elec       q    Type
REMARK                         _______ _______ _______ _____ _____    ______ ____
ROOT
ATOM      1  N   UNL     1       2.344   5.839  19.342  0.00  0.00    +0.000 N 
ATOM      2  C   UNL     1       1.372   5.358  20.212  0.00  0.00    +0.000 C 
ATOM      3  O   UNL     1       0.871   6.038  21.106  0.00  0.00    +0.000 OA
ATOM      4  C   UNL     1       0.928   3.930  19.941  0.00  0.00    +0.000 C 
ATOM      5  O   UNL     1       1.932   3.021  19.522  0.00  0.00    +0.000 OA
ATOM      6  C   UNL     1       2.810   3.560  18.620  0.00  0.00    +0.000 A 
ATOM      7  C   UNL     1       3.568   2.636  17.897  0.00  0.00    +0.000 A 
ATOM      8  C   UNL     1       4.539   3.073  16.996  0.00  0.00    +0.000 A 
ATOM      9  C   UNL     1       4.726   4.441  16.798  0.00  0.00    +0.000 A 
ATOM     10  C   UNL     1       3.916   5.372  17.468  0.00  0.00    +0.000 A 
ATOM     11  C   UNL     1       3.010   4.940  18.455  0.00  0.00    +0.000 A 
ENDROOT
BRANCH   9  12
ATOM     12  S   UNL     1       5.927   4.975  15.580  0.00  0.00    +0.000 S 
ATOM     13  O   UNL     1       6.265   3.821  14.783  0.00  0.00    +0.000 OA
ATOM     14  O   UNL     1       5.383   6.176  14.956  0.00  0.00    +0.000 OA
BRANCH  12  15
ATOM     15  N   UNL     1       7.306   5.423  16.446  0.00  0.00    +0.000 NA
ATOM     16  C   UNL     1       7.802   4.593  17.559  0.00  0.00    +0.000 C 
ATOM     17  C   UNL     1       7.445   5.405  18.788  0.00  0.00    +0.000 C 
ATOM     18  C   UNL     1       7.644   6.848  18.345  0.00  0.00    +0.000 C 
ATOM     19  C   UNL     1       7.517   6.839  16.822  0.00  0.00    +0.000 C 
ENDBRANCH  12  15
ENDBRANCH   9  12
BRANCH   1  20
ATOM     20  C   UNL     1       2.829   7.202  19.553  0.00  0.00    +0.000 C 
BRANCH  20  22
ATOM     21  N   UNL     1       1.273   9.133  19.392  0.00  0.00    +0.000 N 
ATOM     22  C   UNL     1       2.087   8.252  18.706  0.00  0.00    +0.000 C 
ATOM     23  O   UNL     1       2.157   8.240  17.476  0.00  0.00    +0.000 OA
ATOM     24  H   UNL     1       1.136   9.012  20.394  0.00  0.00    +0.000 HD
BRANCH  21  25
ATOM     25  C   UNL     1       0.337  10.022  18.700  0.00  0.00    +0.000 C 
BRANCH  25  26
ATOM     26  C   UNL     1      -0.178  11.212  19.559  0.00  0.00    +0.000 C 
BRANCH  26  27
ATOM     27  O   UNL     1      -1.326  11.845  18.991  0.00  0.00    +0.000 OA
BRANCH  27  29
ATOM     28  C   UNL     1      -3.492  11.497  18.066  0.00  0.00    +0.000 C 
ATOM     29  C   UNL     1      -2.041  11.051  18.053  0.00  0.00    +0.000 C 
ENDBRANCH  27  29
ENDBRANCH  26  27
BRANCH  26  30
ATOM     30  O   UNL     1       0.882  12.177  19.704  0.00  0.00    +0.000 OA
BRANCH  30  31
ATOM     31  C   UNL     1       0.893  13.126  18.632  0.00  0.00    +0.000 C 
ATOM     32  C   UNL     1       2.320  13.357  18.165  0.00  0.00    +0.000 C 
ENDBRANCH  30  31
ENDBRANCH  26  30
ENDBRANCH  25  26
ENDBRANCH  21  25
ENDBRANCH  20  22
ENDBRANCH   1  20
TORSDOF 10
ENDMDL
MODEL 8
REMARK VINA RESULT:      -6.5      1.108      1.457
REMARK  Name = 
REMARK  12 active torsions:
REMARK  status: ('A' for Active; 'I' for Inactive)
REMARK    1  A    between atoms: C_1  and  C_2
REMARK    2  A    between atoms: C_2  and  O_3
REMARK    3  A    between atoms: O_3  and  C_4
REMARK    4  A    between atoms: C_4  and  C_5
REMARK    5  A    between atoms: C_4  and  O_29
REMARK    6  A    between atoms: C_5  and  N_6
REMARK    7  A    between atoms: C_7  and  C_9
REMARK    8  A    between atoms: C_9  and  N_10
REMARK    9  A    between atoms: C_18  and  S_19
REMARK   10  A    between atoms: S_19  and  N_22
REMARK   11  A    between atoms: O_29  and  C_30
REMARK   12  A    between atoms: C_30  and  C_31
REMARK                            x       y       z     vdW  Elec       q    Type
REMARK                         _______ _______ _______ _____ _____    ______ ____
ROOT
ATOM      1  N   UNL     1       2.318   5.872  19.388  0.00  0.00    +0.000 N 
ATOM      2  C   UNL     1       1.379   5.313  20.248  0.00  0.00    +0.000 C 
ATOM      3  O   UNL     1       0.893   5.919  21.203  0.00  0.00    +0.000 OA
ATOM      4  C   UNL     1       0.949   3.901  19.888  0.00  0.00    +0.000 C 
ATOM      5  O   UNL     1       1.953   3.041  19.377  0.00  0.00    +0.000 OA
ATOM      6  C   UNL     1       2.797   3.658  18.492  0.00  0.00    +0.000 A 
ATOM      7  C   UNL     1       3.548   2.802  17.683  0.00  0.00    +0.000 A 
ATOM      8  C   UNL     1       4.486   3.319  16.790  0.00  0.00    +0.000 A 
ATOM      9  C   UNL     1       4.647   4.700  16.685  0.00  0.00    +0.000 A 
ATOM     10  C   UNL     1       3.842   5.567  17.443  0.00  0.00    +0.000 A 
ATOM     11  C   UNL     1       2.972   5.051  18.421  0.00  0.00    +0.000 A 
ENDROOT
BRANCH   9  12
ATOM     12  S   UNL     1       5.803   5.341  15.477  0.00  0.00    +0.000 S 
ATOM     13  O   UNL     1       6.050   4.286  14.525  0.00  0.00    +0.000 OA
ATOM     14  O   UNL     1       5.280   6.630  15.039  0.00  0.00    +0.000 OA
BRANCH  12  15
ATOM     15  N   UNL     1       7.244   5.627  16.311  0.00  0.00    +0.000 NA
ATOM     16  C   UNL     1       7.781   4.629  17.255  0.00  0.00    +0.000 C 
ATOM     17  C   UNL     1       7.521   5.255  18.610  0.00  0.00    +0.000 C 
ATOM     18  C   UNL     1       7.735   6.743  18.375  0.00  0.00    +0.000 C 
ATOM     19  C   UNL     1       7.518   6.966  16.878  0.00  0.00    +0.000 C 
ENDBRANCH  12  15
ENDBRANCH   9  12
BRANCH   1  20
ATOM     20  C   UNL     1       2.788   7.225  19.684  0.00  0.00    +0.000 C 
BRANCH  20  22
ATOM     21  N   UNL     1       1.076   8.962  20.156  0.00  0.00    +0.000 N 
ATOM     22  C   UNL     1       1.831   8.324  19.191  0.00  0.00    +0.000 C 
ATOM     23  O   UNL     1       1.693   8.554  17.988  0.00  0.00    +0.000 OA
ATOM     24  H   UNL     1       1.120   8.638  21.121  0.00  0.00    +0.000 HD
BRANCH  21  25
ATOM     25  C   UNL     1      -0.033   9.853  19.808  0.00  0.00    +0.000 C 
BRANCH  25  26
ATOM     26  C   UNL     1       0.158  11.328  20.264  0.00  0.00    +0.000 C 
BRANCH  26  27
ATOM     27  O   UNL     1      -1.001  12.132  20.030  0.00  0.00    +0.000 OA
BRANCH  27  29
ATOM     28  C   UNL     1      -0.834  12.339  22.395  0.00  0.00    +0.000 C 
ATOM     29  C   UNL     1      -1.756  12.441  21.194  0.00  0.00    +0.000 C 
ENDBRANCH  27  29
ENDBRANCH  26  27
BRANCH  26  30
ATOM     30  O   UNL     1       1.283  11.892  19.563  0.00  0.00    +0.000 OA
BRANCH  30  31
ATOM     31  C   UNL     1       0.886  12.919  18.649  0.00  0.00    +0.000 C 
ATOM     32  C   UNL     1       1.630  14.205  18.965  0.00  0.00    +0.000 C 
ENDBRANCH  30  31
ENDBRANCH  26  30
ENDBRANCH  25  26
ENDBRANCH  21  25
ENDBRANCH  20  22
ENDBRANCH   1  20
TORSDOF 10
ENDMDL
MODEL 9
REMARK VINA RESULT:      -6.5      1.116      1.202
REMARK  Name = 
REMARK  12 active torsions:
REMARK  status: ('A' for Active; 'I' for Inactive)
REMARK    1  A    between atoms: C_1  and  C_2
REMARK    2  A    between atoms: C_2  and  O_3
REMARK    3  A    between atoms: O_3  and  C_4
REMARK    4  A    between atoms: C_4  and  C_5
REMARK    5  A    between atoms: C_4  and  O_29
REMARK    6  A    between atoms: C_5  and  N_6
REMARK    7  A    between atoms: C_7  and  C_9
REMARK    8  A    between atoms: C_9  and  N_10
REMARK    9  A    between atoms: C_18  and  S_19
REMARK   10  A    between atoms: S_19  and  N_22
REMARK   11  A    between atoms: O_29  and  C_30
REMARK   12  A    between atoms: C_30  and  C_31
REMARK                            x       y       z     vdW  Elec       q    Type
REMARK                         _______ _______ _______ _____ _____    ______ ____
ROOT
ATOM      1  N   UNL     1       2.215   6.508  19.490  0.00  0.00    +0.000 N 
ATOM      2  C   UNL     1       1.324   6.071  20.464  0.00  0.00    +0.000 C 
ATOM      3  O   UNL     1       0.830   6.815  21.310  0.00  0.00    +0.000 OA
ATOM      4  C   UNL     1       0.957   4.599  20.374  0.00  0.00    +0.000 C 
ATOM      5  O   UNL     1       1.992   3.707  19.994  0.00  0.00    +0.000 OA
ATOM      6  C   UNL     1       2.784   4.193  18.988  0.00  0.00    +0.000 A 
ATOM      7  C   UNL     1       3.559   3.240  18.322  0.00  0.00    +0.000 A 
ATOM      8  C   UNL     1       4.451   3.631  17.323  0.00  0.00    +0.000 A 
ATOM      9  C   UNL     1       4.540   4.977  16.970  0.00  0.00    +0.000 A 
ATOM     10  C   UNL     1       3.709   5.928  17.585  0.00  0.00    +0.000 A 
ATOM     11  C   UNL     1       2.888   5.557  18.665  0.00  0.00    +0.000 A 
ENDROOT
BRANCH   9  12
ATOM     12  S   UNL     1       5.636   5.442  15.632  0.00  0.00    +0.000 S 
ATOM     13  O   UNL     1       5.760   4.295  14.766  0.00  0.00    +0.000 OA
ATOM     14  O   UNL     1       5.148   6.715  15.114  0.00  0.00    +0.000 OA
BRANCH  12  15
ATOM     15  N   UNL     1       7.146   5.718  16.337  0.00  0.00    +0.000 NA
ATOM     16  C   UNL     1       7.778   4.698  17.193  0.00  0.00    +0.000 C 
ATOM     17  C   UNL     1       7.641   5.277  18.587  0.00  0.00    +0.000 C 
ATOM     18  C   UNL     1       7.819   6.775  18.381  0.00  0.00    +0.000 C 
ATOM     19  C   UNL     1       7.461   7.041  16.919  0.00  0.00    +0.000 C 
ENDBRANCH  12  15
ENDBRANCH   9  12
BRANCH   1  20
ATOM     20  C   UNL     1       2.623   7.912  19.526  0.00  0.00    +0.000 C 
BRANCH  20  22
ATOM     21  N   UNL     1       0.695   9.463  19.314  0.00  0.00    +0.000 N 
ATOM     22  C   UNL     1       1.735   8.827  18.664  0.00  0.00    +0.000 C 
ATOM     23  O   UNL     1       1.903   8.912  17.447  0.00  0.00    +0.000 OA
ATOM     24  H   UNL     1       0.510   9.250  20.292  0.00  0.00    +0.000 HD
BRANCH  21  25
ATOM     25  C   UNL     1      -0.359  10.170  18.581  0.00  0.00    +0.000 C 
BRANCH  25  26
ATOM     26  C   UNL     1      -0.321  11.718  18.732  0.00  0.00    +0.000 C 
BRANCH  26  27
ATOM     27  O   UNL     1      -0.395  12.140  20.096  0.00  0.00    +0.000 OA
BRANCH  27  29
ATOM     28  C   UNL     1      -0.964  14.281  20.966  0.00  0.00    +0.000 C 
ATOM     29  C   UNL     1      -1.501  12.979  20.400  0.00  0.00    +0.000 C 
ENDBRANCH  27  29
ENDBRANCH  26  27
BRANCH  26  30
ATOM     30  O   UNL     1      -1.419  12.287  17.993  0.00  0.00    +0.000 OA
BRANCH  30  31
ATOM     31  C   UNL     1      -2.186  11.285  17.316  0.00  0.00    +0.000 C 
ATOM     32  C   UNL     1      -3.661  11.465  17.633  0.00  0.00    +0.000 C 
ENDBRANCH  30  31
ENDBRANCH  26  30
ENDBRANCH  25  26
ENDBRANCH  21  25
ENDBRANCH  20  22
ENDBRANCH   1  20
TORSDOF 10
ENDMDL
