MODEL 1
REMARK VINA RESULT:      -6.7      0.000      0.000
REMARK  Name = 
REMARK  2 active torsions:
REMARK  status: ('A' for Active; 'I' for Inactive)
REMARK    1  A    between atoms: N_2  and  C_4
REMARK    2  A    between atoms: C_7  and  C_8
REMARK                            x       y       z     vdW  Elec       q    Type
REMARK                         _______ _______ _______ _____ _____    ______ ____
ROOT
ATOM      1  C   UNL     1       2.803   3.544  20.121  0.00  0.00    +0.000 A 
ATOM      2  C   UNL     1       3.581   2.506  19.612  0.00  0.00    +0.000 A 
ATOM      3  C   UNL     1       4.414   2.771  18.534  0.00  0.00    +0.000 A 
ATOM      4  C   UNL     1       4.487   4.064  17.976  0.00  0.00    +0.000 A 
ATOM      5  C   UNL     1       3.705   5.124  18.507  0.00  0.00    +0.000 A 
ATOM      6  N   UNL     1       3.777   6.372  17.987  0.00  0.00    +0.000 NA
ATOM      7  C   UNL     1       3.028   7.373  18.491  0.00  0.00    +0.000 A 
ATOM      8  C   UNL     1       2.172   7.211  19.551  0.00  0.00    +0.000 A 
ATOM      9  C   UNL     1       2.083   5.946  20.112  0.00  0.00    +0.000 A 
ATOM     10  C   UNL     1       2.843   4.862  19.602  0.00  0.00    +0.000 A 
ENDROOT
BRANCH   4  11
ATOM     11  C   UNL     1       5.389   4.283  16.824  0.00  0.00    +0.000 A 
ATOM     12  C   UNL     1       6.758   4.718  16.851  0.00  0.00    +0.000 A 
ATOM     13  C   UNL     1       7.330   4.791  15.600  0.00  0.00    +0.000 A 
ATOM     14  S   UNL     1       6.223   4.383  14.370  0.00  0.00    +0.000 S 
ATOM     15  C   UNL     1       4.987   4.072  15.515  0.00  0.00    +0.000 A 
ENDBRANCH   4  11
BRANCH   1  17
ATOM     16  O   UNL     1       2.411   3.237  22.363  0.00  0.00    +0.000 OA
ATOM     17  N   UNL     1       1.921   3.210  21.227  0.00  0.00    +0.000 N 
ATOM     18  O   UNL     1       0.756   2.892  20.950  0.00  0.00    +0.000 OA
ENDBRANCH   1  17
TORSDOF 2
ENDMDL
MODEL 2
REMARK VINA RESULT:      -6.7      4.068      5.848
REMARK  Name = 
REMARK  2 active torsions:
REMARK  status: ('A' for Active; 'I' for Inactive)
REMARK    1  A    between atoms: N_2  and  C_4
REMARK    2  A    between atoms: C_7  and  C_8
REMARK                            x       y       z     vdW  Elec       q    Type
REMARK                         _______ _______ _______ _____ _____    ______ ____
ROOT
ATOM      1  C   UNL     1       5.858   4.464  16.048  0.00  0.00    +0.000 A 
ATOM      2  C   UNL     1       4.582   3.930  15.884  0.00  0.00    +0.000 A 
ATOM      3  C   UNL     1       3.784   3.764  17.008  0.00  0.00    +0.000 A 
ATOM      4  C   UNL     1       4.246   4.143  18.286  0.00  0.00    +0.000 A 
ATOM      5  C   UNL     1       5.542   4.702  18.447  0.00  0.00    +0.000 A 
ATOM      6  N   UNL     1       5.990   5.081  19.668  0.00  0.00    +0.000 NA
ATOM      7  C   UNL     1       7.223   5.605  19.817  0.00  0.00    +0.000 A 
ATOM      8  C   UNL     1       8.087   5.804  18.769  0.00  0.00    +0.000 A 
ATOM      9  C   UNL     1       7.652   5.436  17.505  0.00  0.00    +0.000 A 
ATOM     10  C   UNL     1       6.368   4.866  17.307  0.00  0.00    +0.000 A 
ENDROOT
BRANCH   4  11
ATOM     11  C   UNL     1       3.353   3.935  19.447  0.00  0.00    +0.000 A 
ATOM     12  C   UNL     1       2.415   4.866  20.010  0.00  0.00    +0.000 A 
ATOM     13  C   UNL     1       1.708   4.349  21.074  0.00  0.00    +0.000 A 
ATOM     14  S   UNL     1       2.189   2.756  21.442  0.00  0.00    +0.000 S 
ATOM     15  C   UNL     1       3.318   2.744  20.154  0.00  0.00    +0.000 A 
ENDBRANCH   4  11
BRANCH   1  17
ATOM     16  O   UNL     1       6.508   3.724  13.974  0.00  0.00    +0.000 OA
ATOM     17  N   UNL     1       6.667   4.586  14.847  0.00  0.00    +0.000 N 
ATOM     18  O   UNL     1       7.476   5.523  14.799  0.00  0.00    +0.000 OA
ENDBRANCH   1  17
TORSDOF 2
ENDMDL
MODEL 3
REMARK VINA RESULT:      -6.6      2.870      4.750
REMARK  Name = 
REMARK  2 active torsions:
REMARK  status: ('A' for Active; 'I' for Inactive)
REMARK    1  A    between atoms: N_2  and  C_4
REMARK    2  A    between atoms: C_7  and  C_8
REMARK                            x       y       z     vdW  Elec       q    Type
REMARK                         _______ _______ _______ _____ _____    ______ ____
ROOT
ATOM      1  C   UNL     1       3.614   3.665  19.184  0.00  0.00    +0.000 A 
ATOM      2  C   UNL     1       2.619   4.067  20.073  0.00  0.00    +0.000 A 
ATOM      3  C   UNL     1       2.145   5.369  19.994  0.00  0.00    +0.000 A 
ATOM      4  C   UNL     1       2.647   6.263  19.025  0.00  0.00    +0.000 A 
ATOM      5  C   UNL     1       3.650   5.847  18.110  0.00  0.00    +0.000 A 
ATOM      6  N   UNL     1       4.128   6.693  17.167  0.00  0.00    +0.000 NA
ATOM      7  C   UNL     1       5.085   6.295  16.305  0.00  0.00    +0.000 A 
ATOM      8  C   UNL     1       5.619   5.031  16.306  0.00  0.00    +0.000 A 
ATOM      9  C   UNL     1       5.141   4.137  17.253  0.00  0.00    +0.000 A 
ATOM     10  C   UNL     1       4.147   4.521  18.189  0.00  0.00    +0.000 A 
ENDROOT
BRANCH   4  11
ATOM     11  C   UNL     1       2.109   7.641  18.994  0.00  0.00    +0.000 A 
ATOM     12  C   UNL     1       2.018   8.523  17.863  0.00  0.00    +0.000 A 
ATOM     13  C   UNL     1       1.433   9.733  18.163  0.00  0.00    +0.000 A 
ATOM     14  S   UNL     1       1.024   9.850  19.814  0.00  0.00    +0.000 S 
ATOM     15  C   UNL     1       1.596   8.264  20.120  0.00  0.00    +0.000 A 
ENDBRANCH   4  11
BRANCH   1  17
ATOM     16  O   UNL     1       3.582   1.444  18.606  0.00  0.00    +0.000 OA
ATOM     17  N   UNL     1       4.100   2.303  19.329  0.00  0.00    +0.000 N 
ATOM     18  O   UNL     1       4.972   2.099  20.185  0.00  0.00    +0.000 OA
ENDBRANCH   1  17
TORSDOF 2
ENDMDL
MODEL 4
REMARK VINA RESULT:      -6.6      0.538      1.214
REMARK  Name = 
REMARK  2 active torsions:
REMARK  status: ('A' for Active; 'I' for Inactive)
REMARK    1  A    between atoms: N_2  and  C_4
REMARK    2  A    between atoms: C_7  and  C_8
REMARK                            x       y       z     vdW  Elec       q    Type
REMARK                         _______ _______ _______ _____ _____    ______ ____
ROOT
ATOM      1  C   UNL     1       2.726   3.482  20.156  0.00  0.00    +0.000 A 
ATOM      2  C   UNL     1       3.478   2.456  19.587  0.00  0.00    +0.000 A 
ATOM      3  C   UNL     1       4.270   2.748  18.485  0.00  0.00    +0.000 A 
ATOM      4  C   UNL     1       4.328   4.057  17.962  0.00  0.00    +0.000 A 
ATOM      5  C   UNL     1       3.572   5.104  18.553  0.00  0.00    +0.000 A 
ATOM      6  N   UNL     1       3.631   6.366  18.067  0.00  0.00    +0.000 NA
ATOM      7  C   UNL     1       2.907   7.355  18.628  0.00  0.00    +0.000 A 
ATOM      8  C   UNL     1       2.092   7.167  19.715  0.00  0.00    +0.000 A 
ATOM      9  C   UNL     1       2.019   5.886  20.243  0.00  0.00    +0.000 A 
ATOM     10  C   UNL     1       2.752   4.814  19.673  0.00  0.00    +0.000 A 
ENDROOT
BRANCH   4  11
ATOM     11  C   UNL     1       5.184   4.305  16.782  0.00  0.00    +0.000 A 
ATOM     12  C   UNL     1       4.803   4.269  15.397  0.00  0.00    +0.000 A 
ATOM     13  C   UNL     1       5.836   4.582  14.540  0.00  0.00    +0.000 A 
ATOM     14  S   UNL     1       7.290   4.879  15.379  0.00  0.00    +0.000 S 
ATOM     15  C   UNL     1       6.528   4.626  16.892  0.00  0.00    +0.000 A 
ENDBRANCH   4  11
BRANCH   1  17
ATOM     16  O   UNL     1       0.707   2.838  21.040  0.00  0.00    +0.000 OA
ATOM     17  N   UNL     1       1.886   3.120  21.286  0.00  0.00    +0.000 N 
ATOM     18  O   UNL     1       2.403   3.150  22.411  0.00  0.00    +0.000 OA
ENDBRANCH   1  17
TORSDOF 2
ENDMDL
MODEL 5
REMARK VINA RESULT:      -6.6      3.762      5.691
REMARK  Name = 
REMARK  2 active torsions:
REMARK  status: ('A' for Active; 'I' for Inactive)
REMARK    1  A    between atoms: N_2  and  C_4
REMARK    2  A    between atoms: C_7  and  C_8
REMARK                            x       y       z     vdW  Elec       q    Type
REMARK                         _______ _______ _______ _____ _____    ______ ____
ROOT
ATOM      1  C   UNL     1       5.369   5.124  16.494  0.00  0.00    +0.000 A 
ATOM      2  C   UNL     1       5.596   6.499  16.505  0.00  0.00    +0.000 A 
ATOM      3  C   UNL     1       4.670   7.319  17.134  0.00  0.00    +0.000 A 
ATOM      4  C   UNL     1       3.531   6.774  17.763  0.00  0.00    +0.000 A 
ATOM      5  C   UNL     1       3.309   5.371  17.764  0.00  0.00    +0.000 A 
ATOM      6  N   UNL     1       2.226   4.837  18.376  0.00  0.00    +0.000 NA
ATOM      7  C   UNL     1       2.017   3.505  18.369  0.00  0.00    +0.000 A 
ATOM      8  C   UNL     1       2.872   2.613  17.771  0.00  0.00    +0.000 A 
ATOM      9  C   UNL     1       3.996   3.129  17.145  0.00  0.00    +0.000 A 
ATOM     10  C   UNL     1       4.245   4.526  17.116  0.00  0.00    +0.000 A 
ENDROOT
BRANCH   4  11
ATOM     11  C   UNL     1       2.575   7.699  18.410  0.00  0.00    +0.000 A 
ATOM     12  C   UNL     1       2.092   7.658  19.763  0.00  0.00    +0.000 A 
ATOM     13  C   UNL     1       1.231   8.689  20.065  0.00  0.00    +0.000 A 
ATOM     14  S   UNL     1       0.952   9.699  18.720  0.00  0.00    +0.000 S 
ATOM     15  C   UNL     1       2.014   8.775  17.743  0.00  0.00    +0.000 A 
ENDBRANCH   4  11
BRANCH   1  17
ATOM     16  O   UNL     1       7.475   4.230  16.302  0.00  0.00    +0.000 OA
ATOM     17  N   UNL     1       6.349   4.311  15.794  0.00  0.00    +0.000 N 
ATOM     18  O   UNL     1       5.998   3.788  14.728  0.00  0.00    +0.000 OA
ENDBRANCH   1  17
TORSDOF 2
ENDMDL
MODEL 6
REMARK VINA RESULT:      -6.3      0.917      1.227
REMARK  Name = 
REMARK  2 active torsions:
REMARK  status: ('A' for Active; 'I' for Inactive)
REMARK    1  A    between atoms: N_2  and  C_4
REMARK    2  A    between atoms: C_7  and  C_8
REMARK                            x       y       z     vdW  Elec       q    Type
REMARK                         _______ _______ _______ _____ _____    ______ ____
ROOT
ATOM      1  C   UNL     1       2.254   3.097  19.022  0.00  0.00    +0.000 A 
ATOM      2  C   UNL     1       2.944   2.117  18.314  0.00  0.00    +0.000 A 
ATOM      3  C   UNL     1       3.964   2.511  17.459  0.00  0.00    +0.000 A 
ATOM      4  C   UNL     1       4.307   3.873  17.322  0.00  0.00    +0.000 A 
ATOM      5  C   UNL     1       3.611   4.869  18.057  0.00  0.00    +0.000 A 
ATOM      6  N   UNL     1       3.942   6.177  17.942  0.00  0.00    +0.000 NA
ATOM      7  C   UNL     1       3.274   7.120  18.637  0.00  0.00    +0.000 A 
ATOM      8  C   UNL     1       2.250   6.831  19.503  0.00  0.00    +0.000 A 
ATOM      9  C   UNL     1       1.896   5.499  19.651  0.00  0.00    +0.000 A 
ATOM     10  C   UNL     1       2.562   4.477  18.925  0.00  0.00    +0.000 A 
ENDROOT
BRANCH   4  11
ATOM     11  C   UNL     1       5.398   4.233  16.390  0.00  0.00    +0.000 A 
ATOM     12  C   UNL     1       6.747   4.605  16.718  0.00  0.00    +0.000 A 
ATOM     13  C   UNL     1       7.529   4.848  15.611  0.00  0.00    +0.000 A 
ATOM     14  S   UNL     1       6.649   4.679  14.161  0.00  0.00    +0.000 S 
ATOM     15  C   UNL     1       5.229   4.243  15.015  0.00  0.00    +0.000 A 
ENDBRANCH   4  11
BRANCH   1  17
ATOM     16  O   UNL     1       0.071   2.461  19.343  0.00  0.00    +0.000 OA
ATOM     17  N   UNL     1       1.173   2.638  19.878  0.00  0.00    +0.000 N 
ATOM     18  O   UNL     1       1.424   2.487  21.081  0.00  0.00    +0.000 OA
ENDBRANCH   1  17
TORSDOF 2
ENDMDL
MODEL 7
REMARK VINA RESULT:      -6.3      2.688      4.665
REMARK  Name = 
REMARK  2 active torsions:
REMARK  status: ('A' for Active; 'I' for Inactive)
REMARK    1  A    between atoms: N_2  and  C_4
REMARK    2  A    between atoms: C_7  and  C_8
REMARK                            x       y       z     vdW  Elec       q    Type
REMARK                         _______ _______ _______ _____ _____    ______ ____
ROOT
ATOM      1  C   UNL     1       3.568   3.623  19.287  0.00  0.00    +0.000 A 
ATOM      2  C   UNL     1       2.569   3.991  20.187  0.00  0.00    +0.000 A 
ATOM      3  C   UNL     1       2.091   5.293  20.149  0.00  0.00    +0.000 A 
ATOM      4  C   UNL     1       2.591   6.221  19.212  0.00  0.00    +0.000 A 
ATOM      5  C   UNL     1       3.598   5.839  18.286  0.00  0.00    +0.000 A 
ATOM      6  N   UNL     1       4.075   6.718  17.373  0.00  0.00    +0.000 NA
ATOM      7  C   UNL     1       5.035   6.353  16.501  0.00  0.00    +0.000 A 
ATOM      8  C   UNL     1       5.575   5.092  16.461  0.00  0.00    +0.000 A 
ATOM      9  C   UNL     1       5.099   4.165  17.376  0.00  0.00    +0.000 A 
ATOM     10  C   UNL     1       4.100   4.514  18.322  0.00  0.00    +0.000 A 
ENDROOT
BRANCH   4  11
ATOM     11  C   UNL     1       2.047   7.596  19.225  0.00  0.00    +0.000 A 
ATOM     12  C   UNL     1       1.524   8.323  20.349  0.00  0.00    +0.000 A 
ATOM     13  C   UNL     1       1.125   9.603  20.032  0.00  0.00    +0.000 A 
ATOM     14  S   UNL     1       1.329   9.939  18.373  0.00  0.00    +0.000 S 
ATOM     15  C   UNL     1       1.987   8.384  18.086  0.00  0.00    +0.000 A 
ENDBRANCH   4  11
BRANCH   1  17
ATOM     16  O   UNL     1       4.960   2.048  20.211  0.00  0.00    +0.000 OA
ATOM     17  N   UNL     1       4.060   2.259  19.388  0.00  0.00    +0.000 N 
ATOM     18  O   UNL     1       3.567   1.419  18.624  0.00  0.00    +0.000 OA
ENDBRANCH   1  17
TORSDOF 2
ENDMDL
MODEL 8
REMARK VINA RESULT:      -6.2      3.600      5.618
REMARK  Name = 
REMARK  2 active torsions:
REMARK  status: ('A' for Active; 'I' for Inactive)
REMARK    1  A    between atoms: N_2  and  C_4
REMARK    2  A    between atoms: C_7  and  C_8
REMARK                            x       y       z     vdW  Elec       q    Type
REMARK                         _______ _______ _______ _____ _____    ______ ____
ROOT
ATOM      1  C   UNL     1       5.401   5.201  17.023  0.00  0.00    +0.000 A 
ATOM      2  C   UNL     1       5.295   6.484  16.491  0.00  0.00    +0.000 A 
ATOM      3  C   UNL     1       4.327   7.337  17.004  0.00  0.00    +0.000 A 
ATOM      4  C   UNL     1       3.479   6.921  18.053  0.00  0.00    +0.000 A 
ATOM      5  C   UNL     1       3.600   5.617  18.604  0.00  0.00    +0.000 A 
ATOM      6  N   UNL     1       2.800   5.214  19.619  0.00  0.00    +0.000 NA
ATOM      7  C   UNL     1       2.915   3.974  20.135  0.00  0.00    +0.000 A 
ATOM      8  C   UNL     1       3.836   3.058  19.694  0.00  0.00    +0.000 A 
ATOM      9  C   UNL     1       4.677   3.446  18.662  0.00  0.00    +0.000 A 
ATOM     10  C   UNL     1       4.579   4.736  18.080  0.00  0.00    +0.000 A 
ENDROOT
BRANCH   4  11
ATOM     11  C   UNL     1       2.462   7.871  18.553  0.00  0.00    +0.000 A 
ATOM     12  C   UNL     1       1.933   7.970  19.885  0.00  0.00    +0.000 A 
ATOM     13  C   UNL     1       1.018   8.989  20.033  0.00  0.00    +0.000 A 
ATOM     14  S   UNL     1       0.745   9.815  18.567  0.00  0.00    +0.000 S 
ATOM     15  C   UNL     1       1.880   8.832  17.742  0.00  0.00    +0.000 A 
ENDBRANCH   4  11
BRANCH   1  17
ATOM     16  O   UNL     1       6.018   3.531  15.574  0.00  0.00    +0.000 OA
ATOM     17  N   UNL     1       6.406   4.335  16.430  0.00  0.00    +0.000 N 
ATOM     18  O   UNL     1       7.568   4.443  16.847  0.00  0.00    +0.000 OA
ENDBRANCH   1  17
TORSDOF 2
ENDMDL
MODEL 9
REMARK VINA RESULT:      -6.1      3.866      5.387
REMARK  Name = 
REMARK  2 active torsions:
REMARK  status: ('A' for Active; 'I' for Inactive)
REMARK    1  A    between atoms: N_2  and  C_4
REMARK    2  A    between atoms: C_7  and  C_8
REMARK                            x       y       z     vdW  Elec       q    Type
REMARK                         _______ _______ _______ _____ _____    ______ ____
ROOT
ATOM      1  C   UNL     1       5.344   5.205  16.571  0.00  0.00    +0.000 A 
ATOM      2  C   UNL     1       5.366   3.837  16.835  0.00  0.00    +0.000 A 
ATOM      3  C   UNL     1       4.429   3.317  17.718  0.00  0.00    +0.000 A 
ATOM      4  C   UNL     1       3.464   4.151  18.322  0.00  0.00    +0.000 A 
ATOM      5  C   UNL     1       3.434   5.543  18.039  0.00  0.00    +0.000 A 
ATOM      6  N   UNL     1       2.504   6.348  18.604  0.00  0.00    +0.000 NA
ATOM      7  C   UNL     1       2.484   7.669  18.337  0.00  0.00    +0.000 A 
ATOM      8  C   UNL     1       3.369   8.278  17.482  0.00  0.00    +0.000 A 
ATOM      9  C   UNL     1       4.327   7.476  16.880  0.00  0.00    +0.000 A 
ATOM     10  C   UNL     1       4.393   6.084  17.146  0.00  0.00    +0.000 A 
ENDROOT
BRANCH   4  11
ATOM     11  C   UNL     1       2.496   3.541  19.260  0.00  0.00    +0.000 A 
ATOM     12  C   UNL     1       1.191   3.020  18.959  0.00  0.00    +0.000 A 
ATOM     13  C   UNL     1       0.552   2.487  20.057  0.00  0.00    +0.000 A 
ATOM     14  S   UNL     1       1.487   2.641  21.474  0.00  0.00    +0.000 S 
ATOM     15  C   UNL     1       2.764   3.389  20.611  0.00  0.00    +0.000 A 
ENDBRANCH   4  11
BRANCH   1  17
ATOM     16  O   UNL     1       6.140   5.605  14.455  0.00  0.00    +0.000 OA
ATOM     17  N   UNL     1       6.365   5.706  15.667  0.00  0.00    +0.000 N 
ATOM     18  O   UNL     1       7.397   6.167  16.174  0.00  0.00    +0.000 OA
ENDBRANCH   1  17
TORSDOF 2
ENDMDL
