MODEL 1
REMARK VINA RESULT:      -7.3      0.000      0.000
REMARK  Name = 
REMARK  8 active torsions:
REMARK  status: ('A' for Active; 'I' for Inactive)
REMARK    1  A    between atoms: C_1  and  C_2
REMARK    2  A    between atoms: N_13  and  C_14
REMARK    3  A    between atoms: N_13  and  C_15
REMARK    4  A    between atoms: C_21  and  C_22
REMARK    5  A    between atoms: C_22  and  C_23
REMARK    6  A    between atoms: C_22  and  C_24
REMARK    7  A    between atoms: C_22  and  S_25
REMARK    8  A    between atoms: S_25  and  C_26
REMARK                            x       y       z     vdW  Elec       q    Type
REMARK                         _______ _______ _______ _____ _____    ______ ____
ROOT
ATOM      1  C   UNL     1      -7.697  12.785  20.739  0.00  0.00    +0.000 C 
ATOM      2  C   UNL     1      -6.990  12.244  21.987  0.00  0.00    +0.000 C 
ATOM      3  C   UNL     1      -7.916  12.541  23.215  0.00  0.00    +0.000 C 
ATOM      4  O   UNL     1      -7.402  13.400  24.233  0.00  0.00    +0.000 OA
ATOM      5  C   UNL     1      -6.060  13.059  24.550  0.00  0.00    +0.000 C 
ATOM      6  C   UNL     1      -5.165  13.404  23.361  0.00  0.00    +0.000 C 
ATOM      7  C   UNL     1      -3.724  13.041  23.721  0.00  0.00    +0.000 C 
ATOM      8  O   UNL     1      -2.829  13.304  22.642  0.00  0.00    +0.000 OA
ATOM      9  C   UNL     1      -3.257  12.801  21.446  0.00  0.00    +0.000 A 
ATOM     10  C   UNL     1      -4.609  12.552  21.161  0.00  0.00    +0.000 A 
ATOM     11  N   UNL     1      -4.985  12.209  19.919  0.00  0.00    +0.000 NA
ATOM     12  C   UNL     1      -4.066  12.077  18.957  0.00  0.00    +0.000 A 
ATOM     13  N   UNL     1      -4.471  11.823  17.630  0.00  0.00    +0.000 N 
ATOM     14  C   UNL     1      -5.748  12.394  17.221  0.00  0.00    +0.000 C 
ATOM     15  N   UNL     1      -2.744  12.167  19.217  0.00  0.00    +0.000 NA
ATOM     16  C   UNL     1      -2.322  12.584  20.441  0.00  0.00    +0.000 A 
ATOM     17  N   UNL     1      -5.588  12.694  22.146  0.00  0.00    +0.000 N 
ENDROOT
BRANCH  13  18
ATOM     18  C   UNL     1      -3.799  11.019  16.754  0.00  0.00    +0.000 A 
ATOM     19  C   UNL     1      -3.236   9.766  16.868  0.00  0.00    +0.000 A 
ATOM     20  C   UNL     1      -2.602   9.537  15.632  0.00  0.00    +0.000 A 
ATOM     21  N   UNL     1      -2.758  10.551  14.779  0.00  0.00    +0.000 NA
ATOM     22  N   UNL     1      -3.504  11.425  15.479  0.00  0.00    +0.000 N 
ATOM     23  H   UNL     1      -3.774  12.302  15.051  0.00  0.00    +0.000 HD
ENDBRANCH  13  18
BRANCH  16  24
ATOM     24  C   UNL     1      -0.827  12.921  20.552  0.00  0.00    +0.000 C 
ATOM     25  C   UNL     1      -0.189  13.074  19.143  0.00  0.00    +0.000 C 
ATOM     26  C   UNL     1      -0.563  14.249  21.293  0.00  0.00    +0.000 C 
BRANCH  24  27
ATOM     27  S   UNL     1       0.077  11.582  21.438  0.00  0.00    +0.000 S 
ATOM     28  C   UNL     1      -0.340  10.049  20.645  0.00  0.00    +0.000 C 
ATOM     29  O   UNL     1       1.505  11.782  21.185  0.00  0.00    +0.000 OA
ATOM     30  O   UNL     1      -0.363  11.465  22.816  0.00  0.00    +0.000 OA
ENDBRANCH  24  27
ENDBRANCH  16  24
TORSDOF 3
ENDMDL
MODEL 2
REMARK VINA RESULT:      -6.6      2.370      5.671
REMARK  Name = 
REMARK  8 active torsions:
REMARK  status: ('A' for Active; 'I' for Inactive)
REMARK    1  A    between atoms: C_1  and  C_2
REMARK    2  A    between atoms: N_13  and  C_14
REMARK    3  A    between atoms: N_13  and  C_15
REMARK    4  A    between atoms: C_21  and  C_22
REMARK    5  A    between atoms: C_22  and  C_23
REMARK    6  A    between atoms: C_22  and  C_24
REMARK    7  A    between atoms: C_22  and  S_25
REMARK    8  A    between atoms: S_25  and  C_26
REMARK                            x       y       z     vdW  Elec       q    Type
REMARK                         _______ _______ _______ _____ _____    ______ ____
ROOT
ATOM      1  C   UNL     1      -1.711  10.242  18.046  0.00  0.00    +0.000 C 
ATOM      2  C   UNL     1      -0.771  11.059  18.939  0.00  0.00    +0.000 C 
ATOM      3  C   UNL     1       0.616  10.334  18.946  0.00  0.00    +0.000 C 
ATOM      4  O   UNL     1       1.096   9.844  20.199  0.00  0.00    +0.000 OA
ATOM      5  C   UNL     1       0.908  10.811  21.223  0.00  0.00    +0.000 C 
ATOM      6  C   UNL     1      -0.588  10.966  21.493  0.00  0.00    +0.000 C 
ATOM      7  C   UNL     1      -0.773  12.001  22.602  0.00  0.00    +0.000 C 
ATOM      8  O   UNL     1      -2.152  12.226  22.889  0.00  0.00    +0.000 OA
ATOM      9  C   UNL     1      -2.908  12.451  21.774  0.00  0.00    +0.000 A 
ATOM     10  C   UNL     1      -2.547  11.990  20.498  0.00  0.00    +0.000 A 
ATOM     11  N   UNL     1      -3.403  12.103  19.471  0.00  0.00    +0.000 NA
ATOM     12  C   UNL     1      -4.594  12.681  19.657  0.00  0.00    +0.000 A 
ATOM     13  N   UNL     1      -5.536  12.703  18.607  0.00  0.00    +0.000 N 
ATOM     14  C   UNL     1      -5.511  11.570  17.691  0.00  0.00    +0.000 C 
ATOM     15  N   UNL     1      -4.928  13.265  20.828  0.00  0.00    +0.000 NA
ATOM     16  C   UNL     1      -4.124  13.112  21.914  0.00  0.00    +0.000 A 
ATOM     17  N   UNL     1      -1.314  11.373  20.282  0.00  0.00    +0.000 N 
ENDROOT
BRANCH  13  18
ATOM     18  C   UNL     1      -6.387  13.738  18.350  0.00  0.00    +0.000 A 
ATOM     19  C   UNL     1      -7.603  13.820  17.704  0.00  0.00    +0.000 A 
ATOM     20  C   UNL     1      -7.917  15.192  17.687  0.00  0.00    +0.000 A 
ATOM     21  N   UNL     1      -6.988  15.938  18.289  0.00  0.00    +0.000 NA
ATOM     22  N   UNL     1      -6.085  15.029  18.698  0.00  0.00    +0.000 N 
ATOM     23  H   UNL     1      -5.261  15.338  19.197  0.00  0.00    +0.000 HD
ENDBRANCH  13  18
BRANCH  16  24
ATOM     24  C   UNL     1      -4.719  13.570  23.255  0.00  0.00    +0.000 C 
ATOM     25  C   UNL     1      -6.256  13.761  23.140  0.00  0.00    +0.000 C 
ATOM     26  C   UNL     1      -4.493  12.550  24.392  0.00  0.00    +0.000 C 
BRANCH  24  27
ATOM     27  S   UNL     1      -3.987  15.178  23.776  0.00  0.00    +0.000 S 
ATOM     28  C   UNL     1      -2.765  14.825  25.015  0.00  0.00    +0.000 C 
ATOM     29  O   UNL     1      -3.246  15.708  22.630  0.00  0.00    +0.000 OA
ATOM     30  O   UNL     1      -4.975  16.033  24.406  0.00  0.00    +0.000 OA
ENDBRANCH  24  27
ENDBRANCH  16  24
TORSDOF 3
ENDMDL
MODEL 3
REMARK VINA RESULT:      -6.5      0.955      1.040
REMARK  Name = 
REMARK  8 active torsions:
REMARK  status: ('A' for Active; 'I' for Inactive)
REMARK    1  A    between atoms: C_1  and  C_2
REMARK    2  A    between atoms: N_13  and  C_14
REMARK    3  A    between atoms: N_13  and  C_15
REMARK    4  A    between atoms: C_21  and  C_22
REMARK    5  A    between atoms: C_22  and  C_23
REMARK    6  A    between atoms: C_22  and  C_24
REMARK    7  A    between atoms: C_22  and  S_25
REMARK    8  A    between atoms: S_25  and  C_26
REMARK                            x       y       z     vdW  Elec       q    Type
REMARK                         _______ _______ _______ _____ _____    ______ ____
ROOT
ATOM      1  C   UNL     1      -7.831  12.515  20.704  0.00  0.00    +0.000 C 
ATOM      2  C   UNL     1      -7.019  11.995  21.895  0.00  0.00    +0.000 C 
ATOM      3  C   UNL     1      -7.888  12.201  23.180  0.00  0.00    +0.000 C 
ATOM      4  O   UNL     1      -7.374  13.070  24.190  0.00  0.00    +0.000 OA
ATOM      5  C   UNL     1      -5.996  12.815  24.421  0.00  0.00    +0.000 C 
ATOM      6  C   UNL     1      -5.196  13.246  23.192  0.00  0.00    +0.000 C 
ATOM      7  C   UNL     1      -3.717  12.973  23.459  0.00  0.00    +0.000 C 
ATOM      8  O   UNL     1      -2.905  13.321  22.339  0.00  0.00    +0.000 OA
ATOM      9  C   UNL     1      -3.369  12.816  21.156  0.00  0.00    +0.000 A 
ATOM     10  C   UNL     1      -4.715  12.483  20.942  0.00  0.00    +0.000 A 
ATOM     11  N   UNL     1      -5.140  12.143  19.716  0.00  0.00    +0.000 NA
ATOM     12  C   UNL     1      -4.272  12.095  18.699  0.00  0.00    +0.000 A 
ATOM     13  N   UNL     1      -4.736  11.844  17.391  0.00  0.00    +0.000 N 
ATOM     14  C   UNL     1      -6.070  12.336  17.071  0.00  0.00    +0.000 C 
ATOM     15  N   UNL     1      -2.946  12.269  18.886  0.00  0.00    +0.000 NA
ATOM     16  C   UNL     1      -2.482  12.685  20.094  0.00  0.00    +0.000 A 
ATOM     17  N   UNL     1      -5.642  12.536  21.985  0.00  0.00    +0.000 N 
ENDROOT
BRANCH  13  18
ATOM     18  C   UNL     1      -4.066  11.107  16.458  0.00  0.00    +0.000 A 
ATOM     19  C   UNL     1      -4.026  11.144  15.080  0.00  0.00    +0.000 A 
ATOM     20  C   UNL     1      -3.219  10.051  14.709  0.00  0.00    +0.000 A 
ATOM     21  N   UNL     1      -2.759   9.372  15.762  0.00  0.00    +0.000 NA
ATOM     22  N   UNL     1      -3.270  10.046  16.806  0.00  0.00    +0.000 N 
ATOM     23  H   UNL     1      -3.067   9.734  17.747  0.00  0.00    +0.000 HD
ENDBRANCH  13  18
BRANCH  16  24
ATOM     24  C   UNL     1      -1.008  13.121  20.128  0.00  0.00    +0.000 C 
ATOM     25  C   UNL     1      -0.512  13.501  18.705  0.00  0.00    +0.000 C 
ATOM     26  C   UNL     1      -0.768  14.360  21.017  0.00  0.00    +0.000 C 
BRANCH  24  27
ATOM     27  S   UNL     1       0.059  11.755  20.753  0.00  0.00    +0.000 S 
ATOM     28  C   UNL     1       1.510  11.709  19.730  0.00  0.00    +0.000 C 
ATOM     29  O   UNL     1       0.525  12.143  22.084  0.00  0.00    +0.000 OA
ATOM     30  O   UNL     1      -0.588  10.464  20.605  0.00  0.00    +0.000 OA
ENDBRANCH  24  27
ENDBRANCH  16  24
TORSDOF 3
ENDMDL
MODEL 4
REMARK VINA RESULT:      -6.5      3.091      5.058
REMARK  Name = 
REMARK  8 active torsions:
REMARK  status: ('A' for Active; 'I' for Inactive)
REMARK    1  A    between atoms: C_1  and  C_2
REMARK    2  A    between atoms: N_13  and  C_14
REMARK    3  A    between atoms: N_13  and  C_15
REMARK    4  A    between atoms: C_21  and  C_22
REMARK    5  A    between atoms: C_22  and  C_23
REMARK    6  A    between atoms: C_22  and  C_24
REMARK    7  A    between atoms: C_22  and  S_25
REMARK    8  A    between atoms: S_25  and  C_26
REMARK                            x       y       z     vdW  Elec       q    Type
REMARK                         _______ _______ _______ _____ _____    ______ ____
ROOT
ATOM      1  C   UNL     1      -4.773  11.533  17.602  0.00  0.00    +0.000 C 
ATOM      2  C   UNL     1      -5.816  11.970  18.636  0.00  0.00    +0.000 C 
ATOM      3  C   UNL     1      -7.161  12.211  17.872  0.00  0.00    +0.000 C 
ATOM      4  O   UNL     1      -7.704  13.531  17.896  0.00  0.00    +0.000 OA
ATOM      5  C   UNL     1      -7.640  14.079  19.205  0.00  0.00    +0.000 C 
ATOM      6  C   UNL     1      -6.178  14.329  19.570  0.00  0.00    +0.000 C 
ATOM      7  C   UNL     1      -6.127  14.926  20.976  0.00  0.00    +0.000 C 
ATOM      8  O   UNL     1      -4.785  15.157  21.403  0.00  0.00    +0.000 OA
ATOM      9  C   UNL     1      -3.963  14.083  21.214  0.00  0.00    +0.000 A 
ATOM     10  C   UNL     1      -4.208  13.092  20.250  0.00  0.00    +0.000 A 
ATOM     11  N   UNL     1      -3.286  12.148  20.003  0.00  0.00    +0.000 NA
ATOM     12  C   UNL     1      -2.143  12.135  20.696  0.00  0.00    +0.000 A 
ATOM     13  N   UNL     1      -1.130  11.212  20.363  0.00  0.00    +0.000 N 
ATOM     14  C   UNL     1      -1.031  10.838  18.958  0.00  0.00    +0.000 C 
ATOM     15  N   UNL     1      -1.925  12.980  21.727  0.00  0.00    +0.000 NA
ATOM     16  C   UNL     1      -2.797  13.996  21.965  0.00  0.00    +0.000 A 
ATOM     17  N   UNL     1      -5.389  13.091  19.506  0.00  0.00    +0.000 N 
ENDROOT
BRANCH  13  18
ATOM     18  C   UNL     1      -0.316  10.593  21.268  0.00  0.00    +0.000 A 
ATOM     19  C   UNL     1       0.846   9.862  21.143  0.00  0.00    +0.000 A 
ATOM     20  C   UNL     1       1.136   9.411  22.445  0.00  0.00    +0.000 A 
ATOM     21  N   UNL     1       0.243   9.831  23.344  0.00  0.00    +0.000 NA
ATOM     22  N   UNL     1      -0.612  10.561  22.606  0.00  0.00    +0.000 N 
ATOM     23  H   UNL     1      -1.401  11.006  23.056  0.00  0.00    +0.000 HD
ENDBRANCH  13  18
BRANCH  16  24
ATOM     24  C   UNL     1      -2.324  15.058  22.971  0.00  0.00    +0.000 C 
ATOM     25  C   UNL     1      -0.817  14.873  23.302  0.00  0.00    +0.000 C 
ATOM     26  C   UNL     1      -2.477  16.499  22.438  0.00  0.00    +0.000 C 
BRANCH  24  27
ATOM     27  S   UNL     1      -3.270  14.928  24.547  0.00  0.00    +0.000 S 
ATOM     28  C   UNL     1      -2.144  15.300  25.869  0.00  0.00    +0.000 C 
ATOM     29  O   UNL     1      -4.256  16.010  24.551  0.00  0.00    +0.000 OA
ATOM     30  O   UNL     1      -3.739  13.574  24.775  0.00  0.00    +0.000 OA
ENDBRANCH  24  27
ENDBRANCH  16  24
TORSDOF 3
ENDMDL
MODEL 5
REMARK VINA RESULT:      -6.3      2.339      5.535
REMARK  Name = 
REMARK  8 active torsions:
REMARK  status: ('A' for Active; 'I' for Inactive)
REMARK    1  A    between atoms: C_1  and  C_2
REMARK    2  A    between atoms: N_13  and  C_14
REMARK    3  A    between atoms: N_13  and  C_15
REMARK    4  A    between atoms: C_21  and  C_22
REMARK    5  A    between atoms: C_22  and  C_23
REMARK    6  A    between atoms: C_22  and  C_24
REMARK    7  A    between atoms: C_22  and  S_25
REMARK    8  A    between atoms: S_25  and  C_26
REMARK                            x       y       z     vdW  Elec       q    Type
REMARK                         _______ _______ _______ _____ _____    ______ ____
ROOT
ATOM      1  C   UNL     1       2.007  12.950  20.620  0.00  0.00    +0.000 C 
ATOM      2  C   UNL     1       1.533  14.402  20.749  0.00  0.00    +0.000 C 
ATOM      3  C   UNL     1       2.643  15.189  21.523  0.00  0.00    +0.000 C 
ATOM      4  O   UNL     1       2.284  15.766  22.779  0.00  0.00    +0.000 OA
ATOM      5  C   UNL     1       1.023  16.414  22.695  0.00  0.00    +0.000 C 
ATOM      6  C   UNL     1      -0.067  15.361  22.506  0.00  0.00    +0.000 C 
ATOM      7  C   UNL     1      -1.417  16.072  22.426  0.00  0.00    +0.000 C 
ATOM      8  O   UNL     1      -2.487  15.152  22.215  0.00  0.00    +0.000 OA
ATOM      9  C   UNL     1      -2.251  14.270  21.199  0.00  0.00    +0.000 A 
ATOM     10  C   UNL     1      -0.960  13.919  20.774  0.00  0.00    +0.000 A 
ATOM     11  N   UNL     1      -0.787  12.932  19.882  0.00  0.00    +0.000 NA
ATOM     12  C   UNL     1      -1.851  12.299  19.374  0.00  0.00    +0.000 A 
ATOM     13  N   UNL     1      -1.667  11.191  18.520  0.00  0.00    +0.000 N 
ATOM     14  C   UNL     1      -0.491  10.368  18.771  0.00  0.00    +0.000 C 
ATOM     15  N   UNL     1      -3.113  12.695  19.645  0.00  0.00    +0.000 NA
ATOM     16  C   UNL     1      -3.335  13.641  20.597  0.00  0.00    +0.000 A 
ATOM     17  N   UNL     1       0.165  14.558  21.297  0.00  0.00    +0.000 N 
ENDROOT
BRANCH  13  18
ATOM     18  C   UNL     1      -2.454  10.903  17.443  0.00  0.00    +0.000 A 
ATOM     19  C   UNL     1      -2.446   9.881  16.517  0.00  0.00    +0.000 A 
ATOM     20  C   UNL     1      -3.459  10.214  15.597  0.00  0.00    +0.000 A 
ATOM     21  N   UNL     1      -4.084  11.350  15.911  0.00  0.00    +0.000 NA
ATOM     22  N   UNL     1      -3.469  11.734  17.044  0.00  0.00    +0.000 N 
ATOM     23  H   UNL     1      -3.762  12.586  17.504  0.00  0.00    +0.000 HD
ENDBRANCH  13  18
BRANCH  16  24
ATOM     24  C   UNL     1      -4.799  13.822  21.028  0.00  0.00    +0.000 C 
ATOM     25  C   UNL     1      -5.114  15.320  21.297  0.00  0.00    +0.000 C 
ATOM     26  C   UNL     1      -5.805  13.353  19.955  0.00  0.00    +0.000 C 
BRANCH  24  27
ATOM     27  S   UNL     1      -5.141  12.886  22.578  0.00  0.00    +0.000 S 
ATOM     28  C   UNL     1      -5.491  14.078  23.847  0.00  0.00    +0.000 C 
ATOM     29  O   UNL     1      -6.388  12.148  22.373  0.00  0.00    +0.000 OA
ATOM     30  O   UNL     1      -3.974  12.146  23.021  0.00  0.00    +0.000 OA
ENDBRANCH  24  27
ENDBRANCH  16  24
TORSDOF 3
ENDMDL
MODEL 6
REMARK VINA RESULT:      -6.3      2.609      5.219
REMARK  Name = 
REMARK  8 active torsions:
REMARK  status: ('A' for Active; 'I' for Inactive)
REMARK    1  A    between atoms: C_1  and  C_2
REMARK    2  A    between atoms: N_13  and  C_14
REMARK    3  A    between atoms: N_13  and  C_15
REMARK    4  A    between atoms: C_21  and  C_22
REMARK    5  A    between atoms: C_22  and  C_23
REMARK    6  A    between atoms: C_22  and  C_24
REMARK    7  A    between atoms: C_22  and  S_25
REMARK    8  A    between atoms: S_25  and  C_26
REMARK                            x       y       z     vdW  Elec       q    Type
REMARK                         _______ _______ _______ _____ _____    ______ ____
ROOT
ATOM      1  C   UNL     1       0.573  13.006  20.912  0.00  0.00    +0.000 C 
ATOM      2  C   UNL     1      -0.271  14.263  21.154  0.00  0.00    +0.000 C 
ATOM      3  C   UNL     1       0.460  15.114  22.246  0.00  0.00    +0.000 C 
ATOM      4  O   UNL     1      -0.234  15.343  23.473  0.00  0.00    +0.000 OA
ATOM      5  C   UNL     1      -1.587  15.697  23.229  0.00  0.00    +0.000 C 
ATOM      6  C   UNL     1      -2.327  14.484  22.667  0.00  0.00    +0.000 C 
ATOM      7  C   UNL     1      -3.782  14.877  22.418  0.00  0.00    +0.000 C 
ATOM      8  O   UNL     1      -4.532  13.800  21.860  0.00  0.00    +0.000 OA
ATOM      9  C   UNL     1      -3.916  13.206  20.795  0.00  0.00    +0.000 A 
ATOM     10  C   UNL     1      -2.528  13.240  20.596  0.00  0.00    +0.000 A 
ATOM     11  N   UNL     1      -1.965  12.508  19.622  0.00  0.00    +0.000 NA
ATOM     12  C   UNL     1      -2.734  11.763  18.820  0.00  0.00    +0.000 A 
ATOM     13  N   UNL     1      -2.137  10.911  17.869  0.00  0.00    +0.000 N 
ATOM     14  C   UNL     1      -0.847  10.338  18.231  0.00  0.00    +0.000 C 
ATOM     15  N   UNL     1      -4.083  11.809  18.883  0.00  0.00    +0.000 NA
ATOM     16  C   UNL     1      -4.691  12.479  19.897  0.00  0.00    +0.000 A 
ATOM     17  N   UNL     1      -1.703  14.001  21.427  0.00  0.00    +0.000 N 
ENDROOT
BRANCH  13  18
ATOM     18  C   UNL     1      -2.638  10.667  16.622  0.00  0.00    +0.000 A 
ATOM     19  C   UNL     1      -2.439   9.655  15.708  0.00  0.00    +0.000 A 
ATOM     20  C   UNL     1      -3.172  10.040  14.570  0.00  0.00    +0.000 A 
ATOM     21  N   UNL     1      -3.810  11.200  14.739  0.00  0.00    +0.000 NA
ATOM     22  N   UNL     1      -3.486  11.546  15.997  0.00  0.00    +0.000 N 
ATOM     23  H   UNL     1      -3.850  12.406  16.386  0.00  0.00    +0.000 HD
ENDBRANCH  13  18
BRANCH  16  24
ATOM     24  C   UNL     1      -6.203  12.242  20.041  0.00  0.00    +0.000 C 
ATOM     25  C   UNL     1      -6.659  11.041  19.167  0.00  0.00    +0.000 C 
ATOM     26  C   UNL     1      -6.624  11.910  21.489  0.00  0.00    +0.000 C 
BRANCH  24  27
ATOM     27  S   UNL     1      -7.148  13.727  19.498  0.00  0.00    +0.000 S 
ATOM     28  C   UNL     1      -5.966  14.927  18.934  0.00  0.00    +0.000 C 
ATOM     29  O   UNL     1      -7.916  13.342  18.313  0.00  0.00    +0.000 OA
ATOM     30  O   UNL     1      -7.859  14.340  20.604  0.00  0.00    +0.000 OA
ENDBRANCH  24  27
ENDBRANCH  16  24
TORSDOF 3
ENDMDL
MODEL 7
REMARK VINA RESULT:      -6.3      2.489      5.562
REMARK  Name = 
REMARK  8 active torsions:
REMARK  status: ('A' for Active; 'I' for Inactive)
REMARK    1  A    between atoms: C_1  and  C_2
REMARK    2  A    between atoms: N_13  and  C_14
REMARK    3  A    between atoms: N_13  and  C_15
REMARK    4  A    between atoms: C_21  and  C_22
REMARK    5  A    between atoms: C_22  and  C_23
REMARK    6  A    between atoms: C_22  and  C_24
REMARK    7  A    between atoms: C_22  and  S_25
REMARK    8  A    between atoms: S_25  and  C_26
REMARK                            x       y       z     vdW  Elec       q    Type
REMARK                         _______ _______ _______ _____ _____    ______ ____
ROOT
ATOM      1  C   UNL     1       1.864  13.073  20.730  0.00  0.00    +0.000 C 
ATOM      2  C   UNL     1       1.233  14.454  20.940  0.00  0.00    +0.000 C 
ATOM      3  C   UNL     1       2.236  15.302  21.792  0.00  0.00    +0.000 C 
ATOM      4  O   UNL     1       1.794  15.751  23.074  0.00  0.00    +0.000 OA
ATOM      5  C   UNL     1       0.472  16.265  22.999  0.00  0.00    +0.000 C 
ATOM      6  C   UNL     1      -0.494  15.115  22.715  0.00  0.00    +0.000 C 
ATOM      7  C   UNL     1      -1.911  15.681  22.647  0.00  0.00    +0.000 C 
ATOM      8  O   UNL     1      -2.871  14.668  22.350  0.00  0.00    +0.000 OA
ATOM      9  C   UNL     1      -2.522  13.887  21.285  0.00  0.00    +0.000 A 
ATOM     10  C   UNL     1      -1.194  13.706  20.871  0.00  0.00    +0.000 A 
ATOM     11  N   UNL     1      -0.898  12.805  19.921  0.00  0.00    +0.000 NA
ATOM     12  C   UNL     1      -1.877  12.097  19.347  0.00  0.00    +0.000 A 
ATOM     13  N   UNL     1      -1.559  11.076  18.428  0.00  0.00    +0.000 N 
ATOM     14  C   UNL     1      -0.305  10.368  18.654  0.00  0.00    +0.000 C 
ATOM     15  N   UNL     1      -3.180  12.338  19.611  0.00  0.00    +0.000 NA
ATOM     16  C   UNL     1      -3.520  13.188  20.616  0.00  0.00    +0.000 A 
ATOM     17  N   UNL     1      -0.154  14.425  21.462  0.00  0.00    +0.000 N 
ENDROOT
BRANCH  13  18
ATOM     18  C   UNL     1      -2.290  10.778  17.314  0.00  0.00    +0.000 A 
ATOM     19  C   UNL     1      -3.021   9.672  16.935  0.00  0.00    +0.000 A 
ATOM     20  C   UNL     1      -3.453   9.951  15.624  0.00  0.00    +0.000 A 
ATOM     21  N   UNL     1      -3.049  11.148  15.195  0.00  0.00    +0.000 NA
ATOM     22  N   UNL     1      -2.366  11.634  16.246  0.00  0.00    +0.000 N 
ATOM     23  H   UNL     1      -1.947  12.554  16.184  0.00  0.00    +0.000 HD
ENDBRANCH  13  18
BRANCH  16  24
ATOM     24  C   UNL     1      -5.003  13.181  21.021  0.00  0.00    +0.000 C 
ATOM     25  C   UNL     1      -5.749  11.986  20.366  0.00  0.00    +0.000 C 
ATOM     26  C   UNL     1      -5.210  13.039  22.544  0.00  0.00    +0.000 C 
BRANCH  24  27
ATOM     27  S   UNL     1      -5.833  14.733  20.474  0.00  0.00    +0.000 S 
ATOM     28  C   UNL     1      -6.679  14.371  18.955  0.00  0.00    +0.000 C 
ATOM     29  O   UNL     1      -6.882  15.031  21.450  0.00  0.00    +0.000 OA
ATOM     30  O   UNL     1      -4.868  15.773  20.168  0.00  0.00    +0.000 OA
ENDBRANCH  24  27
ENDBRANCH  16  24
TORSDOF 3
ENDMDL
MODEL 8
REMARK VINA RESULT:      -6.2      2.491      5.988
REMARK  Name = 
REMARK  8 active torsions:
REMARK  status: ('A' for Active; 'I' for Inactive)
REMARK    1  A    between atoms: C_1  and  C_2
REMARK    2  A    between atoms: N_13  and  C_14
REMARK    3  A    between atoms: N_13  and  C_15
REMARK    4  A    between atoms: C_21  and  C_22
REMARK    5  A    between atoms: C_22  and  C_23
REMARK    6  A    between atoms: C_22  and  C_24
REMARK    7  A    between atoms: C_22  and  S_25
REMARK    8  A    between atoms: S_25  and  C_26
REMARK                            x       y       z     vdW  Elec       q    Type
REMARK                         _______ _______ _______ _____ _____    ______ ____
ROOT
ATOM      1  C   UNL     1      -6.009  11.218  17.809  0.00  0.00    +0.000 C 
ATOM      2  C   UNL     1      -4.615  11.615  17.308  0.00  0.00    +0.000 C 
ATOM      3  C   UNL     1      -4.324  10.775  16.019  0.00  0.00    +0.000 C 
ATOM      4  O   UNL     1      -3.216   9.876  16.057  0.00  0.00    +0.000 OA
ATOM      5  C   UNL     1      -2.083  10.497  16.649  0.00  0.00    +0.000 C 
ATOM      6  C   UNL     1      -2.359  10.724  18.134  0.00  0.00    +0.000 C 
ATOM      7  C   UNL     1      -1.130  11.383  18.758  0.00  0.00    +0.000 C 
ATOM      8  O   UNL     1      -1.325  11.658  20.144  0.00  0.00    +0.000 OA
ATOM      9  C   UNL     1      -2.504  12.295  20.410  0.00  0.00    +0.000 A 
ATOM     10  C   UNL     1      -3.625  12.210  19.570  0.00  0.00    +0.000 A 
ATOM     11  N   UNL     1      -4.802  12.725  19.960  0.00  0.00    +0.000 NA
ATOM     12  C   UNL     1      -4.899  13.345  21.141  0.00  0.00    +0.000 A 
ATOM     13  N   UNL     1      -6.157  13.790  21.598  0.00  0.00    +0.000 N 
ATOM     14  C   UNL     1      -7.311  12.997  21.195  0.00  0.00    +0.000 C 
ATOM     15  N   UNL     1      -3.818  13.575  21.917  0.00  0.00    +0.000 NA
ATOM     16  C   UNL     1      -2.624  13.010  21.596  0.00  0.00    +0.000 A 
ATOM     17  N   UNL     1      -3.551  11.559  18.338  0.00  0.00    +0.000 N 
ENDROOT
BRANCH  13  18
ATOM     18  C   UNL     1      -6.364  14.941  22.303  0.00  0.00    +0.000 A 
ATOM     19  C   UNL     1      -7.077  16.092  22.040  0.00  0.00    +0.000 A 
ATOM     20  C   UNL     1      -6.807  16.945  23.126  0.00  0.00    +0.000 A 
ATOM     21  N   UNL     1      -6.000  16.386  24.030  0.00  0.00    +0.000 NA
ATOM     22  N   UNL     1      -5.765  15.166  23.515  0.00  0.00    +0.000 N 
ATOM     23  H   UNL     1      -5.168  14.521  24.018  0.00  0.00    +0.000 HD
ENDBRANCH  13  18
BRANCH  16  24
ATOM     24  C   UNL     1      -1.534  13.096  22.677  0.00  0.00    +0.000 C 
ATOM     25  C   UNL     1      -2.096  13.734  23.978  0.00  0.00    +0.000 C 
ATOM     26  C   UNL     1      -0.974  11.715  23.078  0.00  0.00    +0.000 C 
BRANCH  24  27
ATOM     27  S   UNL     1      -0.128  14.137  22.099  0.00  0.00    +0.000 S 
ATOM     28  C   UNL     1      -0.708  15.086  20.715  0.00  0.00    +0.000 C 
ATOM     29  O   UNL     1       0.153  15.111  23.156  0.00  0.00    +0.000 OA
ATOM     30  O   UNL     1       0.970  13.325  21.610  0.00  0.00    +0.000 OA
ENDBRANCH  24  27
ENDBRANCH  16  24
TORSDOF 3
ENDMDL
MODEL 9
REMARK VINA RESULT:      -6.2      2.580      5.840
REMARK  Name = 
REMARK  8 active torsions:
REMARK  status: ('A' for Active; 'I' for Inactive)
REMARK    1  A    between atoms: C_1  and  C_2
REMARK    2  A    between atoms: N_13  and  C_14
REMARK    3  A    between atoms: N_13  and  C_15
REMARK    4  A    between atoms: C_21  and  C_22
REMARK    5  A    between atoms: C_22  and  C_23
REMARK    6  A    between atoms: C_22  and  C_24
REMARK    7  A    between atoms: C_22  and  S_25
REMARK    8  A    between atoms: S_25  and  C_26
REMARK                            x       y       z     vdW  Elec       q    Type
REMARK                         _______ _______ _______ _____ _____    ______ ____
ROOT
ATOM      1  C   UNL     1      -2.254  10.782  18.062  0.00  0.00    +0.000 C 
ATOM      2  C   UNL     1      -1.173  11.379  18.970  0.00  0.00    +0.000 C 
ATOM      3  C   UNL     1       0.117  10.509  18.796  0.00  0.00    +0.000 C 
ATOM      4  O   UNL     1       0.608   9.824  19.949  0.00  0.00    +0.000 OA
ATOM      5  C   UNL     1       0.596  10.677  21.085  0.00  0.00    +0.000 C 
ATOM      6  C   UNL     1      -0.852  10.963  21.478  0.00  0.00    +0.000 C 
ATOM      7  C   UNL     1      -0.849  11.873  22.706  0.00  0.00    +0.000 C 
ATOM      8  O   UNL     1      -2.172  12.214  23.114  0.00  0.00    +0.000 OA
ATOM      9  C   UNL     1      -2.961  12.651  22.088  0.00  0.00    +0.000 A 
ATOM     10  C   UNL     1      -2.732  12.308  20.747  0.00  0.00    +0.000 A 
ATOM     11  N   UNL     1      -3.628  12.636  19.803  0.00  0.00    +0.000 NA
ATOM     12  C   UNL     1      -4.729  13.316  20.137  0.00  0.00    +0.000 A 
ATOM     13  N   UNL     1      -5.722  13.566  19.167  0.00  0.00    +0.000 N 
ATOM     14  C   UNL     1      -5.885  12.554  18.131  0.00  0.00    +0.000 C 
ATOM     15  N   UNL     1      -4.922  13.790  21.387  0.00  0.00    +0.000 NA
ATOM     16  C   UNL     1      -4.079  13.421  22.388  0.00  0.00    +0.000 A 
ATOM     17  N   UNL     1      -1.595  11.589  20.375  0.00  0.00    +0.000 N 
ENDROOT
BRANCH  13  18
ATOM     18  C   UNL     1      -6.459  14.712  19.088  0.00  0.00    +0.000 A 
ATOM     19  C   UNL     1      -7.808  14.956  18.943  0.00  0.00    +0.000 A 
ATOM     20  C   UNL     1      -7.917  16.355  18.828  0.00  0.00    +0.000 A 
ATOM     21  N   UNL     1      -6.735  16.970  18.911  0.00  0.00    +0.000 NA
ATOM     22  N   UNL     1      -5.874  15.952  19.089  0.00  0.00    +0.000 N 
ATOM     23  H   UNL     1      -4.886  16.148  19.186  0.00  0.00    +0.000 HD
ENDBRANCH  13  18
BRANCH  16  24
ATOM     24  C   UNL     1      -4.536  13.779  23.811  0.00  0.00    +0.000 C 
ATOM     25  C   UNL     1      -6.033  14.197  23.821  0.00  0.00    +0.000 C 
ATOM     26  C   UNL     1      -4.409  12.599  24.798  0.00  0.00    +0.000 C 
BRANCH  24  27
ATOM     27  S   UNL     1      -3.552  15.188  24.475  0.00  0.00    +0.000 S 
ATOM     28  C   UNL     1      -2.590  15.838  23.131  0.00  0.00    +0.000 C 
ATOM     29  O   UNL     1      -4.497  16.246  24.833  0.00  0.00    +0.000 OA
ATOM     30  O   UNL     1      -2.605  14.747  25.482  0.00  0.00    +0.000 OA
ENDBRANCH  24  27
ENDBRANCH  16  24
TORSDOF 3
ENDMDL
