MODEL 1
REMARK VINA RESULT:      -8.0      0.000      0.000
REMARK  Name = 
REMARK  6 active torsions:
REMARK  status: ('A' for Active; 'I' for Inactive)
REMARK    1  A    between atoms: C_1  and  C_2
REMARK    2  A    between atoms: C_2  and  C_3
REMARK    3  A    between atoms: C_6  and  C_7
REMARK    4  A    between atoms: C_7  and  C_8
REMARK    5  A    between atoms: C_8  and  C_9
REMARK    6  A    between atoms: C_14  and  C_15
REMARK                            x       y       z     vdW  Elec       q    Type
REMARK                         _______ _______ _______ _____ _____    ______ ____
ROOT
ATOM      1  C   UNL     1       6.045   5.157  17.666  0.00  0.00    +0.000 C 
ATOM      2  O   UNL     1       6.539   6.118  18.251  0.00  0.00    +0.000 OA
ATOM      3  N   UNL     1       4.766   4.720  17.928  0.00  0.00    +0.000 N 
ATOM      4  C   UNL     1       4.108   3.546  17.385  0.00  0.00    +0.000 C 
ATOM      5  C   UNL     1       2.631   3.874  17.505  0.00  0.00    +0.000 C 
ATOM      6  C   UNL     1       2.536   4.709  18.789  0.00  0.00    +0.000 C 
ATOM      7  C   UNL     1       3.905   5.410  18.878  0.00  0.00    +0.000 C 
ENDROOT
BRANCH   6   8
ATOM      8  C   UNL     1       2.187   3.853  19.967  0.00  0.00    +0.000 A 
ATOM      9  C   UNL     1       0.995   3.415  20.506  0.00  0.00    +0.000 A 
ATOM     10  C   UNL     1       1.363   2.656  21.632  0.00  0.00    +0.000 A 
ATOM     11  N   UNL     1       2.687   2.616  21.805  0.00  0.00    +0.000 NA
ATOM     12  N   UNL     1       3.163   3.341  20.784  0.00  0.00    +0.000 N 
ATOM     13  H   UNL     1       4.168   3.456  20.710  0.00  0.00    +0.000 HD
ENDBRANCH   6   8
BRANCH   1  14
ATOM     14  C   UNL     1       6.783   4.440  16.555  0.00  0.00    +0.000 C 
BRANCH  14  15
ATOM     15  C   UNL     1       7.097   5.364  15.388  0.00  0.00    +0.000 C 
BRANCH  15  19
ATOM     16  C   UNL     1       6.175   3.551  12.476  0.00  0.00    +0.000 A 
ATOM     17  N   UNL     1       7.197   4.249  11.964  0.00  0.00    +0.000 NA
ATOM     18  O   UNL     1       7.650   4.995  13.054  0.00  0.00    +0.000 OA
ATOM     19  C   UNL     1       6.845   4.666  14.106  0.00  0.00    +0.000 A 
ATOM     20  N   UNL     1       5.913   3.792  13.800  0.00  0.00    +0.000 NA
BRANCH  16  22
ATOM     21  C   UNL     1       4.056   3.152  11.234  0.00  0.00    +0.000 C 
ATOM     22  C   UNL     1       5.392   2.578  11.677  0.00  0.00    +0.000 C 
ENDBRANCH  16  22
ENDBRANCH  15  19
ENDBRANCH  14  15
ENDBRANCH   1  14
TORSDOF 5
ENDMDL
MODEL 2
REMARK VINA RESULT:      -7.9      1.091      1.116
REMARK  Name = 
REMARK  6 active torsions:
REMARK  status: ('A' for Active; 'I' for Inactive)
REMARK    1  A    between atoms: C_1  and  C_2
REMARK    2  A    between atoms: C_2  and  C_3
REMARK    3  A    between atoms: C_6  and  C_7
REMARK    4  A    between atoms: C_7  and  C_8
REMARK    5  A    between atoms: C_8  and  C_9
REMARK    6  A    between atoms: C_14  and  C_15
REMARK                            x       y       z     vdW  Elec       q    Type
REMARK                         _______ _______ _______ _____ _____    ______ ____
ROOT
ATOM      1  C   UNL     1       6.608   4.908  18.292  0.00  0.00    +0.000 C 
ATOM      2  O   UNL     1       7.326   5.286  19.215  0.00  0.00    +0.000 OA
ATOM      3  N   UNL     1       5.235   4.926  18.379  0.00  0.00    +0.000 N 
ATOM      4  C   UNL     1       4.285   4.416  17.409  0.00  0.00    +0.000 C 
ATOM      5  C   UNL     1       3.020   5.204  17.696  0.00  0.00    +0.000 C 
ATOM      6  C   UNL     1       3.051   5.423  19.215  0.00  0.00    +0.000 C 
ATOM      7  C   UNL     1       4.553   5.449  19.554  0.00  0.00    +0.000 C 
ENDROOT
BRANCH   6   8
ATOM      8  C   UNL     1       2.261   4.371  19.929  0.00  0.00    +0.000 A 
ATOM      9  C   UNL     1       2.230   3.926  21.235  0.00  0.00    +0.000 A 
ATOM     10  C   UNL     1       1.276   2.891  21.244  0.00  0.00    +0.000 A 
ATOM     11  N   UNL     1       0.741   2.685  20.037  0.00  0.00    +0.000 NA
ATOM     12  N   UNL     1       1.348   3.594  19.262  0.00  0.00    +0.000 N 
ATOM     13  H   UNL     1       1.097   3.624  18.279  0.00  0.00    +0.000 HD
ENDBRANCH   6   8
BRANCH   1  14
ATOM     14  C   UNL     1       7.190   4.473  16.962  0.00  0.00    +0.000 C 
BRANCH  14  15
ATOM     15  C   UNL     1       7.015   5.536  15.887  0.00  0.00    +0.000 C 
BRANCH  15  19
ATOM     16  C   UNL     1       6.453   3.835  12.820  0.00  0.00    +0.000 A 
ATOM     17  N   UNL     1       7.457   4.630  12.429  0.00  0.00    +0.000 NA
ATOM     18  O   UNL     1       7.770   5.341  13.589  0.00  0.00    +0.000 OA
ATOM     19  C   UNL     1       6.914   4.897  14.555  0.00  0.00    +0.000 A 
ATOM     20  N   UNL     1       6.074   3.981  14.130  0.00  0.00    +0.000 NA
BRANCH  16  22
ATOM     21  C   UNL     1       4.384   3.264  11.562  0.00  0.00    +0.000 C 
ATOM     22  C   UNL     1       5.807   2.858  11.911  0.00  0.00    +0.000 C 
ENDBRANCH  16  22
ENDBRANCH  15  19
ENDBRANCH  14  15
ENDBRANCH   1  14
TORSDOF 5
ENDMDL
MODEL 3
REMARK VINA RESULT:      -7.5      3.195      4.824
REMARK  Name = 
REMARK  6 active torsions:
REMARK  status: ('A' for Active; 'I' for Inactive)
REMARK    1  A    between atoms: C_1  and  C_2
REMARK    2  A    between atoms: C_2  and  C_3
REMARK    3  A    between atoms: C_6  and  C_7
REMARK    4  A    between atoms: C_7  and  C_8
REMARK    5  A    between atoms: C_8  and  C_9
REMARK    6  A    between atoms: C_14  and  C_15
REMARK                            x       y       z     vdW  Elec       q    Type
REMARK                         _______ _______ _______ _____ _____    ______ ____
ROOT
ATOM      1  C   UNL     1       4.083   6.493  17.132  0.00  0.00    +0.000 C 
ATOM      2  O   UNL     1       3.814   7.622  17.535  0.00  0.00    +0.000 OA
ATOM      3  N   UNL     1       3.389   5.382  17.553  0.00  0.00    +0.000 N 
ATOM      4  C   UNL     1       3.670   3.995  17.234  0.00  0.00    +0.000 C 
ATOM      5  C   UNL     1       2.332   3.304  17.425  0.00  0.00    +0.000 C 
ATOM      6  C   UNL     1       1.677   4.068  18.582  0.00  0.00    +0.000 C 
ATOM      7  C   UNL     1       2.257   5.490  18.463  0.00  0.00    +0.000 C 
ENDROOT
BRANCH   6   8
ATOM      8  C   UNL     1       1.933   3.391  19.893  0.00  0.00    +0.000 A 
ATOM      9  C   UNL     1       3.052   2.830  20.471  0.00  0.00    +0.000 A 
ATOM     10  C   UNL     1       2.611   2.338  21.714  0.00  0.00    +0.000 A 
ATOM     11  N   UNL     1       1.310   2.562  21.914  0.00  0.00    +0.000 NA
ATOM     12  N   UNL     1       0.923   3.203  20.803  0.00  0.00    +0.000 N 
ATOM     13  H   UNL     1      -0.050   3.478  20.726  0.00  0.00    +0.000 HD
ENDBRANCH   6   8
BRANCH   1  14
ATOM     14  C   UNL     1       5.144   6.260  16.076  0.00  0.00    +0.000 C 
BRANCH  14  15
ATOM     15  C   UNL     1       6.413   5.660  16.664  0.00  0.00    +0.000 C 
BRANCH  15  19
ATOM     16  C   UNL     1       8.168   8.438  18.015  0.00  0.00    +0.000 A 
ATOM     17  N   UNL     1       8.489   7.526  18.942  0.00  0.00    +0.000 NA
ATOM     18  O   UNL     1       7.851   6.371  18.485  0.00  0.00    +0.000 OA
ATOM     19  C   UNL     1       7.210   6.716  17.331  0.00  0.00    +0.000 A 
ATOM     20  N   UNL     1       7.362   7.979  17.005  0.00  0.00    +0.000 NA
BRANCH  16  22
ATOM     21  C   UNL     1       9.244  10.182  19.425  0.00  0.00    +0.000 C 
ATOM     22  C   UNL     1       8.658   9.836  18.066  0.00  0.00    +0.000 C 
ENDBRANCH  16  22
ENDBRANCH  15  19
ENDBRANCH  14  15
ENDBRANCH   1  14
TORSDOF 5
ENDMDL
MODEL 4
REMARK VINA RESULT:      -7.2      2.652      4.383
REMARK  Name = 
REMARK  6 active torsions:
REMARK  status: ('A' for Active; 'I' for Inactive)
REMARK    1  A    between atoms: C_1  and  C_2
REMARK    2  A    between atoms: C_2  and  C_3
REMARK    3  A    between atoms: C_6  and  C_7
REMARK    4  A    between atoms: C_7  and  C_8
REMARK    5  A    between atoms: C_8  and  C_9
REMARK    6  A    between atoms: C_14  and  C_15
REMARK                            x       y       z     vdW  Elec       q    Type
REMARK                         _______ _______ _______ _____ _____    ______ ____
ROOT
ATOM      1  C   UNL     1       4.696   5.269  16.434  0.00  0.00    +0.000 C 
ATOM      2  O   UNL     1       4.560   6.489  16.405  0.00  0.00    +0.000 OA
ATOM      3  N   UNL     1       3.826   4.452  17.119  0.00  0.00    +0.000 N 
ATOM      4  C   UNL     1       3.933   3.018  17.314  0.00  0.00    +0.000 C 
ATOM      5  C   UNL     1       2.502   2.582  17.570  0.00  0.00    +0.000 C 
ATOM      6  C   UNL     1       1.879   3.765  18.325  0.00  0.00    +0.000 C 
ATOM      7  C   UNL     1       2.659   4.988  17.805  0.00  0.00    +0.000 C 
ENDROOT
BRANCH   6   8
ATOM      8  C   UNL     1       1.945   3.557  19.806  0.00  0.00    +0.000 A 
ATOM      9  C   UNL     1       2.306   4.363  20.865  0.00  0.00    +0.000 A 
ATOM     10  C   UNL     1       2.166   3.550  22.005  0.00  0.00    +0.000 A 
ATOM     11  N   UNL     1       1.754   2.317  21.700  0.00  0.00    +0.000 NA
ATOM     12  N   UNL     1       1.622   2.347  20.367  0.00  0.00    +0.000 N 
ATOM     13  H   UNL     1       1.315   1.500  19.900  0.00  0.00    +0.000 HD
ENDBRANCH   6   8
BRANCH   1  14
ATOM     14  C   UNL     1       5.787   4.574  15.645  0.00  0.00    +0.000 C 
BRANCH  14  15
ATOM     15  C   UNL     1       7.048   4.368  16.470  0.00  0.00    +0.000 C 
BRANCH  15  19
ATOM     16  C   UNL     1       7.863   7.574  17.766  0.00  0.00    +0.000 A 
ATOM     17  N   UNL     1       7.918   6.875  18.907  0.00  0.00    +0.000 NA
ATOM     18  O   UNL     1       7.625   5.572  18.497  0.00  0.00    +0.000 OA
ATOM     19  C   UNL     1       7.421   5.631  17.148  0.00  0.00    +0.000 A 
ATOM     20  N   UNL     1       7.542   6.841  16.652  0.00  0.00    +0.000 NA
BRANCH  16  22
ATOM     21  C   UNL     1       9.019   9.485  18.861  0.00  0.00    +0.000 C 
ATOM     22  C   UNL     1       8.143   9.028  17.706  0.00  0.00    +0.000 C 
ENDBRANCH  16  22
ENDBRANCH  15  19
ENDBRANCH  14  15
ENDBRANCH   1  14
TORSDOF 5
ENDMDL
MODEL 5
REMARK VINA RESULT:      -7.2      1.145      1.264
REMARK  Name = 
REMARK  6 active torsions:
REMARK  status: ('A' for Active; 'I' for Inactive)
REMARK    1  A    between atoms: C_1  and  C_2
REMARK    2  A    between atoms: C_2  and  C_3
REMARK    3  A    between atoms: C_6  and  C_7
REMARK    4  A    between atoms: C_7  and  C_8
REMARK    5  A    between atoms: C_8  and  C_9
REMARK    6  A    between atoms: C_14  and  C_15
REMARK                            x       y       z     vdW  Elec       q    Type
REMARK                         _______ _______ _______ _____ _____    ______ ____
ROOT
ATOM      1  C   UNL     1       6.108   5.089  17.227  0.00  0.00    +0.000 C 
ATOM      2  O   UNL     1       7.087   4.518  17.701  0.00  0.00    +0.000 OA
ATOM      3  N   UNL     1       4.960   5.300  17.956  0.00  0.00    +0.000 N 
ATOM      4  C   UNL     1       3.710   5.866  17.486  0.00  0.00    +0.000 C 
ATOM      5  C   UNL     1       3.063   6.407  18.747  0.00  0.00    +0.000 C 
ATOM      6  C   UNL     1       3.497   5.424  19.843  0.00  0.00    +0.000 C 
ATOM      7  C   UNL     1       4.862   4.903  19.354  0.00  0.00    +0.000 C 
ENDROOT
BRANCH   6   8
ATOM      8  C   UNL     1       2.460   4.366  20.063  0.00  0.00    +0.000 A 
ATOM      9  C   UNL     1       1.192   4.375  20.604  0.00  0.00    +0.000 A 
ATOM     10  C   UNL     1       0.758   3.038  20.534  0.00  0.00    +0.000 A 
ATOM     11  N   UNL     1       1.678   2.234  19.996  0.00  0.00    +0.000 NA
ATOM     12  N   UNL     1       2.695   3.060  19.714  0.00  0.00    +0.000 N 
ATOM     13  H   UNL     1       3.527   2.663  19.290  0.00  0.00    +0.000 HD
ENDBRANCH   6   8
BRANCH   1  14
ATOM     14  C   UNL     1       6.132   5.676  15.831  0.00  0.00    +0.000 C 
BRANCH  14  15
ATOM     15  C   UNL     1       7.370   5.253  15.054  0.00  0.00    +0.000 C 
BRANCH  15  19
ATOM     16  C   UNL     1       6.110   3.436  12.273  0.00  0.00    +0.000 A 
ATOM     17  N   UNL     1       7.103   4.088  11.655  0.00  0.00    +0.000 NA
ATOM     18  O   UNL     1       7.684   4.831  12.685  0.00  0.00    +0.000 OA
ATOM     19  C   UNL     1       6.972   4.547  13.814  0.00  0.00    +0.000 A 
ATOM     20  N   UNL     1       5.985   3.705  13.612  0.00  0.00    +0.000 NA
BRANCH  16  22
ATOM     21  C   UNL     1       3.941   3.149  11.088  0.00  0.00    +0.000 C 
ATOM     22  C   UNL     1       5.220   2.482  11.569  0.00  0.00    +0.000 C 
ENDBRANCH  16  22
ENDBRANCH  15  19
ENDBRANCH  14  15
ENDBRANCH   1  14
TORSDOF 5
ENDMDL
MODEL 6
REMARK VINA RESULT:      -7.2      1.788      2.213
REMARK  Name = 
REMARK  6 active torsions:
REMARK  status: ('A' for Active; 'I' for Inactive)
REMARK    1  A    between atoms: C_1  and  C_2
REMARK    2  A    between atoms: C_2  and  C_3
REMARK    3  A    between atoms: C_6  and  C_7
REMARK    4  A    between atoms: C_7  and  C_8
REMARK    5  A    between atoms: C_8  and  C_9
REMARK    6  A    between atoms: C_14  and  C_15
REMARK                            x       y       z     vdW  Elec       q    Type
REMARK                         _______ _______ _______ _____ _____    ______ ____
ROOT
ATOM      1  C   UNL     1       5.973   5.802  18.820  0.00  0.00    +0.000 C 
ATOM      2  O   UNL     1       6.647   5.425  19.776  0.00  0.00    +0.000 OA
ATOM      3  N   UNL     1       4.601   5.697  18.805  0.00  0.00    +0.000 N 
ATOM      4  C   UNL     1       3.706   6.008  17.707  0.00  0.00    +0.000 C 
ATOM      5  C   UNL     1       2.382   6.292  18.393  0.00  0.00    +0.000 C 
ATOM      6  C   UNL     1       2.374   5.346  19.601  0.00  0.00    +0.000 C 
ATOM      7  C   UNL     1       3.865   5.180  19.950  0.00  0.00    +0.000 C 
ENDROOT
BRANCH   6   8
ATOM      8  C   UNL     1       1.653   4.072  19.286  0.00  0.00    +0.000 A 
ATOM      9  C   UNL     1       1.743   3.157  18.258  0.00  0.00    +0.000 A 
ATOM     10  C   UNL     1       0.763   2.189  18.546  0.00  0.00    +0.000 A 
ATOM     11  N   UNL     1       0.093   2.465  19.668  0.00  0.00    +0.000 NA
ATOM     12  N   UNL     1       0.652   3.604  20.099  0.00  0.00    +0.000 N 
ATOM     13  H   UNL     1       0.295   4.015  20.955  0.00  0.00    +0.000 HD
ENDBRANCH   6   8
BRANCH   1  14
ATOM     14  C   UNL     1       6.605   6.488  17.626  0.00  0.00    +0.000 C 
BRANCH  14  15
ATOM     15  C   UNL     1       7.664   5.620  16.963  0.00  0.00    +0.000 C 
BRANCH  15  19
ATOM     16  C   UNL     1       6.602   4.211  13.880  0.00  0.00    +0.000 A 
ATOM     17  N   UNL     1       5.775   3.549  14.699  0.00  0.00    +0.000 NA
ATOM     18  O   UNL     1       6.106   4.054  15.959  0.00  0.00    +0.000 OA
ATOM     19  C   UNL     1       7.102   4.965  15.759  0.00  0.00    +0.000 A 
ATOM     20  N   UNL     1       7.453   5.090  14.500  0.00  0.00    +0.000 NA
BRANCH  16  22
ATOM     21  C   UNL     1       5.450   3.121  11.963  0.00  0.00    +0.000 C 
ATOM     22  C   UNL     1       6.589   4.023  12.409  0.00  0.00    +0.000 C 
ENDBRANCH  16  22
ENDBRANCH  15  19
ENDBRANCH  14  15
ENDBRANCH   1  14
TORSDOF 5
ENDMDL
MODEL 7
REMARK VINA RESULT:      -7.1      0.891      1.075
REMARK  Name = 
REMARK  6 active torsions:
REMARK  status: ('A' for Active; 'I' for Inactive)
REMARK    1  A    between atoms: C_1  and  C_2
REMARK    2  A    between atoms: C_2  and  C_3
REMARK    3  A    between atoms: C_6  and  C_7
REMARK    4  A    between atoms: C_7  and  C_8
REMARK    5  A    between atoms: C_8  and  C_9
REMARK    6  A    between atoms: C_14  and  C_15
REMARK                            x       y       z     vdW  Elec       q    Type
REMARK                         _______ _______ _______ _____ _____    ______ ____
ROOT
ATOM      1  C   UNL     1       5.000   5.498  17.083  0.00  0.00    +0.000 C 
ATOM      2  O   UNL     1       5.043   6.695  17.357  0.00  0.00    +0.000 OA
ATOM      3  N   UNL     1       3.975   4.686  17.511  0.00  0.00    +0.000 N 
ATOM      4  C   UNL     1       3.861   3.249  17.344  0.00  0.00    +0.000 C 
ATOM      5  C   UNL     1       2.367   2.994  17.433  0.00  0.00    +0.000 C 
ATOM      6  C   UNL     1       1.868   4.041  18.439  0.00  0.00    +0.000 C 
ATOM      7  C   UNL     1       2.850   5.215  18.270  0.00  0.00    +0.000 C 
ENDROOT
BRANCH   6   8
ATOM      8  C   UNL     1       1.796   3.471  19.821  0.00  0.00    +0.000 A 
ATOM      9  C   UNL     1       0.753   3.116  20.652  0.00  0.00    +0.000 A 
ATOM     10  C   UNL     1       1.368   2.663  21.834  0.00  0.00    +0.000 A 
ATOM     11  N   UNL     1       2.700   2.729  21.769  0.00  0.00    +0.000 NA
ATOM     12  N   UNL     1       2.935   3.215  20.543  0.00  0.00    +0.000 N 
ATOM     13  H   UNL     1       3.900   3.357  20.263  0.00  0.00    +0.000 HD
ENDBRANCH   6   8
BRANCH   1  14
ATOM     14  C   UNL     1       6.034   4.853  16.182  0.00  0.00    +0.000 C 
BRANCH  14  15
ATOM     15  C   UNL     1       6.216   5.620  14.881  0.00  0.00    +0.000 C 
BRANCH  15  19
ATOM     16  C   UNL     1       6.131   3.227  12.258  0.00  0.00    +0.000 A 
ATOM     17  N   UNL     1       7.245   3.878  11.900  0.00  0.00    +0.000 NA
ATOM     18  O   UNL     1       7.380   4.847  12.897  0.00  0.00    +0.000 OA
ATOM     19  C   UNL     1       6.326   4.674  13.747  0.00  0.00    +0.000 A 
ATOM     20  N   UNL     1       5.520   3.699  13.391  0.00  0.00    +0.000 NA
BRANCH  16  22
ATOM     21  C   UNL     1       6.718   1.231  10.893  0.00  0.00    +0.000 C 
ATOM     22  C   UNL     1       5.602   2.069  11.496  0.00  0.00    +0.000 C 
ENDBRANCH  16  22
ENDBRANCH  15  19
ENDBRANCH  14  15
ENDBRANCH   1  14
TORSDOF 5
ENDMDL
MODEL 8
REMARK VINA RESULT:      -7.1      1.271      1.466
REMARK  Name = 
REMARK  6 active torsions:
REMARK  status: ('A' for Active; 'I' for Inactive)
REMARK    1  A    between atoms: C_1  and  C_2
REMARK    2  A    between atoms: C_2  and  C_3
REMARK    3  A    between atoms: C_6  and  C_7
REMARK    4  A    between atoms: C_7  and  C_8
REMARK    5  A    between atoms: C_8  and  C_9
REMARK    6  A    between atoms: C_14  and  C_15
REMARK                            x       y       z     vdW  Elec       q    Type
REMARK                         _______ _______ _______ _____ _____    ______ ____
ROOT
ATOM      1  C   UNL     1       5.740   5.210  16.315  0.00  0.00    +0.000 C 
ATOM      2  O   UNL     1       6.008   6.407  16.380  0.00  0.00    +0.000 OA
ATOM      3  N   UNL     1       4.598   4.684  16.875  0.00  0.00    +0.000 N 
ATOM      4  C   UNL     1       4.220   3.286  16.956  0.00  0.00    +0.000 C 
ATOM      5  C   UNL     1       2.708   3.330  17.088  0.00  0.00    +0.000 C 
ATOM      6  C   UNL     1       2.439   4.604  17.899  0.00  0.00    +0.000 C 
ATOM      7  C   UNL     1       3.613   5.532  17.532  0.00  0.00    +0.000 C 
ENDROOT
BRANCH   6   8
ATOM      8  C   UNL     1       2.309   4.298  19.359  0.00  0.00    +0.000 A 
ATOM      9  C   UNL     1       2.212   5.081  20.491  0.00  0.00    +0.000 A 
ATOM     10  C   UNL     1       2.137   4.169  21.559  0.00  0.00    +0.000 A 
ATOM     11  N   UNL     1       2.187   2.900  21.146  0.00  0.00    +0.000 NA
ATOM     12  N   UNL     1       2.286   3.004  19.814  0.00  0.00    +0.000 N 
ATOM     13  H   UNL     1       2.343   2.148  19.272  0.00  0.00    +0.000 HD
ENDBRANCH   6   8
BRANCH   1  14
ATOM     14  C   UNL     1       6.610   4.243  15.538  0.00  0.00    +0.000 C 
BRANCH  14  15
ATOM     15  C   UNL     1       6.962   4.775  14.156  0.00  0.00    +0.000 C 
BRANCH  15  19
ATOM     16  C   UNL     1       4.840   3.228  11.765  0.00  0.00    +0.000 A 
ATOM     17  N   UNL     1       5.998   2.663  11.401  0.00  0.00    +0.000 NA
ATOM     18  O   UNL     1       6.913   3.202  12.309  0.00  0.00    +0.000 OA
ATOM     19  C   UNL     1       6.202   4.038  13.121  0.00  0.00    +0.000 A 
ATOM     20  N   UNL     1       4.925   4.100  12.820  0.00  0.00    +0.000 NA
BRANCH  16  22
ATOM     21  C   UNL     1       3.233   3.932  10.001  0.00  0.00    +0.000 C 
ATOM     22  C   UNL     1       3.555   2.922  11.090  0.00  0.00    +0.000 C 
ENDBRANCH  16  22
ENDBRANCH  15  19
ENDBRANCH  14  15
ENDBRANCH   1  14
TORSDOF 5
ENDMDL
MODEL 9
REMARK VINA RESULT:      -7.0      2.487      3.018
REMARK  Name = 
REMARK  6 active torsions:
REMARK  status: ('A' for Active; 'I' for Inactive)
REMARK    1  A    between atoms: C_1  and  C_2
REMARK    2  A    between atoms: C_2  and  C_3
REMARK    3  A    between atoms: C_6  and  C_7
REMARK    4  A    between atoms: C_7  and  C_8
REMARK    5  A    between atoms: C_8  and  C_9
REMARK    6  A    between atoms: C_14  and  C_15
REMARK                            x       y       z     vdW  Elec       q    Type
REMARK                         _______ _______ _______ _____ _____    ______ ____
ROOT
ATOM      1  C   UNL     1       6.358   6.713  17.397  0.00  0.00    +0.000 C 
ATOM      2  O   UNL     1       6.488   7.598  16.555  0.00  0.00    +0.000 OA
ATOM      3  N   UNL     1       5.138   6.404  17.952  0.00  0.00    +0.000 N 
ATOM      4  C   UNL     1       4.870   5.458  19.019  0.00  0.00    +0.000 C 
ATOM      5  C   UNL     1       3.414   5.082  18.809  0.00  0.00    +0.000 C 
ATOM      6  C   UNL     1       2.769   6.367  18.273  0.00  0.00    +0.000 C 
ATOM      7  C   UNL     1       3.917   7.076  17.530  0.00  0.00    +0.000 C 
ENDROOT
BRANCH   6   8
ATOM      8  C   UNL     1       2.146   7.162  19.378  0.00  0.00    +0.000 A 
ATOM      9  C   UNL     1       1.813   6.877  20.686  0.00  0.00    +0.000 A 
ATOM     10  C   UNL     1       1.236   8.061  21.181  0.00  0.00    +0.000 A 
ATOM     11  N   UNL     1       1.198   9.028  20.262  0.00  0.00    +0.000 NA
ATOM     12  N   UNL     1       1.757   8.464  19.183  0.00  0.00    +0.000 N 
ATOM     13  H   UNL     1       1.835   9.022  18.340  0.00  0.00    +0.000 HD
ENDBRANCH   6   8
BRANCH   1  14
ATOM     14  C   UNL     1       7.525   5.843  17.818  0.00  0.00    +0.000 C 
BRANCH  14  15
ATOM     15  C   UNL     1       7.391   4.417  17.303  0.00  0.00    +0.000 C 
BRANCH  15  19
ATOM     16  C   UNL     1       6.234   4.242  13.949  0.00  0.00    +0.000 A 
ATOM     17  N   UNL     1       7.231   5.118  13.773  0.00  0.00    +0.000 NA
ATOM     18  O   UNL     1       7.773   5.244  15.054  0.00  0.00    +0.000 OA
ATOM     19  C   UNL     1       7.037   4.429  15.865  0.00  0.00    +0.000 A 
ATOM     20  N   UNL     1       6.070   3.800  15.237  0.00  0.00    +0.000 NA
BRANCH  16  22
ATOM     21  C   UNL     1       6.088   2.734  11.975  0.00  0.00    +0.000 C 
ATOM     22  C   UNL     1       5.379   3.769  12.834  0.00  0.00    +0.000 C 
ENDBRANCH  16  22
ENDBRANCH  15  19
ENDBRANCH  14  15
ENDBRANCH   1  14
TORSDOF 5
ENDMDL
