MODEL 1
REMARK VINA RESULT:      -6.5      0.000      0.000
REMARK  Name = 
REMARK  2 active torsions:
REMARK  status: ('A' for Active; 'I' for Inactive)
REMARK    1  A    between atoms: C_2  and  C_10
REMARK    2  A    between atoms: N_3  and  C_4
REMARK                            x       y       z     vdW  Elec       q    Type
REMARK                         _______ _______ _______ _____ _____    ______ ____
ROOT
ATOM      1  O   UNL     1       5.910   4.190  19.015  0.00  0.00    +0.000 OA
ATOM      2  C   UNL     1       4.787   3.969  18.577  0.00  0.00    +0.000 C 
ATOM      3  N   UNL     1       4.540   3.810  17.228  0.00  0.00    +0.000 N 
ATOM      4  H   UNL     1       3.626   3.502  16.915  0.00  0.00    +0.000 HD
ENDROOT
BRANCH   2   5
ATOM      5  C   UNL     1       3.621   3.851  19.503  0.00  0.00    +0.000 A 
ATOM      6  C   UNL     1       3.550   2.772  20.401  0.00  0.00    +0.000 A 
ATOM      7 CL   UNL     1       4.781   1.581  20.620  0.00  0.00    +0.000 Cl
ATOM      8  C   UNL     1       2.430   2.660  21.216  0.00  0.00    +0.000 A 
ATOM      9  N   UNL     1       1.401   3.534  21.218  0.00  0.00    +0.000 NA
ATOM     10  C   UNL     1       1.493   4.569  20.354  0.00  0.00    +0.000 A 
ATOM     11  C   UNL     1       2.558   4.769  19.487  0.00  0.00    +0.000 A 
ATOM     12 CL   UNL     1       2.445   6.145  18.447  0.00  0.00    +0.000 Cl
ENDBRANCH   2   5
BRANCH   3  13
ATOM     13  C   UNL     1       5.583   3.887  16.253  0.00  0.00    +0.000 C 
ATOM     14  C   UNL     1       5.968   5.232  15.704  0.00  0.00    +0.000 C 
ATOM     15  C   UNL     1       7.305   5.470  15.099  0.00  0.00    +0.000 C 
ATOM     16  O   UNL     1       7.203   5.007  13.741  0.00  0.00    +0.000 OA
ATOM     17  C   UNL     1       6.218   3.960  13.713  0.00  0.00    +0.000 C 
ATOM     18  C   UNL     1       5.272   4.256  14.826  0.00  0.00    +0.000 C 
ENDBRANCH   3  13
TORSDOF 2
ENDMDL
MODEL 2
REMARK VINA RESULT:      -6.3      0.796      2.149
REMARK  Name = 
REMARK  2 active torsions:
REMARK  status: ('A' for Active; 'I' for Inactive)
REMARK    1  A    between atoms: C_2  and  C_10
REMARK    2  A    between atoms: N_3  and  C_4
REMARK                            x       y       z     vdW  Elec       q    Type
REMARK                         _______ _______ _______ _____ _____    ______ ____
ROOT
ATOM      1  O   UNL     1       5.677   4.176  18.862  0.00  0.00    +0.000 OA
ATOM      2  C   UNL     1       4.605   3.924  18.324  0.00  0.00    +0.000 C 
ATOM      3  N   UNL     1       4.481   3.790  16.954  0.00  0.00    +0.000 N 
ATOM      4  H   UNL     1       3.610   3.456  16.558  0.00  0.00    +0.000 HD
ENDROOT
BRANCH   2   5
ATOM      5  C   UNL     1       3.370   3.740  19.142  0.00  0.00    +0.000 A 
ATOM      6  C   UNL     1       2.718   4.862  19.683  0.00  0.00    +0.000 A 
ATOM      7 CL   UNL     1       3.164   6.505  19.390  0.00  0.00    +0.000 Cl
ATOM      8  C   UNL     1       1.600   4.659  20.482  0.00  0.00    +0.000 A 
ATOM      9  N   UNL     1       1.080   3.446  20.767  0.00  0.00    +0.000 NA
ATOM     10  C   UNL     1       1.715   2.381  20.231  0.00  0.00    +0.000 A 
ATOM     11  C   UNL     1       2.847   2.469  19.431  0.00  0.00    +0.000 A 
ATOM     12 CL   UNL     1       3.510   0.970  18.883  0.00  0.00    +0.000 Cl
ENDBRANCH   2   5
BRANCH   3  13
ATOM     13  C   UNL     1       5.600   3.931  16.075  0.00  0.00    +0.000 C 
ATOM     14  C   UNL     1       5.965   5.300  15.575  0.00  0.00    +0.000 C 
ATOM     15  C   UNL     1       7.336   5.610  15.091  0.00  0.00    +0.000 C 
ATOM     16  O   UNL     1       7.375   5.161  13.726  0.00  0.00    +0.000 OA
ATOM     17  C   UNL     1       6.449   4.069  13.602  0.00  0.00    +0.000 C 
ATOM     18  C   UNL     1       5.396   4.304  14.631  0.00  0.00    +0.000 C 
ENDBRANCH   3  13
TORSDOF 2
ENDMDL
MODEL 3
REMARK VINA RESULT:      -6.3      1.189      1.189
REMARK  Name = 
REMARK  2 active torsions:
REMARK  status: ('A' for Active; 'I' for Inactive)
REMARK    1  A    between atoms: C_2  and  C_10
REMARK    2  A    between atoms: N_3  and  C_4
REMARK                            x       y       z     vdW  Elec       q    Type
REMARK                         _______ _______ _______ _____ _____    ______ ____
ROOT
ATOM      1  O   UNL     1       3.997   1.753  17.501  0.00  0.00    +0.000 OA
ATOM      2  C   UNL     1       3.906   2.865  18.011  0.00  0.00    +0.000 C 
ATOM      3  N   UNL     1       4.620   3.951  17.543  0.00  0.00    +0.000 N 
ATOM      4  H   UNL     1       4.423   4.876  17.904  0.00  0.00    +0.000 HD
ENDROOT
BRANCH   2   5
ATOM      5  C   UNL     1       2.996   3.094  19.172  0.00  0.00    +0.000 A 
ATOM      6  C   UNL     1       3.330   2.572  20.433  0.00  0.00    +0.000 A 
ATOM      7 CL   UNL     1       4.803   1.750  20.808  0.00  0.00    +0.000 Cl
ATOM      8  C   UNL     1       2.442   2.757  21.485  0.00  0.00    +0.000 A 
ATOM      9  N   UNL     1       1.273   3.426  21.384  0.00  0.00    +0.000 NA
ATOM     10  C   UNL     1       0.975   3.928  20.166  0.00  0.00    +0.000 A 
ATOM     11  C   UNL     1       1.782   3.790  19.045  0.00  0.00    +0.000 A 
ATOM     12 CL   UNL     1       1.182   4.486  17.582  0.00  0.00    +0.000 Cl
ENDBRANCH   2   5
BRANCH   3  13
ATOM     13  C   UNL     1       5.509   3.848  16.428  0.00  0.00    +0.000 C 
ATOM     14  C   UNL     1       6.177   5.092  15.913  0.00  0.00    +0.000 C 
ATOM     15  C   UNL     1       7.438   5.028  15.127  0.00  0.00    +0.000 C 
ATOM     16  O   UNL     1       7.037   4.751  13.774  0.00  0.00    +0.000 OA
ATOM     17  C   UNL     1       5.805   4.011  13.831  0.00  0.00    +0.000 C 
ATOM     18  C   UNL     1       5.131   4.431  15.092  0.00  0.00    +0.000 C 
ENDBRANCH   3  13
TORSDOF 2
ENDMDL
MODEL 4
REMARK VINA RESULT:      -6.3      0.951      2.393
REMARK  Name = 
REMARK  2 active torsions:
REMARK  status: ('A' for Active; 'I' for Inactive)
REMARK    1  A    between atoms: C_2  and  C_10
REMARK    2  A    between atoms: N_3  and  C_4
REMARK                            x       y       z     vdW  Elec       q    Type
REMARK                         _______ _______ _______ _____ _____    ______ ____
ROOT
ATOM      1  O   UNL     1       6.244   4.389  18.344  0.00  0.00    +0.000 OA
ATOM      2  C   UNL     1       5.073   4.307  17.989  0.00  0.00    +0.000 C 
ATOM      3  N   UNL     1       4.716   4.084  16.674  0.00  0.00    +0.000 N 
ATOM      4  H   UNL     1       3.749   3.894  16.439  0.00  0.00    +0.000 HD
ENDROOT
BRANCH   2   5
ATOM      5  C   UNL     1       3.968   4.437  18.984  0.00  0.00    +0.000 A 
ATOM      6  C   UNL     1       3.227   5.630  19.052  0.00  0.00    +0.000 A 
ATOM      7 CL   UNL     1       3.409   6.972  17.980  0.00  0.00    +0.000 Cl
ATOM      8  C   UNL     1       2.237   5.743  20.020  0.00  0.00    +0.000 A 
ATOM      9  N   UNL     1       1.922   4.769  20.902  0.00  0.00    +0.000 NA
ATOM     10  C   UNL     1       2.639   3.628  20.815  0.00  0.00    +0.000 A 
ATOM     11  C   UNL     1       3.658   3.414  19.896  0.00  0.00    +0.000 A 
ATOM     12 CL   UNL     1       4.461   1.887  19.991  0.00  0.00    +0.000 Cl
ENDBRANCH   2   5
BRANCH   3  13
ATOM     13  C   UNL     1       5.692   3.929  15.640  0.00  0.00    +0.000 C 
ATOM     14  C   UNL     1       6.150   5.144  14.883  0.00  0.00    +0.000 C 
ATOM     15  C   UNL     1       7.457   5.171  14.175  0.00  0.00    +0.000 C 
ATOM     16  O   UNL     1       7.221   4.538  12.905  0.00  0.00    +0.000 OA
ATOM     17  C   UNL     1       6.152   3.593  13.084  0.00  0.00    +0.000 C 
ATOM     18  C   UNL     1       5.315   4.126  14.195  0.00  0.00    +0.000 C 
ENDBRANCH   3  13
TORSDOF 2
ENDMDL
MODEL 5
REMARK VINA RESULT:      -6.3      1.199      2.427
REMARK  Name = 
REMARK  2 active torsions:
REMARK  status: ('A' for Active; 'I' for Inactive)
REMARK    1  A    between atoms: C_2  and  C_10
REMARK    2  A    between atoms: N_3  and  C_4
REMARK                            x       y       z     vdW  Elec       q    Type
REMARK                         _______ _______ _______ _____ _____    ______ ____
ROOT
ATOM      1  O   UNL     1       3.979   1.756  17.468  0.00  0.00    +0.000 OA
ATOM      2  C   UNL     1       3.914   2.849  18.020  0.00  0.00    +0.000 C 
ATOM      3  N   UNL     1       4.650   3.936  17.590  0.00  0.00    +0.000 N 
ATOM      4  H   UNL     1       4.475   4.852  17.987  0.00  0.00    +0.000 HD
ENDROOT
BRANCH   2   5
ATOM      5  C   UNL     1       3.014   3.055  19.193  0.00  0.00    +0.000 A 
ATOM      6  C   UNL     1       1.821   3.782  19.038  0.00  0.00    +0.000 A 
ATOM      7 CL   UNL     1       1.219   4.392  17.538  0.00  0.00    +0.000 Cl
ATOM      8  C   UNL     1       1.027   4.001  20.157  0.00  0.00    +0.000 A 
ATOM      9  N   UNL     1       1.316   3.546  21.395  0.00  0.00    +0.000 NA
ATOM     10  C   UNL     1       2.462   2.842  21.521  0.00  0.00    +0.000 A 
ATOM     11  C   UNL     1       3.335   2.576  20.474  0.00  0.00    +0.000 A 
ATOM     12 CL   UNL     1       4.759   1.684  20.877  0.00  0.00    +0.000 Cl
ENDBRANCH   2   5
BRANCH   3  13
ATOM     13  C   UNL     1       5.533   3.857  16.467  0.00  0.00    +0.000 C 
ATOM     14  C   UNL     1       6.169   5.116  15.951  0.00  0.00    +0.000 C 
ATOM     15  C   UNL     1       7.425   5.082  15.156  0.00  0.00    +0.000 C 
ATOM     16  O   UNL     1       7.019   4.800  13.805  0.00  0.00    +0.000 OA
ATOM     17  C   UNL     1       5.805   4.033  13.869  0.00  0.00    +0.000 C 
ATOM     18  C   UNL     1       5.131   4.434  15.136  0.00  0.00    +0.000 C 
ENDBRANCH   3  13
TORSDOF 2
ENDMDL
MODEL 6
REMARK VINA RESULT:      -6.2      1.170      1.243
REMARK  Name = 
REMARK  2 active torsions:
REMARK  status: ('A' for Active; 'I' for Inactive)
REMARK    1  A    between atoms: C_2  and  C_10
REMARK    2  A    between atoms: N_3  and  C_4
REMARK                            x       y       z     vdW  Elec       q    Type
REMARK                         _______ _______ _______ _____ _____    ______ ____
ROOT
ATOM      1  O   UNL     1       6.287   4.502  18.138  0.00  0.00    +0.000 OA
ATOM      2  C   UNL     1       5.107   4.482  17.804  0.00  0.00    +0.000 C 
ATOM      3  N   UNL     1       4.714   4.241  16.502  0.00  0.00    +0.000 N 
ATOM      4  H   UNL     1       3.733   4.105  16.289  0.00  0.00    +0.000 HD
ENDROOT
BRANCH   2   5
ATOM      5  C   UNL     1       4.030   4.713  18.811  0.00  0.00    +0.000 A 
ATOM      6  C   UNL     1       3.680   3.687  19.706  0.00  0.00    +0.000 A 
ATOM      7 CL   UNL     1       4.482   2.162  19.829  0.00  0.00    +0.000 Cl
ATOM      8  C   UNL     1       2.640   3.911  20.600  0.00  0.00    +0.000 A 
ATOM      9  N   UNL     1       1.944   5.065  20.681  0.00  0.00    +0.000 NA
ATOM     10  C   UNL     1       2.301   6.042  19.819  0.00  0.00    +0.000 A 
ATOM     11  C   UNL     1       3.314   5.920  18.877  0.00  0.00    +0.000 A 
ATOM     12 CL   UNL     1       3.574   7.289  17.856  0.00  0.00    +0.000 Cl
ENDBRANCH   2   5
BRANCH   3  13
ATOM     13  C   UNL     1       5.660   3.992  15.459  0.00  0.00    +0.000 C 
ATOM     14  C   UNL     1       6.150   5.145  14.630  0.00  0.00    +0.000 C 
ATOM     15  C   UNL     1       7.441   5.082  13.895  0.00  0.00    +0.000 C 
ATOM     16  O   UNL     1       7.153   4.392  12.667  0.00  0.00    +0.000 OA
ATOM     17  C   UNL     1       6.051   3.503  12.916  0.00  0.00    +0.000 C 
ATOM     18  C   UNL     1       5.260   4.128  14.014  0.00  0.00    +0.000 C 
ENDBRANCH   3  13
TORSDOF 2
ENDMDL
MODEL 7
REMARK VINA RESULT:      -6.0      1.353      1.640
REMARK  Name = 
REMARK  2 active torsions:
REMARK  status: ('A' for Active; 'I' for Inactive)
REMARK    1  A    between atoms: C_2  and  C_10
REMARK    2  A    between atoms: N_3  and  C_4
REMARK                            x       y       z     vdW  Elec       q    Type
REMARK                         _______ _______ _______ _____ _____    ______ ____
ROOT
ATOM      1  O   UNL     1       2.743   3.731  16.811  0.00  0.00    +0.000 OA
ATOM      2  C   UNL     1       3.488   4.056  17.729  0.00  0.00    +0.000 C 
ATOM      3  N   UNL     1       4.725   4.629  17.507  0.00  0.00    +0.000 N 
ATOM      4  H   UNL     1       5.256   5.001  18.286  0.00  0.00    +0.000 HD
ENDROOT
BRANCH   2   5
ATOM      5  C   UNL     1       3.076   3.852  19.149  0.00  0.00    +0.000 A 
ATOM      6  C   UNL     1       3.098   2.560  19.703  0.00  0.00    +0.000 A 
ATOM      7 CL   UNL     1       3.683   1.146  18.899  0.00  0.00    +0.000 Cl
ATOM      8  C   UNL     1       2.662   2.390  21.011  0.00  0.00    +0.000 A 
ATOM      9  N   UNL     1       2.228   3.393  21.803  0.00  0.00    +0.000 NA
ATOM     10  C   UNL     1       2.222   4.629  21.256  0.00  0.00    +0.000 A 
ATOM     11  C   UNL     1       2.623   4.909  19.956  0.00  0.00    +0.000 A 
ATOM     12 CL   UNL     1       2.499   6.559  19.459  0.00  0.00    +0.000 Cl
ENDBRANCH   2   5
BRANCH   3  13
ATOM     13  C   UNL     1       5.215   4.884  16.188  0.00  0.00    +0.000 C 
ATOM     14  C   UNL     1       5.680   3.729  15.347  0.00  0.00    +0.000 C 
ATOM     15  C   UNL     1       5.729   3.817  13.864  0.00  0.00    +0.000 C 
ATOM     16  O   UNL     1       6.974   4.469  13.557  0.00  0.00    +0.000 OA
ATOM     17  C   UNL     1       7.299   5.327  14.664  0.00  0.00    +0.000 C 
ATOM     18  C   UNL     1       6.675   4.702  15.865  0.00  0.00    +0.000 C 
ENDBRANCH   3  13
TORSDOF 2
ENDMDL
MODEL 8
REMARK VINA RESULT:      -5.9      1.342      2.644
REMARK  Name = 
REMARK  2 active torsions:
REMARK  status: ('A' for Active; 'I' for Inactive)
REMARK    1  A    between atoms: C_2  and  C_10
REMARK    2  A    between atoms: N_3  and  C_4
REMARK                            x       y       z     vdW  Elec       q    Type
REMARK                         _______ _______ _______ _____ _____    ______ ____
ROOT
ATOM      1  O   UNL     1       2.771   3.688  16.737  0.00  0.00    +0.000 OA
ATOM      2  C   UNL     1       3.487   4.030  17.671  0.00  0.00    +0.000 C 
ATOM      3  N   UNL     1       4.716   4.629  17.478  0.00  0.00    +0.000 N 
ATOM      4  H   UNL     1       5.220   5.013  18.268  0.00  0.00    +0.000 HD
ENDROOT
BRANCH   2   5
ATOM      5  C   UNL     1       3.046   3.816  19.082  0.00  0.00    +0.000 A 
ATOM      6  C   UNL     1       2.587   4.906  19.842  0.00  0.00    +0.000 A 
ATOM      7 CL   UNL     1       2.374   6.513  19.243  0.00  0.00    +0.000 Cl
ATOM      8  C   UNL     1       2.231   4.689  21.167  0.00  0.00    +0.000 A 
ATOM      9  N   UNL     1       2.279   3.487  21.779  0.00  0.00    +0.000 NA
ATOM     10  C   UNL     1       2.714   2.450  21.029  0.00  0.00    +0.000 A 
ATOM     11  C   UNL     1       3.108   2.558  19.703  0.00  0.00    +0.000 A 
ATOM     12 CL   UNL     1       3.661   1.103  18.951  0.00  0.00    +0.000 Cl
ENDBRANCH   2   5
BRANCH   3  13
ATOM     13  C   UNL     1       5.231   4.895  16.170  0.00  0.00    +0.000 C 
ATOM     14  C   UNL     1       5.697   3.745  15.323  0.00  0.00    +0.000 C 
ATOM     15  C   UNL     1       5.773   3.850  13.842  0.00  0.00    +0.000 C 
ATOM     16  O   UNL     1       7.030   4.492  13.565  0.00  0.00    +0.000 OA
ATOM     17  C   UNL     1       7.344   5.333  14.687  0.00  0.00    +0.000 C 
ATOM     18  C   UNL     1       6.694   4.701  15.870  0.00  0.00    +0.000 C 
ENDBRANCH   3  13
TORSDOF 2
ENDMDL
MODEL 9
REMARK VINA RESULT:      -5.8      3.946      6.838
REMARK  Name = 
REMARK  2 active torsions:
REMARK  status: ('A' for Active; 'I' for Inactive)
REMARK    1  A    between atoms: C_2  and  C_10
REMARK    2  A    between atoms: N_3  and  C_4
REMARK                            x       y       z     vdW  Elec       q    Type
REMARK                         _______ _______ _______ _____ _____    ______ ____
ROOT
ATOM      1  O   UNL     1       0.569   4.988  20.397  0.00  0.00    +0.000 OA
ATOM      2  C   UNL     1       1.718   5.414  20.430  0.00  0.00    +0.000 C 
ATOM      3  N   UNL     1       2.012   6.717  20.782  0.00  0.00    +0.000 N 
ATOM      4  H   UNL     1       2.976   6.995  20.922  0.00  0.00    +0.000 HD
ENDROOT
BRANCH   2   5
ATOM      5  C   UNL     1       2.867   4.522  20.093  0.00  0.00    +0.000 A 
ATOM      6  C   UNL     1       3.801   4.924  19.123  0.00  0.00    +0.000 A 
ATOM      7 CL   UNL     1       3.809   6.459  18.330  0.00  0.00    +0.000 Cl
ATOM      8  C   UNL     1       4.832   4.054  18.793  0.00  0.00    +0.000 A 
ATOM      9  N   UNL     1       5.012   2.839  19.356  0.00  0.00    +0.000 NA
ATOM     10  C   UNL     1       4.108   2.475  20.293  0.00  0.00    +0.000 A 
ATOM     11  C   UNL     1       3.034   3.260  20.688  0.00  0.00    +0.000 A 
ATOM     12 CL   UNL     1       1.987   2.574  21.879  0.00  0.00    +0.000 Cl
ENDBRANCH   2   5
BRANCH   3  13
ATOM     13  C   UNL     1       0.992   7.653  21.137  0.00  0.00    +0.000 C 
ATOM     14  C   UNL     1       1.031   9.033  20.545  0.00  0.00    +0.000 C 
ATOM     15  C   UNL     1      -0.190   9.876  20.454  0.00  0.00    +0.000 C 
ATOM     16  O   UNL     1      -0.329  10.494  21.745  0.00  0.00    +0.000 OA
ATOM     17  C   UNL     1       0.257   9.610  22.715  0.00  0.00    +0.000 C 
ATOM     18  C   UNL     1       1.316   8.850  21.991  0.00  0.00    +0.000 C 
ENDBRANCH   3  13
TORSDOF 2
ENDMDL
