MODEL 1
REMARK VINA RESULT:      -8.0      0.000      0.000
REMARK  Name = 
REMARK  5 active torsions:
REMARK  status: ('A' for Active; 'I' for Inactive)
REMARK    1  A    between atoms: C_1  and  C_2
REMARK    2  A    between atoms: N_12  and  C_13
REMARK    3  A    between atoms: C_13  and  C_14
REMARK    4  A    between atoms: C_14  and  C_15
REMARK    5  A    between atoms: C_18  and  O_19
REMARK                            x       y       z     vdW  Elec       q    Type
REMARK                         _______ _______ _______ _____ _____    ______ ____
ROOT
ATOM      1  C   UNL     1       7.706   6.925  17.740  0.00  0.00    +0.000 C 
ATOM      2  C   UNL     1       7.161   5.928  16.749  0.00  0.00    +0.000 A 
ATOM      3  N   UNL     1       7.623   6.015  15.540  0.00  0.00    +0.000 NA
ATOM      4  C   UNL     1       7.144   5.143  14.561  0.00  0.00    +0.000 A 
ATOM      5  C   UNL     1       7.641   5.254  13.262  0.00  0.00    +0.000 A 
ATOM      6  C   UNL     1       7.162   4.423  12.243  0.00  0.00    +0.000 A 
ATOM      7  C   UNL     1       6.189   3.464  12.528  0.00  0.00    +0.000 A 
ATOM      8  C   UNL     1       5.703   3.336  13.829  0.00  0.00    +0.000 A 
ATOM      9  C   UNL     1       6.183   4.181  14.838  0.00  0.00    +0.000 A 
ATOM     10  C   UNL     1       5.695   4.083  16.223  0.00  0.00    +0.000 A 
ATOM     11  O   UNL     1       4.883   3.203  16.505  0.00  0.00    +0.000 OA
ATOM     12  N   UNL     1       6.210   5.004  17.143  0.00  0.00    +0.000 N 
ENDROOT
BRANCH  12  13
ATOM     13  C   UNL     1       5.738   4.873  18.537  0.00  0.00    +0.000 C 
BRANCH  13  14
ATOM     14  C   UNL     1       4.455   5.663  18.845  0.00  0.00    +0.000 C 
BRANCH  14  15
ATOM     15  C   UNL     1       3.195   4.869  19.135  0.00  0.00    +0.000 A 
ATOM     16  C   UNL     1       2.765   4.517  20.422  0.00  0.00    +0.000 A 
ATOM     17  C   UNL     1       1.616   3.737  20.605  0.00  0.00    +0.000 A 
ATOM     18  C   UNL     1       0.889   3.310  19.500  0.00  0.00    +0.000 A 
ATOM     19  C   UNL     1       1.280   3.665  18.218  0.00  0.00    +0.000 A 
ATOM     20  C   UNL     1       2.428   4.438  18.036  0.00  0.00    +0.000 A 
BRANCH  18  21
ATOM     21  O   UNL     1      -0.217   2.526  19.635  0.00  0.00    +0.000 OA
ATOM     22  H   UNL     1      -0.058   1.686  19.172  0.00  0.00    +0.000 HD
ENDBRANCH  18  21
ENDBRANCH  14  15
ENDBRANCH  13  14
ENDBRANCH  12  13
TORSDOF 4
ENDMDL
MODEL 2
REMARK VINA RESULT:      -7.9      1.025      1.274
REMARK  Name = 
REMARK  5 active torsions:
REMARK  status: ('A' for Active; 'I' for Inactive)
REMARK    1  A    between atoms: C_1  and  C_2
REMARK    2  A    between atoms: N_12  and  C_13
REMARK    3  A    between atoms: C_13  and  C_14
REMARK    4  A    between atoms: C_14  and  C_15
REMARK    5  A    between atoms: C_18  and  O_19
REMARK                            x       y       z     vdW  Elec       q    Type
REMARK                         _______ _______ _______ _____ _____    ______ ____
ROOT
ATOM      1  C   UNL     1       7.719   6.847  17.570  0.00  0.00    +0.000 C 
ATOM      2  C   UNL     1       7.079   5.904  16.583  0.00  0.00    +0.000 A 
ATOM      3  N   UNL     1       7.617   5.861  15.404  0.00  0.00    +0.000 NA
ATOM      4  C   UNL     1       7.062   5.030  14.430  0.00  0.00    +0.000 A 
ATOM      5  C   UNL     1       7.644   5.001  13.161  0.00  0.00    +0.000 A 
ATOM      6  C   UNL     1       7.097   4.210  12.145  0.00  0.00    +0.000 A 
ATOM      7  C   UNL     1       5.968   3.431  12.402  0.00  0.00    +0.000 A 
ATOM      8  C   UNL     1       5.394   3.441  13.674  0.00  0.00    +0.000 A 
ATOM      9  C   UNL     1       5.945   4.246  14.679  0.00  0.00    +0.000 A 
ATOM     10  C   UNL     1       5.368   4.291  16.033  0.00  0.00    +0.000 A 
ATOM     11  O   UNL     1       4.410   3.565  16.294  0.00  0.00    +0.000 OA
ATOM     12  N   UNL     1       5.970   5.162  16.949  0.00  0.00    +0.000 N 
ENDROOT
BRANCH  12  13
ATOM     13  C   UNL     1       5.405   5.172  18.314  0.00  0.00    +0.000 C 
BRANCH  13  14
ATOM     14  C   UNL     1       3.886   5.415  18.365  0.00  0.00    +0.000 C 
BRANCH  14  15
ATOM     15  C   UNL     1       3.080   4.611  19.367  0.00  0.00    +0.000 A 
ATOM     16  C   UNL     1       1.800   4.966  19.815  0.00  0.00    +0.000 A 
ATOM     17  C   UNL     1       1.141   4.197  20.781  0.00  0.00    +0.000 A 
ATOM     18  C   UNL     1       1.757   3.066  21.302  0.00  0.00    +0.000 A 
ATOM     19  C   UNL     1       3.012   2.679  20.858  0.00  0.00    +0.000 A 
ATOM     20  C   UNL     1       3.672   3.449  19.898  0.00  0.00    +0.000 A 
BRANCH  18  21
ATOM     21  O   UNL     1       1.160   2.308  22.265  0.00  0.00    +0.000 OA
ATOM     22  H   UNL     1       0.401   2.801  22.618  0.00  0.00    +0.000 HD
ENDBRANCH  18  21
ENDBRANCH  14  15
ENDBRANCH  13  14
ENDBRANCH  12  13
TORSDOF 4
ENDMDL
MODEL 3
REMARK VINA RESULT:      -7.8      0.152      1.057
REMARK  Name = 
REMARK  5 active torsions:
REMARK  status: ('A' for Active; 'I' for Inactive)
REMARK    1  A    between atoms: C_1  and  C_2
REMARK    2  A    between atoms: N_12  and  C_13
REMARK    3  A    between atoms: C_13  and  C_14
REMARK    4  A    between atoms: C_14  and  C_15
REMARK    5  A    between atoms: C_18  and  O_19
REMARK                            x       y       z     vdW  Elec       q    Type
REMARK                         _______ _______ _______ _____ _____    ______ ____
ROOT
ATOM      1  C   UNL     1       7.720   6.968  17.792  0.00  0.00    +0.000 C 
ATOM      2  C   UNL     1       7.199   5.960  16.799  0.00  0.00    +0.000 A 
ATOM      3  N   UNL     1       7.635   6.078  15.584  0.00  0.00    +0.000 NA
ATOM      4  C   UNL     1       7.176   5.197  14.604  0.00  0.00    +0.000 A 
ATOM      5  C   UNL     1       7.645   5.341  13.298  0.00  0.00    +0.000 A 
ATOM      6  C   UNL     1       7.182   4.502  12.278  0.00  0.00    +0.000 A 
ATOM      7  C   UNL     1       6.254   3.501  12.569  0.00  0.00    +0.000 A 
ATOM      8  C   UNL     1       5.797   3.340  13.877  0.00  0.00    +0.000 A 
ATOM      9  C   UNL     1       6.260   4.194  14.887  0.00  0.00    +0.000 A 
ATOM     10  C   UNL     1       5.800   4.062  16.279  0.00  0.00    +0.000 A 
ATOM     11  O   UNL     1       5.029   3.147  16.565  0.00  0.00    +0.000 OA
ATOM     12  N   UNL     1       6.293   4.994  17.199  0.00  0.00    +0.000 N 
ENDROOT
BRANCH  12  13
ATOM     13  C   UNL     1       5.852   4.830  18.600  0.00  0.00    +0.000 C 
BRANCH  13  14
ATOM     14  C   UNL     1       4.542   5.563  18.938  0.00  0.00    +0.000 C 
BRANCH  14  15
ATOM     15  C   UNL     1       3.276   4.732  19.030  0.00  0.00    +0.000 A 
ATOM     16  C   UNL     1       2.425   4.472  17.947  0.00  0.00    +0.000 A 
ATOM     17  C   UNL     1       1.246   3.738  18.123  0.00  0.00    +0.000 A 
ATOM     18  C   UNL     1       0.915   3.255  19.383  0.00  0.00    +0.000 A 
ATOM     19  C   UNL     1       1.752   3.477  20.466  0.00  0.00    +0.000 A 
ATOM     20  C   UNL     1       2.925   4.215  20.291  0.00  0.00    +0.000 A 
BRANCH  18  21
ATOM     21  O   UNL     1      -0.238   2.561  19.601  0.00  0.00    +0.000 OA
ATOM     22  H   UNL     1      -0.882   2.813  18.919  0.00  0.00    +0.000 HD
ENDBRANCH  18  21
ENDBRANCH  14  15
ENDBRANCH  13  14
ENDBRANCH  12  13
TORSDOF 4
ENDMDL
MODEL 4
REMARK VINA RESULT:      -7.6      2.971      4.284
REMARK  Name = 
REMARK  5 active torsions:
REMARK  status: ('A' for Active; 'I' for Inactive)
REMARK    1  A    between atoms: C_1  and  C_2
REMARK    2  A    between atoms: N_12  and  C_13
REMARK    3  A    between atoms: C_13  and  C_14
REMARK    4  A    between atoms: C_14  and  C_15
REMARK    5  A    between atoms: C_18  and  O_19
REMARK                            x       y       z     vdW  Elec       q    Type
REMARK                         _______ _______ _______ _____ _____    ______ ____
ROOT
ATOM      1  C   UNL     1       4.417   2.577  19.765  0.00  0.00    +0.000 C 
ATOM      2  C   UNL     1       5.012   3.708  18.965  0.00  0.00    +0.000 A 
ATOM      3  N   UNL     1       6.046   4.292  19.487  0.00  0.00    +0.000 NA
ATOM      4  C   UNL     1       6.634   5.366  18.816  0.00  0.00    +0.000 A 
ATOM      5  C   UNL     1       7.740   5.993  19.393  0.00  0.00    +0.000 A 
ATOM      6  C   UNL     1       8.337   7.096  18.772  0.00  0.00    +0.000 A 
ATOM      7  C   UNL     1       7.835   7.566  17.558  0.00  0.00    +0.000 A 
ATOM      8  C   UNL     1       6.743   6.930  16.967  0.00  0.00    +0.000 A 
ATOM      9  C   UNL     1       6.147   5.834  17.605  0.00  0.00    +0.000 A 
ATOM     10  C   UNL     1       4.990   5.137  17.019  0.00  0.00    +0.000 A 
ATOM     11  O   UNL     1       4.573   5.500  15.921  0.00  0.00    +0.000 OA
ATOM     12  N   UNL     1       4.445   4.082  17.760  0.00  0.00    +0.000 N 
ENDROOT
BRANCH  12  13
ATOM     13  C   UNL     1       3.307   3.368  17.146  0.00  0.00    +0.000 C 
BRANCH  13  14
ATOM     14  C   UNL     1       1.931   3.971  17.478  0.00  0.00    +0.000 C 
BRANCH  14  15
ATOM     15  C   UNL     1       1.885   5.096  18.494  0.00  0.00    +0.000 A 
ATOM     16  C   UNL     1       2.126   6.443  18.189  0.00  0.00    +0.000 A 
ATOM     17  C   UNL     1       2.116   7.418  19.193  0.00  0.00    +0.000 A 
ATOM     18  C   UNL     1       1.860   7.052  20.509  0.00  0.00    +0.000 A 
ATOM     19  C   UNL     1       1.594   5.730  20.834  0.00  0.00    +0.000 A 
ATOM     20  C   UNL     1       1.610   4.757  19.832  0.00  0.00    +0.000 A 
BRANCH  18  21
ATOM     21  O   UNL     1       1.870   7.966  21.519  0.00  0.00    +0.000 OA
ATOM     22  H   UNL     1       1.012   7.931  21.974  0.00  0.00    +0.000 HD
ENDBRANCH  18  21
ENDBRANCH  14  15
ENDBRANCH  13  14
ENDBRANCH  12  13
TORSDOF 4
ENDMDL
MODEL 5
REMARK VINA RESULT:      -7.5      2.421      6.545
REMARK  Name = 
REMARK  5 active torsions:
REMARK  status: ('A' for Active; 'I' for Inactive)
REMARK    1  A    between atoms: C_1  and  C_2
REMARK    2  A    between atoms: N_12  and  C_13
REMARK    3  A    between atoms: C_13  and  C_14
REMARK    4  A    between atoms: C_14  and  C_15
REMARK    5  A    between atoms: C_18  and  O_19
REMARK                            x       y       z     vdW  Elec       q    Type
REMARK                         _______ _______ _______ _____ _____    ______ ____
ROOT
ATOM      1  C   UNL     1       3.920   7.091  17.257  0.00  0.00    +0.000 C 
ATOM      2  C   UNL     1       3.542   5.769  17.875  0.00  0.00    +0.000 A 
ATOM      3  N   UNL     1       2.824   5.828  18.953  0.00  0.00    +0.000 NA
ATOM      4  C   UNL     1       2.458   4.644  19.596  0.00  0.00    +0.000 A 
ATOM      5  C   UNL     1       1.693   4.721  20.761  0.00  0.00    +0.000 A 
ATOM      6  C   UNL     1       1.336   3.561  21.457  0.00  0.00    +0.000 A 
ATOM      7  C   UNL     1       1.733   2.313  20.976  0.00  0.00    +0.000 A 
ATOM      8  C   UNL     1       2.481   2.229  19.802  0.00  0.00    +0.000 A 
ATOM      9  C   UNL     1       2.842   3.398  19.121  0.00  0.00    +0.000 A 
ATOM     10  C   UNL     1       3.634   3.356  17.880  0.00  0.00    +0.000 A 
ATOM     11  O   UNL     1       3.940   2.261  17.410  0.00  0.00    +0.000 OA
ATOM     12  N   UNL     1       3.975   4.585  17.305  0.00  0.00    +0.000 N 
ENDROOT
BRANCH  12  13
ATOM     13  C   UNL     1       4.740   4.528  16.042  0.00  0.00    +0.000 C 
BRANCH  13  14
ATOM     14  C   UNL     1       6.255   4.338  16.231  0.00  0.00    +0.000 C 
BRANCH  14  15
ATOM     15  C   UNL     1       6.990   5.359  17.078  0.00  0.00    +0.000 A 
ATOM     16  C   UNL     1       7.485   5.103  18.365  0.00  0.00    +0.000 A 
ATOM     17  C   UNL     1       8.109   6.115  19.106  0.00  0.00    +0.000 A 
ATOM     18  C   UNL     1       8.245   7.386  18.561  0.00  0.00    +0.000 A 
ATOM     19  C   UNL     1       7.786   7.657  17.281  0.00  0.00    +0.000 A 
ATOM     20  C   UNL     1       7.159   6.650  16.545  0.00  0.00    +0.000 A 
BRANCH  18  21
ATOM     21  O   UNL     1       8.820   8.404  19.261  0.00  0.00    +0.000 OA
ATOM     22  H   UNL     1       8.791   8.181  20.207  0.00  0.00    +0.000 HD
ENDBRANCH  18  21
ENDBRANCH  14  15
ENDBRANCH  13  14
ENDBRANCH  12  13
TORSDOF 4
ENDMDL
MODEL 6
REMARK VINA RESULT:      -7.5      3.012      4.236
REMARK  Name = 
REMARK  5 active torsions:
REMARK  status: ('A' for Active; 'I' for Inactive)
REMARK    1  A    between atoms: C_1  and  C_2
REMARK    2  A    between atoms: N_12  and  C_13
REMARK    3  A    between atoms: C_13  and  C_14
REMARK    4  A    between atoms: C_14  and  C_15
REMARK    5  A    between atoms: C_18  and  O_19
REMARK                            x       y       z     vdW  Elec       q    Type
REMARK                         _______ _______ _______ _____ _____    ______ ____
ROOT
ATOM      1  C   UNL     1       4.435   2.595  19.626  0.00  0.00    +0.000 C 
ATOM      2  C   UNL     1       5.034   3.761  18.882  0.00  0.00    +0.000 A 
ATOM      3  N   UNL     1       6.079   4.307  19.424  0.00  0.00    +0.000 NA
ATOM      4  C   UNL     1       6.672   5.409  18.805  0.00  0.00    +0.000 A 
ATOM      5  C   UNL     1       7.789   5.994  19.403  0.00  0.00    +0.000 A 
ATOM      6  C   UNL     1       8.391   7.122  18.836  0.00  0.00    +0.000 A 
ATOM      7  C   UNL     1       7.882   7.661  17.653  0.00  0.00    +0.000 A 
ATOM      8  C   UNL     1       6.778   7.068  17.041  0.00  0.00    +0.000 A 
ATOM      9  C   UNL     1       6.177   5.946  17.625  0.00  0.00    +0.000 A 
ATOM     10  C   UNL     1       5.007   5.292  17.015  0.00  0.00    +0.000 A 
ATOM     11  O   UNL     1       4.584   5.717  15.942  0.00  0.00    +0.000 OA
ATOM     12  N   UNL     1       4.459   4.204  17.705  0.00  0.00    +0.000 N 
ENDROOT
BRANCH  12  13
ATOM     13  C   UNL     1       3.308   3.535  17.065  0.00  0.00    +0.000 C 
BRANCH  13  14
ATOM     14  C   UNL     1       1.939   4.094  17.489  0.00  0.00    +0.000 C 
BRANCH  14  15
ATOM     15  C   UNL     1       1.915   5.118  18.608  0.00  0.00    +0.000 A 
ATOM     16  C   UNL     1       1.633   4.814  19.947  0.00  0.00    +0.000 A 
ATOM     17  C   UNL     1       1.579   5.824  20.915  0.00  0.00    +0.000 A 
ATOM     18  C   UNL     1       1.812   7.144  20.549  0.00  0.00    +0.000 A 
ATOM     19  C   UNL     1       2.117   7.468  19.235  0.00  0.00    +0.000 A 
ATOM     20  C   UNL     1       2.165   6.461  18.270  0.00  0.00    +0.000 A 
BRANCH  18  21
ATOM     21  O   UNL     1       1.740   8.160  21.455  0.00  0.00    +0.000 OA
ATOM     22  H   UNL     1       1.750   7.776  22.348  0.00  0.00    +0.000 HD
ENDBRANCH  18  21
ENDBRANCH  14  15
ENDBRANCH  13  14
ENDBRANCH  12  13
TORSDOF 4
ENDMDL
MODEL 7
REMARK VINA RESULT:      -7.5      1.195      1.398
REMARK  Name = 
REMARK  5 active torsions:
REMARK  status: ('A' for Active; 'I' for Inactive)
REMARK    1  A    between atoms: C_1  and  C_2
REMARK    2  A    between atoms: N_12  and  C_13
REMARK    3  A    between atoms: C_13  and  C_14
REMARK    4  A    between atoms: C_14  and  C_15
REMARK    5  A    between atoms: C_18  and  O_19
REMARK                            x       y       z     vdW  Elec       q    Type
REMARK                         _______ _______ _______ _____ _____    ______ ____
ROOT
ATOM      1  C   UNL     1       7.639   7.050  17.444  0.00  0.00    +0.000 C 
ATOM      2  C   UNL     1       6.974   6.111  16.470  0.00  0.00    +0.000 A 
ATOM      3  N   UNL     1       7.603   5.907  15.355  0.00  0.00    +0.000 NA
ATOM      4  C   UNL     1       7.035   5.070  14.393  0.00  0.00    +0.000 A 
ATOM      5  C   UNL     1       7.716   4.866  13.192  0.00  0.00    +0.000 A 
ATOM      6  C   UNL     1       7.165   4.064  12.187  0.00  0.00    +0.000 A 
ATOM      7  C   UNL     1       5.929   3.449  12.389  0.00  0.00    +0.000 A 
ATOM      8  C   UNL     1       5.252   3.633  13.595  0.00  0.00    +0.000 A 
ATOM      9  C   UNL     1       5.810   4.448  14.589  0.00  0.00    +0.000 A 
ATOM     10  C   UNL     1       5.128   4.673  15.874  0.00  0.00    +0.000 A 
ATOM     11  O   UNL     1       4.067   4.090  16.093  0.00  0.00    +0.000 OA
ATOM     12  N   UNL     1       5.753   5.539  16.779  0.00  0.00    +0.000 N 
ENDROOT
BRANCH  12  13
ATOM     13  C   UNL     1       5.076   5.730  18.079  0.00  0.00    +0.000 C 
BRANCH  13  14
ATOM     14  C   UNL     1       5.356   4.618  19.104  0.00  0.00    +0.000 C 
BRANCH  14  15
ATOM     15  C   UNL     1       4.170   4.033  19.847  0.00  0.00    +0.000 A 
ATOM     16  C   UNL     1       4.051   2.681  20.200  0.00  0.00    +0.000 A 
ATOM     17  C   UNL     1       2.899   2.207  20.840  0.00  0.00    +0.000 A 
ATOM     18  C   UNL     1       1.863   3.084  21.135  0.00  0.00    +0.000 A 
ATOM     19  C   UNL     1       1.967   4.431  20.820  0.00  0.00    +0.000 A 
ATOM     20  C   UNL     1       3.113   4.902  20.176  0.00  0.00    +0.000 A 
BRANCH  18  21
ATOM     21  O   UNL     1       0.714   2.657  21.732  0.00  0.00    +0.000 OA
ATOM     22  H   UNL     1       0.826   1.724  21.979  0.00  0.00    +0.000 HD
ENDBRANCH  18  21
ENDBRANCH  14  15
ENDBRANCH  13  14
ENDBRANCH  12  13
TORSDOF 4
ENDMDL
MODEL 8
REMARK VINA RESULT:      -7.3      2.435      6.606
REMARK  Name = 
REMARK  5 active torsions:
REMARK  status: ('A' for Active; 'I' for Inactive)
REMARK    1  A    between atoms: C_1  and  C_2
REMARK    2  A    between atoms: N_12  and  C_13
REMARK    3  A    between atoms: C_13  and  C_14
REMARK    4  A    between atoms: C_14  and  C_15
REMARK    5  A    between atoms: C_18  and  O_19
REMARK                            x       y       z     vdW  Elec       q    Type
REMARK                         _______ _______ _______ _____ _____    ______ ____
ROOT
ATOM      1  C   UNL     1       3.920   6.973  16.990  0.00  0.00    +0.000 C 
ATOM      2  C   UNL     1       3.542   5.684  17.674  0.00  0.00    +0.000 A 
ATOM      3  N   UNL     1       2.738   5.790  18.687  0.00  0.00    +0.000 NA
ATOM      4  C   UNL     1       2.365   4.641  19.386  0.00  0.00    +0.000 A 
ATOM      5  C   UNL     1       1.509   4.770  20.481  0.00  0.00    +0.000 A 
ATOM      6  C   UNL     1       1.140   3.648  21.232  0.00  0.00    +0.000 A 
ATOM      7  C   UNL     1       1.618   2.387  20.877  0.00  0.00    +0.000 A 
ATOM      8  C   UNL     1       2.459   2.250  19.772  0.00  0.00    +0.000 A 
ATOM      9  C   UNL     1       2.830   3.382  19.036  0.00  0.00    +0.000 A 
ATOM     10  C   UNL     1       3.718   3.284  17.866  0.00  0.00    +0.000 A 
ATOM     11  O   UNL     1       4.100   2.172  17.503  0.00  0.00    +0.000 OA
ATOM     12  N   UNL     1       4.060   4.482  17.228  0.00  0.00    +0.000 N 
ENDROOT
BRANCH  12  13
ATOM     13  C   UNL     1       4.924   4.367  16.035  0.00  0.00    +0.000 C 
BRANCH  13  14
ATOM     14  C   UNL     1       6.429   4.307  16.349  0.00  0.00    +0.000 C 
BRANCH  14  15
ATOM     15  C   UNL     1       7.037   5.480  17.095  0.00  0.00    +0.000 A 
ATOM     16  C   UNL     1       7.153   6.773  16.568  0.00  0.00    +0.000 A 
ATOM     17  C   UNL     1       7.775   7.792  17.301  0.00  0.00    +0.000 A 
ATOM     18  C   UNL     1       8.277   7.523  18.568  0.00  0.00    +0.000 A 
ATOM     19  C   UNL     1       8.152   6.258  19.122  0.00  0.00    +0.000 A 
ATOM     20  C   UNL     1       7.538   5.241  18.389  0.00  0.00    +0.000 A 
BRANCH  18  21
ATOM     21  O   UNL     1       8.914   8.480  19.300  0.00  0.00    +0.000 OA
ATOM     22  H   UNL     1       9.612   8.052  19.823  0.00  0.00    +0.000 HD
ENDBRANCH  18  21
ENDBRANCH  14  15
ENDBRANCH  13  14
ENDBRANCH  12  13
TORSDOF 4
ENDMDL
MODEL 9
REMARK VINA RESULT:      -7.3      2.468      2.785
REMARK  Name = 
REMARK  5 active torsions:
REMARK  status: ('A' for Active; 'I' for Inactive)
REMARK    1  A    between atoms: C_1  and  C_2
REMARK    2  A    between atoms: N_12  and  C_13
REMARK    3  A    between atoms: C_13  and  C_14
REMARK    4  A    between atoms: C_14  and  C_15
REMARK    5  A    between atoms: C_18  and  O_19
REMARK                            x       y       z     vdW  Elec       q    Type
REMARK                         _______ _______ _______ _____ _____    ______ ____
ROOT
ATOM      1  C   UNL     1       7.492   6.828  17.897  0.00  0.00    +0.000 C 
ATOM      2  C   UNL     1       6.898   5.915  16.854  0.00  0.00    +0.000 A 
ATOM      3  N   UNL     1       7.502   5.891  15.707  0.00  0.00    +0.000 NA
ATOM      4  C   UNL     1       6.994   5.089  14.683  0.00  0.00    +0.000 A 
ATOM      5  C   UNL     1       7.647   5.080  13.450  0.00  0.00    +0.000 A 
ATOM      6  C   UNL     1       7.150   4.319  12.387  0.00  0.00    +0.000 A 
ATOM      7  C   UNL     1       5.999   3.550  12.561  0.00  0.00    +0.000 A 
ATOM      8  C   UNL     1       5.353   3.541  13.797  0.00  0.00    +0.000 A 
ATOM      9  C   UNL     1       5.854   4.316  14.851  0.00  0.00    +0.000 A 
ATOM     10  C   UNL     1       5.202   4.339  16.170  0.00  0.00    +0.000 A 
ATOM     11  O   UNL     1       4.221   3.620  16.359  0.00  0.00    +0.000 OA
ATOM     12  N   UNL     1       5.761   5.180  17.138  0.00  0.00    +0.000 N 
ENDROOT
BRANCH  12  13
ATOM     13  C   UNL     1       5.118   5.169  18.469  0.00  0.00    +0.000 C 
BRANCH  13  14
ATOM     14  C   UNL     1       3.581   5.219  18.426  0.00  0.00    +0.000 C 
BRANCH  14  15
ATOM     15  C   UNL     1       2.914   6.549  18.724  0.00  0.00    +0.000 A 
ATOM     16  C   UNL     1       2.282   6.859  19.936  0.00  0.00    +0.000 A 
ATOM     17  C   UNL     1       1.644   8.092  20.116  0.00  0.00    +0.000 A 
ATOM     18  C   UNL     1       1.638   9.024  19.086  0.00  0.00    +0.000 A 
ATOM     19  C   UNL     1       2.278   8.752  17.886  0.00  0.00    +0.000 A 
ATOM     20  C   UNL     1       2.909   7.520  17.704  0.00  0.00    +0.000 A 
BRANCH  18  21
ATOM     21  O   UNL     1       1.003  10.223  19.211  0.00  0.00    +0.000 OA
ATOM     22  H   UNL     1       1.048  10.499  20.142  0.00  0.00    +0.000 HD
ENDBRANCH  18  21
ENDBRANCH  14  15
ENDBRANCH  13  14
ENDBRANCH  12  13
TORSDOF 4
ENDMDL
