MODEL 1
REMARK VINA RESULT:      -9.2      0.000      0.000
REMARK  Name = 
REMARK  7 active torsions:
REMARK  status: ('A' for Active; 'I' for Inactive)
REMARK    1  A    between atoms: C_1  and  O_2
REMARK    2  A    between atoms: O_2  and  C_3
REMARK    3  A    between atoms: C_6  and  N_7
REMARK    4  A    between atoms: C_9  and  C_10
REMARK    5  A    between atoms: C_13  and  N_14
REMARK    6  A    between atoms: C_16  and  C_17
REMARK    7  A    between atoms: C_22  and  C_23
REMARK                            x       y       z     vdW  Elec       q    Type
REMARK                         _______ _______ _______ _____ _____    ______ ____
ROOT
ATOM      1  C   UNL     1       1.340   9.217  19.451  0.00  0.00    +0.000 A 
ATOM      2  C   UNL     1       1.762   9.211  18.113  0.00  0.00    +0.000 A 
ATOM      3  C   UNL     1       2.501   8.140  17.605  0.00  0.00    +0.000 A 
ATOM      4  C   UNL     1       2.790   7.038  18.418  0.00  0.00    +0.000 A 
ATOM      5  C   UNL     1       2.381   7.037  19.755  0.00  0.00    +0.000 A 
ATOM      6  C   UNL     1       1.658   8.121  20.263  0.00  0.00    +0.000 A 
ENDROOT
BRANCH   1   9
ATOM      7  N   UNL     1      -0.863  11.611  20.986  0.00  0.00    +0.000 N 
ATOM      8  C   UNL     1      -0.564  10.298  20.706  0.00  0.00    +0.000 A 
ATOM      9  C   UNL     1       0.623  10.345  20.017  0.00  0.00    +0.000 A 
ATOM     10  N   UNL     1       1.030  11.647  19.916  0.00  0.00    +0.000 NA
ATOM     11  N   UNL     1       0.118  12.409  20.505  0.00  0.00    +0.000 NA
BRANCH   7  15
ATOM     12  C   UNL     1      -4.242  13.130  23.010  0.00  0.00    +0.000 A 
ATOM     13  C   UNL     1      -4.055  13.407  21.656  0.00  0.00    +0.000 A 
ATOM     14  C   UNL     1      -2.943  12.907  20.975  0.00  0.00    +0.000 A 
ATOM     15  C   UNL     1      -1.997  12.132  21.658  0.00  0.00    +0.000 A 
ATOM     16  C   UNL     1      -2.173  11.873  23.024  0.00  0.00    +0.000 A 
ATOM     17  C   UNL     1      -3.292  12.376  23.696  0.00  0.00    +0.000 A 
BRANCH  12  19
ATOM     18  C   UNL     1      -6.332  12.748  24.038  0.00  0.00    +0.000 C 
ATOM     19  O   UNL     1      -5.366  13.679  23.563  0.00  0.00    +0.000 OA
ENDBRANCH  12  19
ENDBRANCH   7  15
ENDBRANCH   1   9
BRANCH   4  20
ATOM     20  N   UNL     1       3.543   5.967  17.872  0.00  0.00    +0.000 N 
ATOM     21  N   UNL     1       4.783   6.236  17.380  0.00  0.00    +0.000 NA
ATOM     22  C   UNL     1       5.366   5.038  17.192  0.00  0.00    +0.000 A 
ATOM     23  C   UNL     1       4.425   4.003  17.398  0.00  0.00    +0.000 A 
ATOM     24  C   UNL     1       3.249   4.628  17.770  0.00  0.00    +0.000 A 
BRANCH  22  25
ATOM     25  C   UNL     1       6.804   4.866  16.776  0.00  0.00    +0.000 C 
ATOM     26  F   UNL     1       7.424   6.028  16.446  0.00  0.00    +0.000 F 
ATOM     27  F   UNL     1       7.539   4.299  17.771  0.00  0.00    +0.000 F 
ATOM     28  F   UNL     1       6.915   4.038  15.701  0.00  0.00    +0.000 F 
ENDBRANCH  22  25
BRANCH  24  29
ATOM     29  C   UNL     1       1.909   4.042  17.942  0.00  0.00    +0.000 C 
ATOM     30  F   UNL     1       1.434   4.061  19.207  0.00  0.00    +0.000 F 
ATOM     31  F   UNL     1       0.996   4.710  17.191  0.00  0.00    +0.000 F 
ATOM     32  F   UNL     1       1.884   2.752  17.524  0.00  0.00    +0.000 F 
ENDBRANCH  24  29
ENDBRANCH   4  20
TORSDOF 6
ENDMDL
MODEL 2
REMARK VINA RESULT:      -9.2      0.439      1.325
REMARK  Name = 
REMARK  7 active torsions:
REMARK  status: ('A' for Active; 'I' for Inactive)
REMARK    1  A    between atoms: C_1  and  O_2
REMARK    2  A    between atoms: O_2  and  C_3
REMARK    3  A    between atoms: C_6  and  N_7
REMARK    4  A    between atoms: C_9  and  C_10
REMARK    5  A    between atoms: C_13  and  N_14
REMARK    6  A    between atoms: C_16  and  C_17
REMARK    7  A    between atoms: C_22  and  C_23
REMARK                            x       y       z     vdW  Elec       q    Type
REMARK                         _______ _______ _______ _____ _____    ______ ____
ROOT
ATOM      1  C   UNL     1       1.360   9.204  19.378  0.00  0.00    +0.000 A 
ATOM      2  C   UNL     1       1.833   9.204  18.057  0.00  0.00    +0.000 A 
ATOM      3  C   UNL     1       2.604   8.144  17.577  0.00  0.00    +0.000 A 
ATOM      4  C   UNL     1       2.876   7.044  18.400  0.00  0.00    +0.000 A 
ATOM      5  C   UNL     1       2.415   7.036  19.721  0.00  0.00    +0.000 A 
ATOM      6  C   UNL     1       1.660   8.111  20.201  0.00  0.00    +0.000 A 
ENDROOT
BRANCH   1   9
ATOM      7  N   UNL     1      -0.888  11.558  20.910  0.00  0.00    +0.000 N 
ATOM      8  C   UNL     1      -0.515  10.250  20.705  0.00  0.00    +0.000 A 
ATOM      9  C   UNL     1       0.608  10.322  19.916  0.00  0.00    +0.000 A 
ATOM     10  N   UNL     1       0.908  11.637  19.684  0.00  0.00    +0.000 NA
ATOM     11  N   UNL     1      -0.009  12.380  20.290  0.00  0.00    +0.000 NA
BRANCH   7  15
ATOM     12  C   UNL     1      -4.204  13.065  23.044  0.00  0.00    +0.000 A 
ATOM     13  C   UNL     1      -3.222  12.328  23.706  0.00  0.00    +0.000 A 
ATOM     14  C   UNL     1      -2.119  11.827  23.011  0.00  0.00    +0.000 A 
ATOM     15  C   UNL     1      -2.001  12.053  21.634  0.00  0.00    +0.000 A 
ATOM     16  C   UNL     1      -2.999  12.775  20.964  0.00  0.00    +0.000 A 
ATOM     17  C   UNL     1      -4.098  13.275  21.670  0.00  0.00    +0.000 A 
BRANCH  12  19
ATOM     18  C   UNL     1      -5.590  14.867  23.679  0.00  0.00    +0.000 C 
ATOM     19  O   UNL     1      -5.234  13.497  23.832  0.00  0.00    +0.000 OA
ENDBRANCH  12  19
ENDBRANCH   7  15
ENDBRANCH   1   9
BRANCH   4  20
ATOM     20  N   UNL     1       3.662   5.983  17.883  0.00  0.00    +0.000 N 
ATOM     21  N   UNL     1       4.921   6.265  17.449  0.00  0.00    +0.000 NA
ATOM     22  C   UNL     1       5.522   5.074  17.281  0.00  0.00    +0.000 A 
ATOM     23  C   UNL     1       4.582   4.030  17.438  0.00  0.00    +0.000 A 
ATOM     24  C   UNL     1       3.385   4.642  17.760  0.00  0.00    +0.000 A 
BRANCH  22  25
ATOM     25  C   UNL     1       6.979   4.916  16.930  0.00  0.00    +0.000 C 
ATOM     26  F   UNL     1       7.196   4.223  15.783  0.00  0.00    +0.000 F 
ATOM     27  F   UNL     1       7.581   6.127  16.776  0.00  0.00    +0.000 F 
ATOM     28  F   UNL     1       7.661   4.274  17.917  0.00  0.00    +0.000 F 
ENDBRANCH  22  25
BRANCH  24  29
ATOM     29  C   UNL     1       2.044   4.043  17.866  0.00  0.00    +0.000 C 
ATOM     30  F   UNL     1       1.068   4.706  17.206  0.00  0.00    +0.000 F 
ATOM     31  F   UNL     1       2.042   2.781  17.365  0.00  0.00    +0.000 F 
ATOM     32  F   UNL     1       1.655   3.945  19.161  0.00  0.00    +0.000 F 
ENDBRANCH  24  29
ENDBRANCH   4  20
TORSDOF 6
ENDMDL
MODEL 3
REMARK VINA RESULT:      -9.2      1.048      1.652
REMARK  Name = 
REMARK  7 active torsions:
REMARK  status: ('A' for Active; 'I' for Inactive)
REMARK    1  A    between atoms: C_1  and  O_2
REMARK    2  A    between atoms: O_2  and  C_3
REMARK    3  A    between atoms: C_6  and  N_7
REMARK    4  A    between atoms: C_9  and  C_10
REMARK    5  A    between atoms: C_13  and  N_14
REMARK    6  A    between atoms: C_16  and  C_17
REMARK    7  A    between atoms: C_22  and  C_23
REMARK                            x       y       z     vdW  Elec       q    Type
REMARK                         _______ _______ _______ _____ _____    ______ ____
ROOT
ATOM      1  C   UNL     1       1.456   8.331  20.297  0.00  0.00    +0.000 A 
ATOM      2  C   UNL     1       1.847   8.650  18.988  0.00  0.00    +0.000 A 
ATOM      3  C   UNL     1       2.607   7.754  18.234  0.00  0.00    +0.000 A 
ATOM      4  C   UNL     1       2.949   6.504  18.764  0.00  0.00    +0.000 A 
ATOM      5  C   UNL     1       2.571   6.177  20.070  0.00  0.00    +0.000 A 
ATOM      6  C   UNL     1       1.827   7.088  20.827  0.00  0.00    +0.000 A 
ENDROOT
BRANCH   1   9
ATOM      7  N   UNL     1      -0.679  10.783  21.837  0.00  0.00    +0.000 N 
ATOM      8  C   UNL     1      -0.372  10.013  20.739  0.00  0.00    +0.000 A 
ATOM      9  C   UNL     1       0.718   9.270  21.121  0.00  0.00    +0.000 A 
ATOM     10  N   UNL     1       1.031   9.570  22.419  0.00  0.00    +0.000 NA
ATOM     11  N   UNL     1       0.178  10.493  22.844  0.00  0.00    +0.000 NA
BRANCH   7  15
ATOM     12  C   UNL     1      -3.714  13.692  22.225  0.00  0.00    +0.000 A 
ATOM     13  C   UNL     1      -3.369  12.890  23.313  0.00  0.00    +0.000 A 
ATOM     14  C   UNL     1      -2.365  11.927  23.197  0.00  0.00    +0.000 A 
ATOM     15  C   UNL     1      -1.704  11.751  21.975  0.00  0.00    +0.000 A 
ATOM     16  C   UNL     1      -2.065  12.541  20.875  0.00  0.00    +0.000 A 
ATOM     17  C   UNL     1      -3.071  13.505  21.001  0.00  0.00    +0.000 A 
BRANCH  12  19
ATOM     18  C   UNL     1      -5.536  14.315  23.590  0.00  0.00    +0.000 C 
ATOM     19  O   UNL     1      -4.713  14.594  22.462  0.00  0.00    +0.000 OA
ENDBRANCH  12  19
ENDBRANCH   7  15
ENDBRANCH   1   9
BRANCH   4  20
ATOM     20  N   UNL     1       3.721   5.616  17.972  0.00  0.00    +0.000 N 
ATOM     21  N   UNL     1       4.921   6.052  17.498  0.00  0.00    +0.000 NA
ATOM     22  C   UNL     1       5.548   4.956  17.036  0.00  0.00    +0.000 A 
ATOM     23  C   UNL     1       4.669   3.849  17.055  0.00  0.00    +0.000 A 
ATOM     24  C   UNL     1       3.486   4.314  17.599  0.00  0.00    +0.000 A 
BRANCH  22  25
ATOM     25  C   UNL     1       6.970   4.956  16.535  0.00  0.00    +0.000 C 
ATOM     26  F   UNL     1       7.115   4.423  15.295  0.00  0.00    +0.000 F 
ATOM     27  F   UNL     1       7.470   6.220  16.479  0.00  0.00    +0.000 F 
ATOM     28  F   UNL     1       7.789   4.257  17.366  0.00  0.00    +0.000 F 
ENDBRANCH  22  25
BRANCH  24  29
ATOM     29  C   UNL     1       2.185   3.630  17.696  0.00  0.00    +0.000 C 
ATOM     30  F   UNL     1       1.133   4.332  17.218  0.00  0.00    +0.000 F 
ATOM     31  F   UNL     1       2.204   2.466  16.996  0.00  0.00    +0.000 F 
ATOM     32  F   UNL     1       1.900   3.305  18.980  0.00  0.00    +0.000 F 
ENDBRANCH  24  29
ENDBRANCH   4  20
TORSDOF 6
ENDMDL
MODEL 4
REMARK VINA RESULT:      -9.2      0.279      1.005
REMARK  Name = 
REMARK  7 active torsions:
REMARK  status: ('A' for Active; 'I' for Inactive)
REMARK    1  A    between atoms: C_1  and  O_2
REMARK    2  A    between atoms: O_2  and  C_3
REMARK    3  A    between atoms: C_6  and  N_7
REMARK    4  A    between atoms: C_9  and  C_10
REMARK    5  A    between atoms: C_13  and  N_14
REMARK    6  A    between atoms: C_16  and  C_17
REMARK    7  A    between atoms: C_22  and  C_23
REMARK                            x       y       z     vdW  Elec       q    Type
REMARK                         _______ _______ _______ _____ _____    ______ ____
ROOT
ATOM      1  C   UNL     1       1.268   9.259  19.290  0.00  0.00    +0.000 A 
ATOM      2  C   UNL     1       1.715   9.210  17.960  0.00  0.00    +0.000 A 
ATOM      3  C   UNL     1       2.514   8.155  17.517  0.00  0.00    +0.000 A 
ATOM      4  C   UNL     1       2.841   7.108  18.386  0.00  0.00    +0.000 A 
ATOM      5  C   UNL     1       2.407   7.149  19.715  0.00  0.00    +0.000 A 
ATOM      6  C   UNL     1       1.623   8.220  20.158  0.00  0.00    +0.000 A 
ENDROOT
BRANCH   1   9
ATOM      7  N   UNL     1      -0.996  11.608  20.805  0.00  0.00    +0.000 N 
ATOM      8  C   UNL     1      -0.543  10.314  20.696  0.00  0.00    +0.000 A 
ATOM      9  C   UNL     1       0.486  10.376  19.789  0.00  0.00    +0.000 A 
ATOM     10  N   UNL     1       0.657  11.675  19.393  0.00  0.00    +0.000 NA
ATOM     11  N   UNL     1      -0.251  12.415  20.014  0.00  0.00    +0.000 NA
BRANCH   7  15
ATOM     12  C   UNL     1      -4.187  13.048  23.165  0.00  0.00    +0.000 A 
ATOM     13  C   UNL     1      -4.138  13.338  21.802  0.00  0.00    +0.000 A 
ATOM     14  C   UNL     1      -3.090  12.865  21.011  0.00  0.00    +0.000 A 
ATOM     15  C   UNL     1      -2.068  12.102  21.590  0.00  0.00    +0.000 A 
ATOM     16  C   UNL     1      -2.104  11.830  22.965  0.00  0.00    +0.000 A 
ATOM     17  C   UNL     1      -3.160  12.306  23.748  0.00  0.00    +0.000 A 
BRANCH  12  19
ATOM     18  C   UNL     1      -6.497  12.896  23.627  0.00  0.00    +0.000 C 
ATOM     19  O   UNL     1      -5.260  13.571  23.832  0.00  0.00    +0.000 OA
ENDBRANCH  12  19
ENDBRANCH   7  15
ENDBRANCH   1   9
BRANCH   4  20
ATOM     20  N   UNL     1       3.654   6.051  17.905  0.00  0.00    +0.000 N 
ATOM     21  N   UNL     1       4.912   6.348  17.477  0.00  0.00    +0.000 NA
ATOM     22  C   UNL     1       5.539   5.166  17.346  0.00  0.00    +0.000 A 
ATOM     23  C   UNL     1       4.620   4.107  17.520  0.00  0.00    +0.000 A 
ATOM     24  C   UNL     1       3.407   4.701  17.814  0.00  0.00    +0.000 A 
BRANCH  22  25
ATOM     25  C   UNL     1       7.004   5.030  17.015  0.00  0.00    +0.000 C 
ATOM     26  F   UNL     1       7.716   4.344  17.945  0.00  0.00    +0.000 F 
ATOM     27  F   UNL     1       7.181   4.383  15.830  0.00  0.00    +0.000 F 
ATOM     28  F   UNL     1       7.597   6.246  16.879  0.00  0.00    +0.000 F 
ENDBRANCH  22  25
BRANCH  24  29
ATOM     29  C   UNL     1       2.077   4.078  17.921  0.00  0.00    +0.000 C 
ATOM     30  F   UNL     1       2.006   2.803  17.478  0.00  0.00    +0.000 F 
ATOM     31  F   UNL     1       1.667   4.045  19.216  0.00  0.00    +0.000 F 
ATOM     32  F   UNL     1       1.147   4.791  17.240  0.00  0.00    +0.000 F 
ENDBRANCH  24  29
ENDBRANCH   4  20
TORSDOF 6
ENDMDL
MODEL 5
REMARK VINA RESULT:      -9.1      0.281      1.404
REMARK  Name = 
REMARK  7 active torsions:
REMARK  status: ('A' for Active; 'I' for Inactive)
REMARK    1  A    between atoms: C_1  and  O_2
REMARK    2  A    between atoms: O_2  and  C_3
REMARK    3  A    between atoms: C_6  and  N_7
REMARK    4  A    between atoms: C_9  and  C_10
REMARK    5  A    between atoms: C_13  and  N_14
REMARK    6  A    between atoms: C_16  and  C_17
REMARK    7  A    between atoms: C_22  and  C_23
REMARK                            x       y       z     vdW  Elec       q    Type
REMARK                         _______ _______ _______ _____ _____    ______ ____
ROOT
ATOM      1  C   UNL     1       1.275   9.303  19.344  0.00  0.00    +0.000 A 
ATOM      2  C   UNL     1       1.627   8.233  20.182  0.00  0.00    +0.000 A 
ATOM      3  C   UNL     1       2.378   7.163  19.692  0.00  0.00    +0.000 A 
ATOM      4  C   UNL     1       2.827   7.169  18.366  0.00  0.00    +0.000 A 
ATOM      5  C   UNL     1       2.477   8.226  17.520  0.00  0.00    +0.000 A 
ATOM      6  C   UNL     1       1.707   9.285  18.012  0.00  0.00    +0.000 A 
ENDROOT
BRANCH   1   9
ATOM      7  N   UNL     1      -1.074  11.592  20.821  0.00  0.00    +0.000 N 
ATOM      8  C   UNL     1      -0.549  10.322  20.760  0.00  0.00    +0.000 A 
ATOM      9  C   UNL     1       0.445  10.396  19.815  0.00  0.00    +0.000 A 
ATOM     10  N   UNL     1       0.526  11.681  19.350  0.00  0.00    +0.000 NA
ATOM     11  N   UNL     1      -0.404  12.399  19.966  0.00  0.00    +0.000 NA
BRANCH   7  15
ATOM     12  C   UNL     1      -4.273  13.028  23.172  0.00  0.00    +0.000 A 
ATOM     13  C   UNL     1      -3.229  12.321  23.768  0.00  0.00    +0.000 A 
ATOM     14  C   UNL     1      -2.164  11.844  23.001  0.00  0.00    +0.000 A 
ATOM     15  C   UNL     1      -2.147  12.063  21.618  0.00  0.00    +0.000 A 
ATOM     16  C   UNL     1      -3.208  12.753  21.015  0.00  0.00    +0.000 A 
ATOM     17  C   UNL     1      -4.268  13.230  21.792  0.00  0.00    +0.000 A 
BRANCH  12  19
ATOM     18  C   UNL     1      -6.517  12.795  23.867  0.00  0.00    +0.000 C 
ATOM     19  O   UNL     1      -5.257  13.439  24.027  0.00  0.00    +0.000 OA
ENDBRANCH  12  19
ENDBRANCH   7  15
ENDBRANCH   1   9
BRANCH   4  20
ATOM     20  N   UNL     1       3.589   6.068  17.899  0.00  0.00    +0.000 N 
ATOM     21  N   UNL     1       4.859   6.298  17.468  0.00  0.00    +0.000 NA
ATOM     22  C   UNL     1       5.428   5.085  17.353  0.00  0.00    +0.000 A 
ATOM     23  C   UNL     1       4.459   4.074  17.541  0.00  0.00    +0.000 A 
ATOM     24  C   UNL     1       3.276   4.731  17.826  0.00  0.00    +0.000 A 
BRANCH  22  25
ATOM     25  C   UNL     1       6.885   4.874  17.024  0.00  0.00    +0.000 C 
ATOM     26  F   UNL     1       7.554   6.019  16.735  0.00  0.00    +0.000 F 
ATOM     27  F   UNL     1       7.542   4.287  18.061  0.00  0.00    +0.000 F 
ATOM     28  F   UNL     1       7.037   4.045  15.956  0.00  0.00    +0.000 F 
ENDBRANCH  22  25
BRANCH  24  29
ATOM     29  C   UNL     1       1.918   4.173  17.941  0.00  0.00    +0.000 C 
ATOM     30  F   UNL     1       0.974   4.812  17.213  0.00  0.00    +0.000 F 
ATOM     31  F   UNL     1       1.895   2.880  17.527  0.00  0.00    +0.000 F 
ATOM     32  F   UNL     1       1.499   4.174  19.230  0.00  0.00    +0.000 F 
ENDBRANCH  24  29
ENDBRANCH   4  20
TORSDOF 6
ENDMDL
MODEL 6
REMARK VINA RESULT:      -9.1      1.071      1.491
REMARK  Name = 
REMARK  7 active torsions:
REMARK  status: ('A' for Active; 'I' for Inactive)
REMARK    1  A    between atoms: C_1  and  O_2
REMARK    2  A    between atoms: O_2  and  C_3
REMARK    3  A    between atoms: C_6  and  N_7
REMARK    4  A    between atoms: C_9  and  C_10
REMARK    5  A    between atoms: C_13  and  N_14
REMARK    6  A    between atoms: C_16  and  C_17
REMARK    7  A    between atoms: C_22  and  C_23
REMARK                            x       y       z     vdW  Elec       q    Type
REMARK                         _______ _______ _______ _____ _____    ______ ____
ROOT
ATOM      1  C   UNL     1       1.424   8.388  20.229  0.00  0.00    +0.000 A 
ATOM      2  C   UNL     1       1.823   8.692  18.919  0.00  0.00    +0.000 A 
ATOM      3  C   UNL     1       2.588   7.788  18.180  0.00  0.00    +0.000 A 
ATOM      4  C   UNL     1       2.928   6.545  18.726  0.00  0.00    +0.000 A 
ATOM      5  C   UNL     1       2.542   6.233  20.034  0.00  0.00    +0.000 A 
ATOM      6  C   UNL     1       1.792   7.152  20.775  0.00  0.00    +0.000 A 
ENDROOT
BRANCH   1   9
ATOM      7  N   UNL     1      -0.709  10.870  21.722  0.00  0.00    +0.000 N 
ATOM      8  C   UNL     1      -0.385  10.102  20.628  0.00  0.00    +0.000 A 
ATOM      9  C   UNL     1       0.679   9.335  21.037  0.00  0.00    +0.000 A 
ATOM     10  N   UNL     1       0.958   9.620  22.346  0.00  0.00    +0.000 NA
ATOM     11  N   UNL     1       0.111  10.557  22.752  0.00  0.00    +0.000 NA
BRANCH   7  15
ATOM     12  C   UNL     1      -3.737  13.789  22.089  0.00  0.00    +0.000 A 
ATOM     13  C   UNL     1      -3.107  13.585  20.862  0.00  0.00    +0.000 A 
ATOM     14  C   UNL     1      -2.106  12.621  20.728  0.00  0.00    +0.000 A 
ATOM     15  C   UNL     1      -1.719  11.858  21.836  0.00  0.00    +0.000 A 
ATOM     16  C   UNL     1      -2.337  12.078  23.075  0.00  0.00    +0.000 A 
ATOM     17  C   UNL     1      -3.340  13.044  23.199  0.00  0.00    +0.000 A 
BRANCH  12  19
ATOM     18  C   UNL     1      -5.212  15.122  20.817  0.00  0.00    +0.000 C 
ATOM     19  O   UNL     1      -4.697  14.763  22.094  0.00  0.00    +0.000 OA
ENDBRANCH  12  19
ENDBRANCH   7  15
ENDBRANCH   1   9
BRANCH   4  20
ATOM     20  N   UNL     1       3.706   5.649  17.950  0.00  0.00    +0.000 N 
ATOM     21  N   UNL     1       4.904   6.084  17.470  0.00  0.00    +0.000 NA
ATOM     22  C   UNL     1       5.538   4.984  17.026  0.00  0.00    +0.000 A 
ATOM     23  C   UNL     1       4.665   3.873  17.062  0.00  0.00    +0.000 A 
ATOM     24  C   UNL     1       3.479   4.339  17.598  0.00  0.00    +0.000 A 
BRANCH  22  25
ATOM     25  C   UNL     1       6.960   4.985  16.526  0.00  0.00    +0.000 C 
ATOM     26  F   UNL     1       7.818   4.285  17.312  0.00  0.00    +0.000 F 
ATOM     27  F   UNL     1       7.043   4.446  15.279  0.00  0.00    +0.000 F 
ATOM     28  F   UNL     1       7.452   6.249  16.430  0.00  0.00    +0.000 F 
ENDBRANCH  22  25
BRANCH  24  29
ATOM     29  C   UNL     1       2.182   3.650  17.704  0.00  0.00    +0.000 C 
ATOM     30  F   UNL     1       1.803   3.336  18.963  0.00  0.00    +0.000 F 
ATOM     31  F   UNL     1       1.186   4.422  17.197  0.00  0.00    +0.000 F 
ATOM     32  F   UNL     1       2.182   2.499  16.988  0.00  0.00    +0.000 F 
ENDBRANCH  24  29
ENDBRANCH   4  20
TORSDOF 6
ENDMDL
MODEL 7
REMARK VINA RESULT:      -9.1      0.161      1.278
REMARK  Name = 
REMARK  7 active torsions:
REMARK  status: ('A' for Active; 'I' for Inactive)
REMARK    1  A    between atoms: C_1  and  O_2
REMARK    2  A    between atoms: O_2  and  C_3
REMARK    3  A    between atoms: C_6  and  N_7
REMARK    4  A    between atoms: C_9  and  C_10
REMARK    5  A    between atoms: C_13  and  N_14
REMARK    6  A    between atoms: C_16  and  C_17
REMARK    7  A    between atoms: C_22  and  C_23
REMARK                            x       y       z     vdW  Elec       q    Type
REMARK                         _______ _______ _______ _____ _____    ______ ____
ROOT
ATOM      1  C   UNL     1       1.351   9.290  19.426  0.00  0.00    +0.000 A 
ATOM      2  C   UNL     1       1.650   8.174  20.222  0.00  0.00    +0.000 A 
ATOM      3  C   UNL     1       2.353   7.090  19.693  0.00  0.00    +0.000 A 
ATOM      4  C   UNL     1       2.808   7.127  18.370  0.00  0.00    +0.000 A 
ATOM      5  C   UNL     1       2.511   8.231  17.564  0.00  0.00    +0.000 A 
ATOM      6  C   UNL     1       1.788   9.305  18.095  0.00  0.00    +0.000 A 
ENDROOT
BRANCH   1   9
ATOM      7  N   UNL     1      -0.970  11.625  20.875  0.00  0.00    +0.000 N 
ATOM      8  C   UNL     1      -0.580  10.321  20.683  0.00  0.00    +0.000 A 
ATOM      9  C   UNL     1       0.571  10.402  19.937  0.00  0.00    +0.000 A 
ATOM     10  N   UNL     1       0.870  11.719  19.717  0.00  0.00    +0.000 NA
ATOM     11  N   UNL     1      -0.075  12.455  20.289  0.00  0.00    +0.000 NA
BRANCH   7  15
ATOM     12  C   UNL     1      -4.374  13.042  22.932  0.00  0.00    +0.000 A 
ATOM     13  C   UNL     1      -4.241  13.265  21.562  0.00  0.00    +0.000 A 
ATOM     14  C   UNL     1      -3.121  12.799  20.870  0.00  0.00    +0.000 A 
ATOM     15  C   UNL     1      -2.113  12.111  21.558  0.00  0.00    +0.000 A 
ATOM     16  C   UNL     1      -2.235  11.907  22.939  0.00  0.00    +0.000 A 
ATOM     17  C   UNL     1      -3.362  12.375  23.622  0.00  0.00    +0.000 A 
BRANCH  12  19
ATOM     18  C   UNL     1      -6.332  12.607  24.175  0.00  0.00    +0.000 C 
ATOM     19  O   UNL     1      -5.511  13.550  23.495  0.00  0.00    +0.000 OA
ENDBRANCH  12  19
ENDBRANCH   7  15
ENDBRANCH   1   9
BRANCH   4  20
ATOM     20  N   UNL     1       3.520   6.010  17.862  0.00  0.00    +0.000 N 
ATOM     21  N   UNL     1       4.782   6.209  17.394  0.00  0.00    +0.000 NA
ATOM     22  C   UNL     1       5.310   4.981  17.242  0.00  0.00    +0.000 A 
ATOM     23  C   UNL     1       4.316   3.997  17.446  0.00  0.00    +0.000 A 
ATOM     24  C   UNL     1       3.164   4.685  17.779  0.00  0.00    +0.000 A 
BRANCH  22  25
ATOM     25  C   UNL     1       6.748   4.731  16.864  0.00  0.00    +0.000 C 
ATOM     26  F   UNL     1       7.506   4.245  17.879  0.00  0.00    +0.000 F 
ATOM     27  F   UNL     1       6.839   3.835  15.843  0.00  0.00    +0.000 F 
ATOM     28  F   UNL     1       7.351   5.870  16.427  0.00  0.00    +0.000 F 
ENDBRANCH  22  25
BRANCH  24  29
ATOM     29  C   UNL     1       1.793   4.167  17.930  0.00  0.00    +0.000 C 
ATOM     30  F   UNL     1       0.863   4.784  17.167  0.00  0.00    +0.000 F 
ATOM     31  F   UNL     1       1.739   2.852  17.593  0.00  0.00    +0.000 F 
ATOM     32  F   UNL     1       1.379   4.254  19.217  0.00  0.00    +0.000 F 
ENDBRANCH  24  29
ENDBRANCH   4  20
TORSDOF 6
ENDMDL
MODEL 8
REMARK VINA RESULT:      -9.1      1.348      2.074
REMARK  Name = 
REMARK  7 active torsions:
REMARK  status: ('A' for Active; 'I' for Inactive)
REMARK    1  A    between atoms: C_1  and  O_2
REMARK    2  A    between atoms: O_2  and  C_3
REMARK    3  A    between atoms: C_6  and  N_7
REMARK    4  A    between atoms: C_9  and  C_10
REMARK    5  A    between atoms: C_13  and  N_14
REMARK    6  A    between atoms: C_16  and  C_17
REMARK    7  A    between atoms: C_22  and  C_23
REMARK                            x       y       z     vdW  Elec       q    Type
REMARK                         _______ _______ _______ _____ _____    ______ ____
ROOT
ATOM      1  C   UNL     1       1.038   9.185  19.490  0.00  0.00    +0.000 A 
ATOM      2  C   UNL     1       1.480   8.154  20.332  0.00  0.00    +0.000 A 
ATOM      3  C   UNL     1       2.316   7.147  19.845  0.00  0.00    +0.000 A 
ATOM      4  C   UNL     1       2.759   7.182  18.518  0.00  0.00    +0.000 A 
ATOM      5  C   UNL     1       2.319   8.202  17.667  0.00  0.00    +0.000 A 
ATOM      6  C   UNL     1       1.466   9.196  18.156  0.00  0.00    +0.000 A 
ENDROOT
BRANCH   1   9
ATOM      7  N   UNL     1      -0.958  11.656  21.178  0.00  0.00    +0.000 N 
ATOM      8  C   UNL     1       0.120  10.802  21.196  0.00  0.00    +0.000 A 
ATOM      9  C   UNL     1       0.122  10.209  19.957  0.00  0.00    +0.000 A 
ATOM     10  N   UNL     1      -0.909  10.718  19.215  0.00  0.00    +0.000 NA
ATOM     11  N   UNL     1      -1.562  11.595  19.968  0.00  0.00    +0.000 NA
BRANCH   7  15
ATOM     12  C   UNL     1      -2.413  14.153  24.256  0.00  0.00    +0.000 A 
ATOM     13  C   UNL     1      -1.181  14.422  23.660  0.00  0.00    +0.000 A 
ATOM     14  C   UNL     1      -0.692  13.605  22.639  0.00  0.00    +0.000 A 
ATOM     15  C   UNL     1      -1.434  12.496  22.215  0.00  0.00    +0.000 A 
ATOM     16  C   UNL     1      -2.662  12.212  22.830  0.00  0.00    +0.000 A 
ATOM     17  C   UNL     1      -3.145  13.037  23.850  0.00  0.00    +0.000 A 
BRANCH  12  19
ATOM     18  C   UNL     1      -1.710  15.644  25.944  0.00  0.00    +0.000 C 
ATOM     19  O   UNL     1      -2.782  15.021  25.245  0.00  0.00    +0.000 OA
ENDBRANCH  12  19
ENDBRANCH   7  15
ENDBRANCH   1   9
BRANCH   4  20
ATOM     20  N   UNL     1       3.607   6.145  18.055  0.00  0.00    +0.000 N 
ATOM     21  N   UNL     1       4.882   6.464  17.699  0.00  0.00    +0.000 NA
ATOM     22  C   UNL     1       5.528   5.292  17.573  0.00  0.00    +0.000 A 
ATOM     23  C   UNL     1       4.613   4.220  17.675  0.00  0.00    +0.000 A 
ATOM     24  C   UNL     1       3.380   4.796  17.919  0.00  0.00    +0.000 A 
BRANCH  22  25
ATOM     25  C   UNL     1       7.009   5.178  17.314  0.00  0.00    +0.000 C 
ATOM     26  F   UNL     1       7.736   4.856  18.415  0.00  0.00    +0.000 F 
ATOM     27  F   UNL     1       7.273   4.226  16.378  0.00  0.00    +0.000 F 
ATOM     28  F   UNL     1       7.519   6.343  16.829  0.00  0.00    +0.000 F 
ENDBRANCH  22  25
BRANCH  24  29
ATOM     29  C   UNL     1       2.053   4.156  17.944  0.00  0.00    +0.000 C 
ATOM     30  F   UNL     1       2.027   2.877  17.508  0.00  0.00    +0.000 F 
ATOM     31  F   UNL     1       1.559   4.129  19.209  0.00  0.00    +0.000 F 
ATOM     32  F   UNL     1       1.163   4.853  17.197  0.00  0.00    +0.000 F 
ENDBRANCH  24  29
ENDBRANCH   4  20
TORSDOF 6
ENDMDL
MODEL 9
REMARK VINA RESULT:      -9.0      1.233      1.724
REMARK  Name = 
REMARK  7 active torsions:
REMARK  status: ('A' for Active; 'I' for Inactive)
REMARK    1  A    between atoms: C_1  and  O_2
REMARK    2  A    between atoms: O_2  and  C_3
REMARK    3  A    between atoms: C_6  and  N_7
REMARK    4  A    between atoms: C_9  and  C_10
REMARK    5  A    between atoms: C_13  and  N_14
REMARK    6  A    between atoms: C_16  and  C_17
REMARK    7  A    between atoms: C_22  and  C_23
REMARK                            x       y       z     vdW  Elec       q    Type
REMARK                         _______ _______ _______ _____ _____    ______ ____
ROOT
ATOM      1  C   UNL     1       1.065   9.310  19.350  0.00  0.00    +0.000 A 
ATOM      2  C   UNL     1       1.535   9.266  18.028  0.00  0.00    +0.000 A 
ATOM      3  C   UNL     1       2.380   8.237  17.607  0.00  0.00    +0.000 A 
ATOM      4  C   UNL     1       2.732   7.212  18.492  0.00  0.00    +0.000 A 
ATOM      5  C   UNL     1       2.276   7.249  19.814  0.00  0.00    +0.000 A 
ATOM      6  C   UNL     1       1.446   8.293  20.234  0.00  0.00    +0.000 A 
ENDROOT
BRANCH   1   9
ATOM      7  N   UNL     1      -0.864  11.807  21.077  0.00  0.00    +0.000 N 
ATOM      8  C   UNL     1       0.034  10.767  21.134  0.00  0.00    +0.000 A 
ATOM      9  C   UNL     1       0.235  10.401  19.825  0.00  0.00    +0.000 A 
ATOM     10  N   UNL     1      -0.503  11.219  19.013  0.00  0.00    +0.000 NA
ATOM     11  N   UNL     1      -1.170  12.069  19.784  0.00  0.00    +0.000 NA
BRANCH   7  15
ATOM     12  C   UNL     1      -2.599  13.980  24.253  0.00  0.00    +0.000 A 
ATOM     13  C   UNL     1      -1.330  14.319  23.784  0.00  0.00    +0.000 A 
ATOM     14  C   UNL     1      -0.747  13.609  22.733  0.00  0.00    +0.000 A 
ATOM     15  C   UNL     1      -1.435  12.538  22.148  0.00  0.00    +0.000 A 
ATOM     16  C   UNL     1      -2.701  12.183  22.634  0.00  0.00    +0.000 A 
ATOM     17  C   UNL     1      -3.277  12.901  23.687  0.00  0.00    +0.000 A 
BRANCH  12  19
ATOM     18  C   UNL     1      -3.579  16.020  24.924  0.00  0.00    +0.000 C 
ATOM     19  O   UNL     1      -3.058  14.746  25.288  0.00  0.00    +0.000 OA
ENDBRANCH  12  19
ENDBRANCH   7  15
ENDBRANCH   1   9
BRANCH   4  20
ATOM     20  N   UNL     1       3.592   6.181  18.034  0.00  0.00    +0.000 N 
ATOM     21  N   UNL     1       4.862   6.514  17.674  0.00  0.00    +0.000 NA
ATOM     22  C   UNL     1       5.522   5.348  17.554  0.00  0.00    +0.000 A 
ATOM     23  C   UNL     1       4.620   4.266  17.666  0.00  0.00    +0.000 A 
ATOM     24  C   UNL     1       3.381   4.828  17.909  0.00  0.00    +0.000 A 
BRANCH  22  25
ATOM     25  C   UNL     1       7.004   5.251  17.293  0.00  0.00    +0.000 C 
ATOM     26  F   UNL     1       7.333   4.361  16.322  0.00  0.00    +0.000 F 
ATOM     27  F   UNL     1       7.516   6.453  16.912  0.00  0.00    +0.000 F 
ATOM     28  F   UNL     1       7.682   4.884  18.413  0.00  0.00    +0.000 F 
ENDBRANCH  22  25
BRANCH  24  29
ATOM     29  C   UNL     1       2.062   4.173  17.941  0.00  0.00    +0.000 C 
ATOM     30  F   UNL     1       1.100   4.790  17.220  0.00  0.00    +0.000 F 
ATOM     31  F   UNL     1       2.144   2.910  17.449  0.00  0.00    +0.000 F 
ATOM     32  F   UNL     1       1.603   4.064  19.212  0.00  0.00    +0.000 F 
ENDBRANCH  24  29
ENDBRANCH   4  20
TORSDOF 6
ENDMDL
