MODEL 1
REMARK VINA RESULT:      -8.6      0.000      0.000
REMARK  Name = 
REMARK  11 active torsions:
REMARK  status: ('A' for Active; 'I' for Inactive)
REMARK    1  A    between atoms: C_1  and  C_2
REMARK    2  A    between atoms: C_5  and  C_6
REMARK    3  A    between atoms: C_9  and  C_10
REMARK    4  A    between atoms: N_12  and  C_13
REMARK    5  A    between atoms: C_13  and  C_14
REMARK    6  A    between atoms: C_13  and  C_16
REMARK    7  A    between atoms: C_14  and  O_15
REMARK    8  A    between atoms: C_16  and  C_17
REMARK    9  A    between atoms: C_16  and  C_18
REMARK   10  A    between atoms: C_20  and  C_21
REMARK   11  A    between atoms: C_24  and  C_25
REMARK                            x       y       z     vdW  Elec       q    Type
REMARK                         _______ _______ _______ _____ _____    ______ ____
ROOT
ATOM      1  C   UNK A   0       3.479   6.912  17.564  0.00  0.00    +0.000 A 
ATOM      2  N   UNK A   1       4.082   7.538  16.509  0.00  0.00    +0.000 NA
ATOM      3  C   UNK A   1       4.947   6.811  15.763  0.00  0.00    +0.000 A 
ATOM      4  C   UNK A   1       5.236   5.489  16.053  0.00  0.00    +0.000 A 
ATOM      5  N   UNK A   1       4.642   4.826  17.077  0.00  0.00    +0.000 NA
ATOM      6  C   UNK A   0       3.736   5.538  17.822  0.00  0.00    +0.000 A 
ENDROOT
BRANCH   1  11
ATOM      7  C   UNK A   0      -0.175  10.299  20.608  0.00  0.00    +0.000 C 
ATOM      8  C   UNK A   0       0.777   9.451  19.818  0.00  0.00    +0.000 A 
ATOM      9  C   UNK A   0       1.075   9.733  18.484  0.00  0.00    +0.000 A 
ATOM     10  C   UNK A   0       1.961   8.915  17.765  0.00  0.00    +0.000 A 
ATOM     11  C   UNK A   0       2.587   7.801  18.358  0.00  0.00    +0.000 A 
ATOM     12  C   UNK A   0       2.316   7.578  19.721  0.00  0.00    +0.000 A 
ATOM     13  C   UNK A   0       1.396   8.359  20.428  0.00  0.00    +0.000 A 
ENDBRANCH   1  11
BRANCH   6  14
ATOM     14  C   UNK A   0       3.057   4.707  18.848  0.00  0.00    +0.000 A 
ATOM     15  C   UNK A   0       3.744   4.282  20.001  0.00  0.00    +0.000 A 
ATOM     16  C   UNK A   0       3.119   3.500  20.979  0.00  0.00    +0.000 A 
ATOM     17  C   UNK A   0       1.776   3.137  20.842  0.00  0.00    +0.000 A 
ATOM     18  C   UNK A   0       1.084   2.291  21.865  0.00  0.00    +0.000 C 
ATOM     19  C   UNK A   0       1.077   3.556  19.715  0.00  0.00    +0.000 A 
ATOM     20  C   UNK A   0       1.720   4.286  18.712  0.00  0.00    +0.000 A 
ENDBRANCH   6  14
BRANCH   4  21
ATOM     21  C   UNK A   1       6.210   4.732  15.208  0.00  0.00    +0.000 C 
ATOM     22  O   UNK A   1       7.337   4.485  15.611  0.00  0.00    +0.000 OA
ATOM     23  N   UNK A   1       5.735   4.356  13.961  0.00  0.00    +0.000 N 
ATOM     24  H   UNK A   1       4.810   4.674  13.709  0.00  0.00    +0.000 HD
BRANCH  23  25
ATOM     25  C   UNK A   1       6.583   3.677  12.967  0.00  0.00    +0.000 C 
BRANCH  25  26
ATOM     26  C   UNK A   1       5.757   2.627  12.169  0.00  0.00    +0.000 C 
ATOM     27  C   UNK A   1       4.566   3.261  11.437  0.00  0.00    +0.000 C 
ATOM     28  C   UNK A   1       6.631   1.906  11.134  0.00  0.00    +0.000 C 
ENDBRANCH  25  26
BRANCH  25  29
ATOM     29  C   UNK A   1       7.260   4.730  12.065  0.00  0.00    +0.000 C 
BRANCH  29  30
ATOM     30  O   UNK A   1       8.098   5.597  12.830  0.00  0.00    +0.000 OA
ATOM     31  H   UNK A   1       8.647   6.078  12.183  0.00  0.00    +0.000 HD
ENDBRANCH  29  30
ENDBRANCH  25  29
ENDBRANCH  23  25
ENDBRANCH   4  21
TORSDOF 7
ENDMDL
MODEL 2
REMARK VINA RESULT:      -8.5      0.100      1.264
REMARK  Name = 
REMARK  11 active torsions:
REMARK  status: ('A' for Active; 'I' for Inactive)
REMARK    1  A    between atoms: C_1  and  C_2
REMARK    2  A    between atoms: C_5  and  C_6
REMARK    3  A    between atoms: C_9  and  C_10
REMARK    4  A    between atoms: N_12  and  C_13
REMARK    5  A    between atoms: C_13  and  C_14
REMARK    6  A    between atoms: C_13  and  C_16
REMARK    7  A    between atoms: C_14  and  O_15
REMARK    8  A    between atoms: C_16  and  C_17
REMARK    9  A    between atoms: C_16  and  C_18
REMARK   10  A    between atoms: C_20  and  C_21
REMARK   11  A    between atoms: C_24  and  C_25
REMARK                            x       y       z     vdW  Elec       q    Type
REMARK                         _______ _______ _______ _____ _____    ______ ____
ROOT
ATOM      1  C   UNK A   0       3.411   6.935  17.564  0.00  0.00    +0.000 A 
ATOM      2  N   UNK A   1       4.006   7.568  16.508  0.00  0.00    +0.000 NA
ATOM      3  C   UNK A   1       4.898   6.859  15.777  0.00  0.00    +0.000 A 
ATOM      4  C   UNK A   1       5.220   5.548  16.081  0.00  0.00    +0.000 A 
ATOM      5  N   UNK A   1       4.635   4.878  17.106  0.00  0.00    +0.000 NA
ATOM      6  C   UNK A   0       3.704   5.571  17.837  0.00  0.00    +0.000 A 
ENDROOT
BRANCH   1  11
ATOM      7  C   UNK A   0      -0.054  10.454  20.678  0.00  0.00    +0.000 C 
ATOM      8  C   UNK A   0       0.822   9.529  19.887  0.00  0.00    +0.000 A 
ATOM      9  C   UNK A   0       1.423   8.412  20.470  0.00  0.00    +0.000 A 
ATOM     10  C   UNK A   0       2.248   7.569  19.709  0.00  0.00    +0.000 A 
ATOM     11  C   UNK A   0       2.487   7.806  18.341  0.00  0.00    +0.000 A 
ATOM     12  C   UNK A   0       1.819   8.903  17.765  0.00  0.00    +0.000 A 
ATOM     13  C   UNK A   0       1.037   9.774  18.531  0.00  0.00    +0.000 A 
ENDBRANCH   1  11
BRANCH   6  14
ATOM     14  C   UNK A   0       3.038   4.731  18.864  0.00  0.00    +0.000 A 
ATOM     15  C   UNK A   0       1.717   4.281  18.683  0.00  0.00    +0.000 A 
ATOM     16  C   UNK A   0       1.075   3.487  19.640  0.00  0.00    +0.000 A 
ATOM     17  C   UNK A   0       1.748   3.100  20.802  0.00  0.00    +0.000 A 
ATOM     18  C   UNK A   0       1.084   2.262  21.850  0.00  0.00    +0.000 C 
ATOM     19  C   UNK A   0       3.058   3.525  20.995  0.00  0.00    +0.000 A 
ATOM     20  C   UNK A   0       3.675   4.367  20.067  0.00  0.00    +0.000 A 
ENDBRANCH   6  14
BRANCH   4  21
ATOM     21  C   UNK A   1       6.222   4.810  15.253  0.00  0.00    +0.000 C 
ATOM     22  O   UNK A   1       7.350   4.591  15.670  0.00  0.00    +0.000 OA
ATOM     23  N   UNK A   1       5.773   4.418  14.001  0.00  0.00    +0.000 N 
ATOM     24  H   UNK A   1       4.844   4.713  13.736  0.00  0.00    +0.000 HD
BRANCH  23  25
ATOM     25  C   UNK A   1       6.649   3.754  13.021  0.00  0.00    +0.000 C 
BRANCH  25  26
ATOM     26  C   UNK A   1       5.860   2.678  12.222  0.00  0.00    +0.000 C 
ATOM     27  C   UNK A   1       4.629   3.266  11.517  0.00  0.00    +0.000 C 
ATOM     28  C   UNK A   1       6.749   2.012  11.163  0.00  0.00    +0.000 C 
ENDBRANCH  25  26
BRANCH  25  29
ATOM     29  C   UNK A   1       7.308   4.819  12.119  0.00  0.00    +0.000 C 
BRANCH  29  30
ATOM     30  O   UNK A   1       8.184   5.658  12.873  0.00  0.00    +0.000 OA
ATOM     31  H   UNK A   1       9.083   5.469  12.546  0.00  0.00    +0.000 HD
ENDBRANCH  29  30
ENDBRANCH  25  29
ENDBRANCH  23  25
ENDBRANCH   4  21
TORSDOF 7
ENDMDL
MODEL 3
REMARK VINA RESULT:      -7.3      6.564     12.033
REMARK  Name = 
REMARK  11 active torsions:
REMARK  status: ('A' for Active; 'I' for Inactive)
REMARK    1  A    between atoms: C_1  and  C_2
REMARK    2  A    between atoms: C_5  and  C_6
REMARK    3  A    between atoms: C_9  and  C_10
REMARK    4  A    between atoms: N_12  and  C_13
REMARK    5  A    between atoms: C_13  and  C_14
REMARK    6  A    between atoms: C_13  and  C_16
REMARK    7  A    between atoms: C_14  and  O_15
REMARK    8  A    between atoms: C_16  and  C_17
REMARK    9  A    between atoms: C_16  and  C_18
REMARK   10  A    between atoms: C_20  and  C_21
REMARK   11  A    between atoms: C_24  and  C_25
REMARK                            x       y       z     vdW  Elec       q    Type
REMARK                         _______ _______ _______ _____ _____    ______ ____
ROOT
ATOM      1  C   UNK A   0      -0.199  10.596  20.560  0.00  0.00    +0.000 A 
ATOM      2  N   UNK A   1       0.120  10.831  21.869  0.00  0.00    +0.000 NA
ATOM      3  C   UNK A   1      -0.677  11.679  22.563  0.00  0.00    +0.000 A 
ATOM      4  C   UNK A   1      -1.766  12.305  21.982  0.00  0.00    +0.000 A 
ATOM      5  N   UNK A   1      -2.128  12.079  20.693  0.00  0.00    +0.000 NA
ATOM      6  C   UNK A   0      -1.351  11.198  19.985  0.00  0.00    +0.000 A 
ENDROOT
BRANCH   1  11
ATOM      7  C   UNK A   0       3.413   6.957  17.769  0.00  0.00    +0.000 C 
ATOM      8  C   UNK A   0       2.502   7.892  18.507  0.00  0.00    +0.000 A 
ATOM      9  C   UNK A   0       2.084   7.627  19.812  0.00  0.00    +0.000 A 
ATOM     10  C   UNK A   0       1.221   8.514  20.475  0.00  0.00    +0.000 A 
ATOM     11  C   UNK A   0       0.761   9.697  19.863  0.00  0.00    +0.000 A 
ATOM     12  C   UNK A   0       1.249   9.968  18.571  0.00  0.00    +0.000 A 
ATOM     13  C   UNK A   0       2.068   9.063  17.887  0.00  0.00    +0.000 A 
ENDBRANCH   1  11
BRANCH   6  14
ATOM     14  C   UNK A   0      -1.881  10.930  18.625  0.00  0.00    +0.000 A 
ATOM     15  C   UNK A   0      -1.813  11.911  17.618  0.00  0.00    +0.000 A 
ATOM     16  C   UNK A   0      -2.306  11.675  16.330  0.00  0.00    +0.000 A 
ATOM     17  C   UNK A   0      -2.864  10.436  16.004  0.00  0.00    +0.000 A 
ATOM     18  C   UNK A   0      -3.411  10.157  14.638  0.00  0.00    +0.000 C 
ATOM     19  C   UNK A   0      -2.930   9.449  16.981  0.00  0.00    +0.000 A 
ATOM     20  C   UNK A   0      -2.493   9.708  18.282  0.00  0.00    +0.000 A 
ENDBRANCH   6  14
BRANCH   4  21
ATOM     21  C   UNK A   1      -2.608  13.243  22.785  0.00  0.00    +0.000 C 
ATOM     22  O   UNK A   1      -2.100  14.116  23.474  0.00  0.00    +0.000 OA
ATOM     23  N   UNK A   1      -3.975  13.033  22.689  0.00  0.00    +0.000 N 
ATOM     24  H   UNK A   1      -4.278  12.238  22.143  0.00  0.00    +0.000 HD
BRANCH  23  25
ATOM     25  C   UNK A   1      -4.949  13.808  23.474  0.00  0.00    +0.000 C 
BRANCH  25  26
ATOM     26  C   UNK A   1      -5.665  14.857  22.576  0.00  0.00    +0.000 C 
ATOM     27  C   UNK A   1      -5.819  14.373  21.127  0.00  0.00    +0.000 C 
ATOM     28  C   UNK A   1      -7.060  15.194  23.121  0.00  0.00    +0.000 C 
ENDBRANCH  25  26
BRANCH  25  29
ATOM     29  C   UNK A   1      -5.927  12.843  24.177  0.00  0.00    +0.000 C 
BRANCH  29  30
ATOM     30  O   UNK A   1      -5.230  11.734  24.746  0.00  0.00    +0.000 OA
ATOM     31  H   UNK A   1      -5.505  10.952  24.231  0.00  0.00    +0.000 HD
ENDBRANCH  29  30
ENDBRANCH  25  29
ENDBRANCH  23  25
ENDBRANCH   4  21
TORSDOF 7
ENDMDL
MODEL 4
REMARK VINA RESULT:      -7.2      6.403     11.827
REMARK  Name = 
REMARK  11 active torsions:
REMARK  status: ('A' for Active; 'I' for Inactive)
REMARK    1  A    between atoms: C_1  and  C_2
REMARK    2  A    between atoms: C_5  and  C_6
REMARK    3  A    between atoms: C_9  and  C_10
REMARK    4  A    between atoms: N_12  and  C_13
REMARK    5  A    between atoms: C_13  and  C_14
REMARK    6  A    between atoms: C_13  and  C_16
REMARK    7  A    between atoms: C_14  and  O_15
REMARK    8  A    between atoms: C_16  and  C_17
REMARK    9  A    between atoms: C_16  and  C_18
REMARK   10  A    between atoms: C_20  and  C_21
REMARK   11  A    between atoms: C_24  and  C_25
REMARK                            x       y       z     vdW  Elec       q    Type
REMARK                         _______ _______ _______ _____ _____    ______ ____
ROOT
ATOM      1  C   UNK A   0      -0.056  10.349  20.521  0.00  0.00    +0.000 A 
ATOM      2  N   UNK A   1       0.297  10.519  21.831  0.00  0.00    +0.000 NA
ATOM      3  C   UNK A   1      -0.449  11.372  22.573  0.00  0.00    +0.000 A 
ATOM      4  C   UNK A   1      -1.519  12.067  22.039  0.00  0.00    +0.000 A 
ATOM      5  N   UNK A   1      -1.915  11.908  20.750  0.00  0.00    +0.000 NA
ATOM      6  C   UNK A   0      -1.191  11.022  19.993  0.00  0.00    +0.000 A 
ENDROOT
BRANCH   1  11
ATOM      7  C   UNK A   0       3.651   6.886  17.631  0.00  0.00    +0.000 C 
ATOM      8  C   UNK A   0       2.682   7.775  18.352  0.00  0.00    +0.000 A 
ATOM      9  C   UNK A   0       2.164   8.926  17.758  0.00  0.00    +0.000 A 
ATOM     10  C   UNK A   0       1.267   9.747  18.461  0.00  0.00    +0.000 A 
ATOM     11  C   UNK A   0       0.850   9.437  19.770  0.00  0.00    +0.000 A 
ATOM     12  C   UNK A   0       1.341   8.238  20.320  0.00  0.00    +0.000 A 
ATOM     13  C   UNK A   0       2.273   7.444  19.644  0.00  0.00    +0.000 A 
ENDBRANCH   1  11
BRANCH   6  14
ATOM     14  C   UNK A   0      -1.758  10.831  18.634  0.00  0.00    +0.000 A 
ATOM     15  C   UNK A   0      -1.684  11.856  17.672  0.00  0.00    +0.000 A 
ATOM     16  C   UNK A   0      -2.211  11.692  16.386  0.00  0.00    +0.000 A 
ATOM     17  C   UNK A   0      -2.810  10.485  16.017  0.00  0.00    +0.000 A 
ATOM     18  C   UNK A   0      -3.395  10.284  14.653  0.00  0.00    +0.000 C 
ATOM     19  C   UNK A   0      -2.883   9.456  16.950  0.00  0.00    +0.000 A 
ATOM     20  C   UNK A   0      -2.411   9.644  18.251  0.00  0.00    +0.000 A 
ENDBRANCH   6  14
BRANCH   4  21
ATOM     21  C   UNK A   1      -2.304  13.008  22.894  0.00  0.00    +0.000 C 
ATOM     22  O   UNK A   1      -1.749  13.749  23.693  0.00  0.00    +0.000 OA
ATOM     23  N   UNK A   1      -3.678  12.960  22.713  0.00  0.00    +0.000 N 
ATOM     24  H   UNK A   1      -4.030  12.261  22.074  0.00  0.00    +0.000 HD
BRANCH  23  25
ATOM     25  C   UNK A   1      -4.610  13.757  23.528  0.00  0.00    +0.000 C 
BRANCH  25  26
ATOM     26  C   UNK A   1      -5.252  14.888  22.675  0.00  0.00    +0.000 C 
ATOM     27  C   UNK A   1      -4.477  16.209  22.784  0.00  0.00    +0.000 C 
ATOM     28  C   UNK A   1      -5.325  14.492  21.194  0.00  0.00    +0.000 C 
ENDBRANCH  25  26
BRANCH  25  29
ATOM     29  C   UNK A   1      -5.650  12.821  24.180  0.00  0.00    +0.000 C 
BRANCH  29  30
ATOM     30  O   UNK A   1      -5.036  11.964  25.142  0.00  0.00    +0.000 OA
ATOM     31  H   UNK A   1      -4.490  11.337  24.632  0.00  0.00    +0.000 HD
ENDBRANCH  29  30
ENDBRANCH  25  29
ENDBRANCH  23  25
ENDBRANCH   4  21
TORSDOF 7
ENDMDL
MODEL 5
REMARK VINA RESULT:      -7.1      6.510     12.004
REMARK  Name = 
REMARK  11 active torsions:
REMARK  status: ('A' for Active; 'I' for Inactive)
REMARK    1  A    between atoms: C_1  and  C_2
REMARK    2  A    between atoms: C_5  and  C_6
REMARK    3  A    between atoms: C_9  and  C_10
REMARK    4  A    between atoms: N_12  and  C_13
REMARK    5  A    between atoms: C_13  and  C_14
REMARK    6  A    between atoms: C_13  and  C_16
REMARK    7  A    between atoms: C_14  and  O_15
REMARK    8  A    between atoms: C_16  and  C_17
REMARK    9  A    between atoms: C_16  and  C_18
REMARK   10  A    between atoms: C_20  and  C_21
REMARK   11  A    between atoms: C_24  and  C_25
REMARK                            x       y       z     vdW  Elec       q    Type
REMARK                         _______ _______ _______ _____ _____    ______ ____
ROOT
ATOM      1  C   UNK A   0      -0.153  10.484  20.501  0.00  0.00    +0.000 A 
ATOM      2  N   UNK A   1       0.196  10.700  21.806  0.00  0.00    +0.000 NA
ATOM      3  C   UNK A   1      -0.555  11.575  22.516  0.00  0.00    +0.000 A 
ATOM      4  C   UNK A   1      -1.627  12.247  21.956  0.00  0.00    +0.000 A 
ATOM      5  N   UNK A   1      -2.018  12.043  20.673  0.00  0.00    +0.000 NA
ATOM      6  C   UNK A   0      -1.289  11.134  19.948  0.00  0.00    +0.000 A 
ENDROOT
BRANCH   1  11
ATOM      7  C   UNK A   0       3.576   6.934  17.748  0.00  0.00    +0.000 C 
ATOM      8  C   UNK A   0       2.602   7.845  18.434  0.00  0.00    +0.000 A 
ATOM      9  C   UNK A   0       2.121   9.000  17.816  0.00  0.00    +0.000 A 
ATOM     10  C   UNK A   0       1.219   9.843  18.486  0.00  0.00    +0.000 A 
ATOM     11  C   UNK A   0       0.759   9.550  19.784  0.00  0.00    +0.000 A 
ATOM     12  C   UNK A   0       1.211   8.347  20.358  0.00  0.00    +0.000 A 
ATOM     13  C   UNK A   0       2.149   7.531  19.715  0.00  0.00    +0.000 A 
ENDBRANCH   1  11
BRANCH   6  14
ATOM     14  C   UNK A   0      -1.851  10.895  18.595  0.00  0.00    +0.000 A 
ATOM     15  C   UNK A   0      -2.506   9.687  18.290  0.00  0.00    +0.000 A 
ATOM     16  C   UNK A   0      -3.043   9.445  17.021  0.00  0.00    +0.000 A 
ATOM     17  C   UNK A   0      -2.960  10.419  16.022  0.00  0.00    +0.000 A 
ATOM     18  C   UNK A   0      -3.514  10.185  14.650  0.00  0.00    +0.000 C 
ATOM     19  C   UNK A   0      -2.326  11.624  16.306  0.00  0.00    +0.000 A 
ATOM     20  C   UNK A   0      -1.739  11.838  17.555  0.00  0.00    +0.000 A 
ENDBRANCH   6  14
BRANCH   4  21
ATOM     21  C   UNK A   1      -2.417  13.214  22.777  0.00  0.00    +0.000 C 
ATOM     22  O   UNK A   1      -1.867  14.107  23.405  0.00  0.00    +0.000 OA
ATOM     23  N   UNK A   1      -3.788  13.006  22.770  0.00  0.00    +0.000 N 
ATOM     24  H   UNK A   1      -4.125  12.196  22.269  0.00  0.00    +0.000 HD
BRANCH  23  25
ATOM     25  C   UNK A   1      -4.712  13.811  23.586  0.00  0.00    +0.000 C 
BRANCH  25  26
ATOM     26  C   UNK A   1      -5.419  14.886  22.713  0.00  0.00    +0.000 C 
ATOM     27  C   UNK A   1      -6.659  14.329  21.997  0.00  0.00    +0.000 C 
ATOM     28  C   UNK A   1      -5.853  16.090  23.560  0.00  0.00    +0.000 C 
ENDBRANCH  25  26
BRANCH  25  29
ATOM     29  C   UNK A   1      -5.699  12.876  24.317  0.00  0.00    +0.000 C 
BRANCH  29  30
ATOM     30  O   UNK A   1      -5.056  11.665  24.717  0.00  0.00    +0.000 OA
ATOM     31  H   UNK A   1      -5.030  11.686  25.692  0.00  0.00    +0.000 HD
ENDBRANCH  29  30
ENDBRANCH  25  29
ENDBRANCH  23  25
ENDBRANCH   4  21
TORSDOF 7
ENDMDL
MODEL 6
REMARK VINA RESULT:      -7.1      6.593     12.081
REMARK  Name = 
REMARK  11 active torsions:
REMARK  status: ('A' for Active; 'I' for Inactive)
REMARK    1  A    between atoms: C_1  and  C_2
REMARK    2  A    between atoms: C_5  and  C_6
REMARK    3  A    between atoms: C_9  and  C_10
REMARK    4  A    between atoms: N_12  and  C_13
REMARK    5  A    between atoms: C_13  and  C_14
REMARK    6  A    between atoms: C_13  and  C_16
REMARK    7  A    between atoms: C_14  and  O_15
REMARK    8  A    between atoms: C_16  and  C_17
REMARK    9  A    between atoms: C_16  and  C_18
REMARK   10  A    between atoms: C_20  and  C_21
REMARK   11  A    between atoms: C_24  and  C_25
REMARK                            x       y       z     vdW  Elec       q    Type
REMARK                         _______ _______ _______ _____ _____    ______ ____
ROOT
ATOM      1  C   UNK A   0      -0.179  10.599  20.510  0.00  0.00    +0.000 A 
ATOM      2  N   UNK A   1       0.138  10.835  21.819  0.00  0.00    +0.000 NA
ATOM      3  C   UNK A   1      -0.657  11.686  22.510  0.00  0.00    +0.000 A 
ATOM      4  C   UNK A   1      -1.743  12.315  21.926  0.00  0.00    +0.000 A 
ATOM      5  N   UNK A   1      -2.104  12.088  20.638  0.00  0.00    +0.000 NA
ATOM      6  C   UNK A   0      -1.329  11.203  19.932  0.00  0.00    +0.000 A 
ENDROOT
BRANCH   1  11
ATOM      7  C   UNK A   0       3.425   6.946  17.725  0.00  0.00    +0.000 C 
ATOM      8  C   UNK A   0       2.515   7.884  18.462  0.00  0.00    +0.000 A 
ATOM      9  C   UNK A   0       2.077   7.611  19.758  0.00  0.00    +0.000 A 
ATOM     10  C   UNK A   0       1.216   8.501  20.420  0.00  0.00    +0.000 A 
ATOM     11  C   UNK A   0       0.779   9.696  19.815  0.00  0.00    +0.000 A 
ATOM     12  C   UNK A   0       1.287   9.976  18.533  0.00  0.00    +0.000 A 
ATOM     13  C   UNK A   0       2.104   9.068  17.850  0.00  0.00    +0.000 A 
ENDBRANCH   1  11
BRANCH   6  14
ATOM     14  C   UNK A   0      -1.858  10.935  18.571  0.00  0.00    +0.000 A 
ATOM     15  C   UNK A   0      -2.468   9.704  18.264  0.00  0.00    +0.000 A 
ATOM     16  C   UNK A   0      -2.974   9.435  16.988  0.00  0.00    +0.000 A 
ATOM     17  C   UNK A   0      -2.902  10.403  15.982  0.00  0.00    +0.000 A 
ATOM     18  C   UNK A   0      -3.422  10.139  14.603  0.00  0.00    +0.000 C 
ATOM     19  C   UNK A   0      -2.312  11.629  16.267  0.00  0.00    +0.000 A 
ATOM     20  C   UNK A   0      -1.755  11.872  17.525  0.00  0.00    +0.000 A 
ENDBRANCH   6  14
BRANCH   4  21
ATOM     21  C   UNK A   1      -2.584  13.257  22.727  0.00  0.00    +0.000 C 
ATOM     22  O   UNK A   1      -2.074  14.083  23.470  0.00  0.00    +0.000 OA
ATOM     23  N   UNK A   1      -3.952  13.106  22.563  0.00  0.00    +0.000 N 
ATOM     24  H   UNK A   1      -4.261  12.345  21.974  0.00  0.00    +0.000 HD
BRANCH  23  25
ATOM     25  C   UNK A   1      -4.930  13.892  23.334  0.00  0.00    +0.000 C 
BRANCH  25  26
ATOM     26  C   UNK A   1      -5.765  14.804  22.390  0.00  0.00    +0.000 C 
ATOM     27  C   UNK A   1      -7.099  15.226  23.022  0.00  0.00    +0.000 C 
ATOM     28  C   UNK A   1      -4.987  16.072  22.015  0.00  0.00    +0.000 C 
ENDBRANCH  25  26
BRANCH  25  29
ATOM     29  C   UNK A   1      -5.798  12.939  24.183  0.00  0.00    +0.000 C 
BRANCH  29  30
ATOM     30  O   UNK A   1      -5.013  12.281  25.178  0.00  0.00    +0.000 OA
ATOM     31  H   UNK A   1      -4.104  12.619  25.068  0.00  0.00    +0.000 HD
ENDBRANCH  29  30
ENDBRANCH  25  29
ENDBRANCH  23  25
ENDBRANCH   4  21
TORSDOF 7
ENDMDL
MODEL 7
REMARK VINA RESULT:      -6.8      4.264      8.488
REMARK  Name = 
REMARK  11 active torsions:
REMARK  status: ('A' for Active; 'I' for Inactive)
REMARK    1  A    between atoms: C_1  and  C_2
REMARK    2  A    between atoms: C_5  and  C_6
REMARK    3  A    between atoms: C_9  and  C_10
REMARK    4  A    between atoms: N_12  and  C_13
REMARK    5  A    between atoms: C_13  and  C_14
REMARK    6  A    between atoms: C_13  and  C_16
REMARK    7  A    between atoms: C_14  and  O_15
REMARK    8  A    between atoms: C_16  and  C_17
REMARK    9  A    between atoms: C_16  and  C_18
REMARK   10  A    between atoms: C_20  and  C_21
REMARK   11  A    between atoms: C_24  and  C_25
REMARK                            x       y       z     vdW  Elec       q    Type
REMARK                         _______ _______ _______ _____ _____    ______ ____
ROOT
ATOM      1  C   UNK A   0      -0.050  11.319  21.088  0.00  0.00    +0.000 A 
ATOM      2  N   UNK A   1      -0.015   9.986  21.393  0.00  0.00    +0.000 NA
ATOM      3  C   UNK A   1       0.611   9.162  20.519  0.00  0.00    +0.000 A 
ATOM      4  C   UNK A   1       1.185   9.630  19.350  0.00  0.00    +0.000 A 
ATOM      5  N   UNK A   1       1.191  10.947  19.024  0.00  0.00    +0.000 NA
ATOM      6  C   UNK A   0       0.590  11.801  19.914  0.00  0.00    +0.000 A 
ENDROOT
BRANCH   1  11
ATOM      7  C   UNK A   0      -3.090  14.634  24.810  0.00  0.00    +0.000 C 
ATOM      8  C   UNK A   0      -2.287  13.786  23.869  0.00  0.00    +0.000 A 
ATOM      9  C   UNK A   0      -1.064  14.219  23.356  0.00  0.00    +0.000 A 
ATOM     10  C   UNK A   0      -0.339  13.410  22.467  0.00  0.00    +0.000 A 
ATOM     11  C   UNK A   0      -0.804  12.139  22.076  0.00  0.00    +0.000 A 
ATOM     12  C   UNK A   0      -2.009  11.702  22.658  0.00  0.00    +0.000 A 
ATOM     13  C   UNK A   0      -2.759  12.525  23.504  0.00  0.00    +0.000 A 
ENDBRANCH   1  11
BRANCH   6  14
ATOM     14  C   UNK A   0       0.739  13.228  19.532  0.00  0.00    +0.000 A 
ATOM     15  C   UNK A   0      -0.330  13.932  18.946  0.00  0.00    +0.000 A 
ATOM     16  C   UNK A   0      -0.208  15.278  18.582  0.00  0.00    +0.000 A 
ATOM     17  C   UNK A   0       0.985  15.966  18.813  0.00  0.00    +0.000 A 
ATOM     18  C   UNK A   0       1.150  17.403  18.422  0.00  0.00    +0.000 C 
ATOM     19  C   UNK A   0       2.050  15.291  19.400  0.00  0.00    +0.000 A 
ATOM     20  C   UNK A   0       1.945  13.933  19.708  0.00  0.00    +0.000 A 
ENDBRANCH   6  14
BRANCH   4  21
ATOM     21  C   UNK A   1       1.853   8.679  18.410  0.00  0.00    +0.000 C 
ATOM     22  O   UNK A   1       2.141   9.015  17.270  0.00  0.00    +0.000 OA
ATOM     23  N   UNK A   1       2.099   7.417  18.929  0.00  0.00    +0.000 N 
ATOM     24  H   UNK A   1       1.756   7.232  19.861  0.00  0.00    +0.000 HD
BRANCH  23  25
ATOM     25  C   UNK A   1       2.675   6.331  18.119  0.00  0.00    +0.000 C 
BRANCH  25  26
ATOM     26  C   UNK A   1       4.229   6.379  18.164  0.00  0.00    +0.000 C 
ATOM     27  C   UNK A   1       4.826   5.168  18.895  0.00  0.00    +0.000 C 
ATOM     28  C   UNK A   1       4.823   6.428  16.750  0.00  0.00    +0.000 C 
ENDBRANCH  25  26
BRANCH  25  29
ATOM     29  C   UNK A   1       2.095   4.979  18.588  0.00  0.00    +0.000 C 
BRANCH  29  30
ATOM     30  O   UNK A   1       1.466   4.289  17.507  0.00  0.00    +0.000 OA
ATOM     31  H   UNK A   1       1.349   4.950  16.799  0.00  0.00    +0.000 HD
ENDBRANCH  29  30
ENDBRANCH  25  29
ENDBRANCH  23  25
ENDBRANCH   4  21
TORSDOF 7
ENDMDL
MODEL 8
REMARK VINA RESULT:      -6.8      4.619      8.743
REMARK  Name = 
REMARK  11 active torsions:
REMARK  status: ('A' for Active; 'I' for Inactive)
REMARK    1  A    between atoms: C_1  and  C_2
REMARK    2  A    between atoms: C_5  and  C_6
REMARK    3  A    between atoms: C_9  and  C_10
REMARK    4  A    between atoms: N_12  and  C_13
REMARK    5  A    between atoms: C_13  and  C_14
REMARK    6  A    between atoms: C_13  and  C_16
REMARK    7  A    between atoms: C_14  and  O_15
REMARK    8  A    between atoms: C_16  and  C_17
REMARK    9  A    between atoms: C_16  and  C_18
REMARK   10  A    between atoms: C_20  and  C_21
REMARK   11  A    between atoms: C_24  and  C_25
REMARK                            x       y       z     vdW  Elec       q    Type
REMARK                         _______ _______ _______ _____ _____    ______ ____
ROOT
ATOM      1  C   UNK A   0      -0.371  11.104  21.912  0.00  0.00    +0.000 A 
ATOM      2  N   UNK A   1      -0.486   9.856  22.458  0.00  0.00    +0.000 NA
ATOM      3  C   UNK A   1       0.171   8.843  21.843  0.00  0.00    +0.000 A 
ATOM      4  C   UNK A   1       0.919   9.042  20.697  0.00  0.00    +0.000 A 
ATOM      5  N   UNK A   1       1.076  10.269  20.138  0.00  0.00    +0.000 NA
ATOM      6  C   UNK A   0       0.445  11.312  20.767  0.00  0.00    +0.000 A 
ENDROOT
BRANCH   1  11
ATOM      7  C   UNK A   0      -3.443  15.097  24.863  0.00  0.00    +0.000 C 
ATOM      8  C   UNK A   0      -2.675  14.068  24.088  0.00  0.00    +0.000 A 
ATOM      9  C   UNK A   0      -3.225  12.823  23.780  0.00  0.00    +0.000 A 
ATOM     10  C   UNK A   0      -2.478  11.874  23.063  0.00  0.00    +0.000 A 
ATOM     11  C   UNK A   0      -1.169  12.143  22.620  0.00  0.00    +0.000 A 
ATOM     12  C   UNK A   0      -0.664  13.429  22.890  0.00  0.00    +0.000 A 
ATOM     13  C   UNK A   0      -1.384  14.359  23.647  0.00  0.00    +0.000 A 
ENDBRANCH   1  11
BRANCH   6  14
ATOM     14  C   UNK A   0       0.759  12.627  20.153  0.00  0.00    +0.000 A 
ATOM     15  C   UNK A   0      -0.164  13.263  19.301  0.00  0.00    +0.000 A 
ATOM     16  C   UNK A   0       0.114  14.503  18.716  0.00  0.00    +0.000 A 
ATOM     17  C   UNK A   0       1.320  15.156  18.984  0.00  0.00    +0.000 A 
ATOM     18  C   UNK A   0       1.652  16.477  18.362  0.00  0.00    +0.000 C 
ATOM     19  C   UNK A   0       2.241  14.549  19.831  0.00  0.00    +0.000 A 
ATOM     20  C   UNK A   0       1.986  13.284  20.366  0.00  0.00    +0.000 A 
ENDBRANCH   6  14
BRANCH   4  21
ATOM     21  C   UNK A   1       1.615   7.889  20.047  0.00  0.00    +0.000 C 
ATOM     22  O   UNK A   1       1.957   7.938  18.874  0.00  0.00    +0.000 OA
ATOM     23  N   UNK A   1       1.821   6.791  20.866  0.00  0.00    +0.000 N 
ATOM     24  H   UNK A   1       1.435   6.837  21.799  0.00  0.00    +0.000 HD
BRANCH  23  25
ATOM     25  C   UNK A   1       2.416   5.538  20.371  0.00  0.00    +0.000 C 
BRANCH  25  26
ATOM     26  C   UNK A   1       1.320   4.609  19.776  0.00  0.00    +0.000 C 
ATOM     27  C   UNK A   1       1.614   4.222  18.320  0.00  0.00    +0.000 C 
ATOM     28  C   UNK A   1       1.180   3.321  20.598  0.00  0.00    +0.000 C 
ENDBRANCH  25  26
BRANCH  25  29
ATOM     29  C   UNK A   1       3.543   5.867  19.370  0.00  0.00    +0.000 C 
BRANCH  29  30
ATOM     30  O   UNK A   1       4.811   5.438  19.867  0.00  0.00    +0.000 OA
ATOM     31  H   UNK A   1       5.178   6.198  20.357  0.00  0.00    +0.000 HD
ENDBRANCH  29  30
ENDBRANCH  25  29
ENDBRANCH  23  25
ENDBRANCH   4  21
TORSDOF 7
ENDMDL
MODEL 9
REMARK VINA RESULT:      -6.8      3.842      8.470
REMARK  Name = 
REMARK  11 active torsions:
REMARK  status: ('A' for Active; 'I' for Inactive)
REMARK    1  A    between atoms: C_1  and  C_2
REMARK    2  A    between atoms: C_5  and  C_6
REMARK    3  A    between atoms: C_9  and  C_10
REMARK    4  A    between atoms: N_12  and  C_13
REMARK    5  A    between atoms: C_13  and  C_14
REMARK    6  A    between atoms: C_13  and  C_16
REMARK    7  A    between atoms: C_14  and  O_15
REMARK    8  A    between atoms: C_16  and  C_17
REMARK    9  A    between atoms: C_16  and  C_18
REMARK   10  A    between atoms: C_20  and  C_21
REMARK   11  A    between atoms: C_24  and  C_25
REMARK                            x       y       z     vdW  Elec       q    Type
REMARK                         _______ _______ _______ _____ _____    ______ ____
ROOT
ATOM      1  C   UNK A   0       3.131   7.803  17.913  0.00  0.00    +0.000 A 
ATOM      2  N   UNK A   1       3.161   9.106  17.499  0.00  0.00    +0.000 NA
ATOM      3  C   UNK A   1       2.200   9.934  17.974  0.00  0.00    +0.000 A 
ATOM      4  C   UNK A   1       1.208   9.492  18.832  0.00  0.00    +0.000 A 
ATOM      5  N   UNK A   1       1.158   8.213  19.283  0.00  0.00    +0.000 NA
ATOM      6  C   UNK A   0       2.143   7.369  18.839  0.00  0.00    +0.000 A 
ENDROOT
BRANCH   1  11
ATOM      7  C   UNK A   0       7.157   4.328  15.503  0.00  0.00    +0.000 C 
ATOM      8  C   UNK A   0       6.141   5.230  16.139  0.00  0.00    +0.000 A 
ATOM      9  C   UNK A   0       5.942   5.248  17.520  0.00  0.00    +0.000 A 
ATOM     10  C   UNK A   0       4.976   6.094  18.089  0.00  0.00    +0.000 A 
ATOM     11  C   UNK A   0       4.190   6.955  17.299  0.00  0.00    +0.000 A 
ATOM     12  C   UNK A   0       4.456   6.961  15.917  0.00  0.00    +0.000 A 
ATOM     13  C   UNK A   0       5.381   6.085  15.341  0.00  0.00    +0.000 A 
ENDBRANCH   1  11
BRANCH   6  14
ATOM     14  C   UNK A   0       2.074   6.025  19.465  0.00  0.00    +0.000 A 
ATOM     15  C   UNK A   0       1.795   4.882  18.692  0.00  0.00    +0.000 A 
ATOM     16  C   UNK A   0       1.728   3.608  19.265  0.00  0.00    +0.000 A 
ATOM     17  C   UNK A   0       1.960   3.436  20.632  0.00  0.00    +0.000 A 
ATOM     18  C   UNK A   0       1.883   2.087  21.277  0.00  0.00    +0.000 C 
ATOM     19  C   UNK A   0       2.248   4.551  21.412  0.00  0.00    +0.000 A 
ATOM     20  C   UNK A   0       2.255   5.828  20.848  0.00  0.00    +0.000 A 
ENDBRANCH   6  14
BRANCH   4  21
ATOM     21  C   UNK A   1       0.160  10.441  19.318  0.00  0.00    +0.000 C 
ATOM     22  O   UNK A   1      -0.783  10.759  18.609  0.00  0.00    +0.000 OA
ATOM     23  N   UNK A   1       0.356  10.921  20.604  0.00  0.00    +0.000 N 
ATOM     24  H   UNK A   1       1.207  10.643  21.072  0.00  0.00    +0.000 HD
BRANCH  23  25
ATOM     25  C   UNK A   1      -0.531  11.927  21.214  0.00  0.00    +0.000 C 
BRANCH  25  26
ATOM     26  C   UNK A   1      -0.846  11.555  22.691  0.00  0.00    +0.000 C 
ATOM     27  C   UNK A   1      -2.289  11.904  23.082  0.00  0.00    +0.000 C 
ATOM     28  C   UNK A   1      -0.627  10.057  22.944  0.00  0.00    +0.000 C 
ENDBRANCH  25  26
BRANCH  25  29
ATOM     29  C   UNK A   1       0.100  13.327  21.061  0.00  0.00    +0.000 C 
BRANCH  29  30
ATOM     30  O   UNK A   1       1.407  13.365  21.635  0.00  0.00    +0.000 OA
ATOM     31  H   UNK A   1       1.720  14.283  21.526  0.00  0.00    +0.000 HD
ENDBRANCH  29  30
ENDBRANCH  25  29
ENDBRANCH  23  25
ENDBRANCH   4  21
TORSDOF 7
ENDMDL
