MODEL 1
REMARK VINA RESULT:      -6.8      0.000      0.000
REMARK  Name = 
REMARK  5 active torsions:
REMARK  status: ('A' for Active; 'I' for Inactive)
REMARK    1  A    between atoms: C_1  and  O_2
REMARK    2  A    between atoms: O_2  and  C_3
REMARK    3  A    between atoms: C_6  and  S_7
REMARK    4  A    between atoms: S_7  and  C_10
REMARK    5  A    between atoms: C_13  and  N_14
REMARK                            x       y       z     vdW  Elec       q    Type
REMARK                         _______ _______ _______ _____ _____    ______ ____
ROOT
ATOM      1  S   UNL     1       4.074   3.536  18.523  0.00  0.00    +0.000 S 
ATOM      2  O   UNL     1       4.867   3.064  19.643  0.00  0.00    +0.000 OA
ATOM      3  O   UNL     1       3.097   2.662  17.904  0.00  0.00    +0.000 OA
ENDROOT
BRANCH   1   7
ATOM      4  C   UNL     1       1.933   7.314  19.945  0.00  0.00    +0.000 A 
ATOM      5  C   UNL     1       2.652   7.318  18.746  0.00  0.00    +0.000 A 
ATOM      6  C   UNL     1       3.290   6.160  18.298  0.00  0.00    +0.000 A 
ATOM      7  C   UNL     1       3.216   4.996  19.065  0.00  0.00    +0.000 A 
ATOM      8  C   UNL     1       2.535   4.991  20.284  0.00  0.00    +0.000 A 
ATOM      9  C   UNL     1       1.887   6.151  20.718  0.00  0.00    +0.000 A 
BRANCH   4  11
ATOM     10  C   UNL     1       1.129   8.702  21.678  0.00  0.00    +0.000 C 
ATOM     11  O   UNL     1       1.358   8.508  20.287  0.00  0.00    +0.000 OA
ENDBRANCH   4  11
ENDBRANCH   1   7
BRANCH   1  12
ATOM     12  C   UNL     1       5.209   4.046  17.251  0.00  0.00    +0.000 A 
ATOM     13  C   UNL     1       4.825   3.986  15.910  0.00  0.00    +0.000 A 
ATOM     14  C   UNL     1       5.697   4.459  14.924  0.00  0.00    +0.000 A 
ATOM     15  C   UNL     1       6.918   5.046  15.269  0.00  0.00    +0.000 A 
ATOM     16  C   UNL     1       7.310   5.044  16.611  0.00  0.00    +0.000 A 
ATOM     17  C   UNL     1       6.452   4.569  17.608  0.00  0.00    +0.000 A 
BRANCH  15  18
ATOM     18  N   UNL     1       7.828   5.422  14.275  0.00  0.00    +0.000 N 
ATOM     19  H   UNL     1       7.619   5.036  13.360  0.00  0.00    +0.000 HD
ATOM     20  H   UNL     1       8.001   6.421  14.235  0.00  0.00    +0.000 HD
ENDBRANCH  15  18
ENDBRANCH   1  12
TORSDOF 4
ENDMDL
MODEL 2
REMARK VINA RESULT:      -6.8      0.137      1.146
REMARK  Name = 
REMARK  5 active torsions:
REMARK  status: ('A' for Active; 'I' for Inactive)
REMARK    1  A    between atoms: C_1  and  O_2
REMARK    2  A    between atoms: O_2  and  C_3
REMARK    3  A    between atoms: C_6  and  S_7
REMARK    4  A    between atoms: S_7  and  C_10
REMARK    5  A    between atoms: C_13  and  N_14
REMARK                            x       y       z     vdW  Elec       q    Type
REMARK                         _______ _______ _______ _____ _____    ______ ____
ROOT
ATOM      1  S   UNL     1       4.135   3.644  18.531  0.00  0.00    +0.000 S 
ATOM      2  O   UNL     1       4.979   3.210  19.628  0.00  0.00    +0.000 OA
ATOM      3  O   UNL     1       3.186   2.724  17.935  0.00  0.00    +0.000 OA
ENDROOT
BRANCH   1   7
ATOM      4  C   UNL     1       1.846   7.307  20.023  0.00  0.00    +0.000 A 
ATOM      5  C   UNL     1       2.603   7.376  18.850  0.00  0.00    +0.000 A 
ATOM      6  C   UNL     1       3.287   6.254  18.380  0.00  0.00    +0.000 A 
ATOM      7  C   UNL     1       3.219   5.059  19.098  0.00  0.00    +0.000 A 
ATOM      8  C   UNL     1       2.499   4.988  20.293  0.00  0.00    +0.000 A 
ATOM      9  C   UNL     1       1.807   6.113  20.749  0.00  0.00    +0.000 A 
BRANCH   4  11
ATOM     10  C   UNL     1       1.253   8.765  21.784  0.00  0.00    +0.000 C 
ATOM     11  O   UNL     1       1.228   8.471  20.391  0.00  0.00    +0.000 OA
ENDBRANCH   4  11
ENDBRANCH   1   7
BRANCH   1  12
ATOM     12  C   UNL     1       5.209   4.211  17.230  0.00  0.00    +0.000 A 
ATOM     13  C   UNL     1       6.501   4.647  17.534  0.00  0.00    +0.000 A 
ATOM     14  C   UNL     1       7.361   5.019  16.496  0.00  0.00    +0.000 A 
ATOM     15  C   UNL     1       6.966   4.901  15.160  0.00  0.00    +0.000 A 
ATOM     16  C   UNL     1       5.651   4.519  14.879  0.00  0.00    +0.000 A 
ATOM     17  C   UNL     1       4.777   4.149  15.905  0.00  0.00    +0.000 A 
BRANCH  15  18
ATOM     18  N   UNL     1       7.793   5.371  14.133  0.00  0.00    +0.000 N 
ATOM     19  H   UNL     1       8.781   5.348  14.360  0.00  0.00    +0.000 HD
ATOM     20  H   UNL     1       7.601   4.953  13.229  0.00  0.00    +0.000 HD
ENDBRANCH  15  18
ENDBRANCH   1  12
TORSDOF 4
ENDMDL
MODEL 3
REMARK VINA RESULT:      -6.8      0.491      1.681
REMARK  Name = 
REMARK  5 active torsions:
REMARK  status: ('A' for Active; 'I' for Inactive)
REMARK    1  A    between atoms: C_1  and  O_2
REMARK    2  A    between atoms: O_2  and  C_3
REMARK    3  A    between atoms: C_6  and  S_7
REMARK    4  A    between atoms: S_7  and  C_10
REMARK    5  A    between atoms: C_13  and  N_14
REMARK                            x       y       z     vdW  Elec       q    Type
REMARK                         _______ _______ _______ _____ _____    ______ ____
ROOT
ATOM      1  S   UNL     1       4.116   3.493  18.610  0.00  0.00    +0.000 S 
ATOM      2  O   UNL     1       4.958   2.965  19.668  0.00  0.00    +0.000 OA
ATOM      3  O   UNL     1       3.148   2.636  17.954  0.00  0.00    +0.000 OA
ENDROOT
BRANCH   1   7
ATOM      4  C   UNL     1       1.776   7.032  20.308  0.00  0.00    +0.000 A 
ATOM      5  C   UNL     1       1.704   5.777  20.921  0.00  0.00    +0.000 A 
ATOM      6  C   UNL     1       2.434   4.699  20.417  0.00  0.00    +0.000 A 
ATOM      7  C   UNL     1       3.230   4.879  19.285  0.00  0.00    +0.000 A 
ATOM      8  C   UNL     1       3.278   6.117  18.640  0.00  0.00    +0.000 A 
ATOM      9  C   UNL     1       2.555   7.194  19.160  0.00  0.00    +0.000 A 
BRANCH   4  11
ATOM     10  C   UNL     1       0.980   9.251  20.190  0.00  0.00    +0.000 C 
ATOM     11  O   UNL     1       1.011   8.009  20.883  0.00  0.00    +0.000 OA
ENDBRANCH   4  11
ENDBRANCH   1   7
BRANCH   1  12
ATOM     12  C   UNL     1       5.195   4.134  17.348  0.00  0.00    +0.000 A 
ATOM     13  C   UNL     1       6.470   4.591  17.688  0.00  0.00    +0.000 A 
ATOM     14  C   UNL     1       7.336   5.023  16.677  0.00  0.00    +0.000 A 
ATOM     15  C   UNL     1       6.964   4.943  15.332  0.00  0.00    +0.000 A 
ATOM     16  C   UNL     1       5.664   4.537  15.016  0.00  0.00    +0.000 A 
ATOM     17  C   UNL     1       4.785   4.108  16.015  0.00  0.00    +0.000 A 
BRANCH  15  18
ATOM     18  N   UNL     1       7.793   5.471  14.336  0.00  0.00    +0.000 N 
ATOM     19  H   UNL     1       7.295   5.992  13.622  0.00  0.00    +0.000 HD
ATOM     20  H   UNL     1       8.589   5.987  14.697  0.00  0.00    +0.000 HD
ENDBRANCH  15  18
ENDBRANCH   1  12
TORSDOF 4
ENDMDL
MODEL 4
REMARK VINA RESULT:      -6.8      0.127      1.148
REMARK  Name = 
REMARK  5 active torsions:
REMARK  status: ('A' for Active; 'I' for Inactive)
REMARK    1  A    between atoms: C_1  and  O_2
REMARK    2  A    between atoms: O_2  and  C_3
REMARK    3  A    between atoms: C_6  and  S_7
REMARK    4  A    between atoms: S_7  and  C_10
REMARK    5  A    between atoms: C_13  and  N_14
REMARK                            x       y       z     vdW  Elec       q    Type
REMARK                         _______ _______ _______ _____ _____    ______ ____
ROOT
ATOM      1  S   UNL     1       4.064   3.657  18.581  0.00  0.00    +0.000 S 
ATOM      2  O   UNL     1       4.860   3.183  19.698  0.00  0.00    +0.000 OA
ATOM      3  O   UNL     1       3.057   2.799  17.989  0.00  0.00    +0.000 OA
ENDROOT
BRANCH   1   7
ATOM      4  C   UNL     1       1.908   7.461  19.909  0.00  0.00    +0.000 A 
ATOM      5  C   UNL     1       1.827   6.297  20.680  0.00  0.00    +0.000 A 
ATOM      6  C   UNL     1       2.502   5.139  20.288  0.00  0.00    +0.000 A 
ATOM      7  C   UNL     1       3.251   5.147  19.110  0.00  0.00    +0.000 A 
ATOM      8  C   UNL     1       3.305   6.291  18.311  0.00  0.00    +0.000 A 
ATOM      9  C   UNL     1       2.638   7.450  18.718  0.00  0.00    +0.000 A 
BRANCH   4  11
ATOM     10  C   UNL     1       1.275   8.738  21.791  0.00  0.00    +0.000 C 
ATOM     11  O   UNL     1       1.199   8.529  20.386  0.00  0.00    +0.000 OA
ENDBRANCH   4  11
ENDBRANCH   1   7
BRANCH   1  12
ATOM     12  C   UNL     1       5.194   4.116  17.285  0.00  0.00    +0.000 A 
ATOM     13  C   UNL     1       4.783   4.062  15.951  0.00  0.00    +0.000 A 
ATOM     14  C   UNL     1       5.654   4.497  14.947  0.00  0.00    +0.000 A 
ATOM     15  C   UNL     1       6.902   5.041  15.266  0.00  0.00    +0.000 A 
ATOM     16  C   UNL     1       7.318   5.033  16.601  0.00  0.00    +0.000 A 
ATOM     17  C   UNL     1       6.461   4.597  17.616  0.00  0.00    +0.000 A 
BRANCH  15  18
ATOM     18  N   UNL     1       7.807   5.377  14.253  0.00  0.00    +0.000 N 
ATOM     19  H   UNL     1       8.752   5.543  14.586  0.00  0.00    +0.000 HD
ATOM     20  H   UNL     1       7.790   4.742  13.462  0.00  0.00    +0.000 HD
ENDBRANCH  15  18
ENDBRANCH   1  12
TORSDOF 4
ENDMDL
MODEL 5
REMARK VINA RESULT:      -6.7      2.837      6.147
REMARK  Name = 
REMARK  5 active torsions:
REMARK  status: ('A' for Active; 'I' for Inactive)
REMARK    1  A    between atoms: C_1  and  O_2
REMARK    2  A    between atoms: O_2  and  C_3
REMARK    3  A    between atoms: C_6  and  S_7
REMARK    4  A    between atoms: S_7  and  C_10
REMARK    5  A    between atoms: C_13  and  N_14
REMARK                            x       y       z     vdW  Elec       q    Type
REMARK                         _______ _______ _______ _____ _____    ______ ____
ROOT
ATOM      1  S   UNL     1       4.057   3.451  18.596  0.00  0.00    +0.000 S 
ATOM      2  O   UNL     1       3.121   2.594  17.892  0.00  0.00    +0.000 OA
ATOM      3  O   UNL     1       4.841   2.923  19.695  0.00  0.00    +0.000 OA
ENDROOT
BRANCH   1   7
ATOM      4  C   UNL     1       7.007   5.024  15.481  0.00  0.00    +0.000 A 
ATOM      5  C   UNL     1       5.762   4.524  15.086  0.00  0.00    +0.000 A 
ATOM      6  C   UNL     1       4.850   4.062  16.037  0.00  0.00    +0.000 A 
ATOM      7  C   UNL     1       5.195   4.091  17.389  0.00  0.00    +0.000 A 
ATOM      8  C   UNL     1       6.451   4.549  17.792  0.00  0.00    +0.000 A 
ATOM      9  C   UNL     1       7.353   5.023  16.834  0.00  0.00    +0.000 A 
BRANCH   4  11
ATOM     10  C   UNL     1       7.484   4.947  13.170  0.00  0.00    +0.000 C 
ATOM     11  O   UNL     1       7.820   5.439  14.462  0.00  0.00    +0.000 OA
ENDBRANCH   4  11
ENDBRANCH   1   7
BRANCH   1  12
ATOM     12  C   UNL     1       3.135   4.837  19.223  0.00  0.00    +0.000 A 
ATOM     13  C   UNL     1       2.359   4.694  20.377  0.00  0.00    +0.000 A 
ATOM     14  C   UNL     1       1.699   5.809  20.903  0.00  0.00    +0.000 A 
ATOM     15  C   UNL     1       1.855   7.073  20.326  0.00  0.00    +0.000 A 
ATOM     16  C   UNL     1       2.588   7.185  19.139  0.00  0.00    +0.000 A 
ATOM     17  C   UNL     1       3.249   6.079  18.598  0.00  0.00    +0.000 A 
BRANCH  15  18
ATOM     18  N   UNL     1       1.112   8.162  20.794  0.00  0.00    +0.000 N 
ATOM     19  H   UNL     1       0.277   7.897  21.307  0.00  0.00    +0.000 HD
ATOM     20  H   UNL     1       1.664   8.849  21.296  0.00  0.00    +0.000 HD
ENDBRANCH  15  18
ENDBRANCH   1  12
TORSDOF 4
ENDMDL
MODEL 6
REMARK VINA RESULT:      -6.7      2.779      6.161
REMARK  Name = 
REMARK  5 active torsions:
REMARK  status: ('A' for Active; 'I' for Inactive)
REMARK    1  A    between atoms: C_1  and  O_2
REMARK    2  A    between atoms: O_2  and  C_3
REMARK    3  A    between atoms: C_6  and  S_7
REMARK    4  A    between atoms: S_7  and  C_10
REMARK    5  A    between atoms: C_13  and  N_14
REMARK                            x       y       z     vdW  Elec       q    Type
REMARK                         _______ _______ _______ _____ _____    ______ ____
ROOT
ATOM      1  S   UNL     1       4.111   3.567  18.567  0.00  0.00    +0.000 S 
ATOM      2  O   UNL     1       3.156   2.653  17.968  0.00  0.00    +0.000 OA
ATOM      3  O   UNL     1       4.928   3.135  19.684  0.00  0.00    +0.000 OA
ENDROOT
BRANCH   1   7
ATOM      4  C   UNL     1       6.917   5.002  15.258  0.00  0.00    +0.000 A 
ATOM      5  C   UNL     1       7.300   5.096  16.600  0.00  0.00    +0.000 A 
ATOM      6  C   UNL     1       6.454   4.640  17.612  0.00  0.00    +0.000 A 
ATOM      7  C   UNL     1       5.212   4.097  17.276  0.00  0.00    +0.000 A 
ATOM      8  C   UNL     1       4.802   4.036  15.942  0.00  0.00    +0.000 A 
ATOM      9  C   UNL     1       5.661   4.483  14.934  0.00  0.00    +0.000 A 
BRANCH   4  11
ATOM     10  C   UNL     1       7.682   5.006  13.025  0.00  0.00    +0.000 C 
ATOM     11  O   UNL     1       7.822   5.490  14.356  0.00  0.00    +0.000 OA
ENDBRANCH   4  11
ENDBRANCH   1   7
BRANCH   1  12
ATOM     12  C   UNL     1       3.206   5.003  19.098  0.00  0.00    +0.000 A 
ATOM     13  C   UNL     1       2.453   4.958  20.273  0.00  0.00    +0.000 A 
ATOM     14  C   UNL     1       1.807   6.115  20.720  0.00  0.00    +0.000 A 
ATOM     15  C   UNL     1       1.957   7.328  20.040  0.00  0.00    +0.000 A 
ATOM     16  C   UNL     1       2.666   7.340  18.835  0.00  0.00    +0.000 A 
ATOM     17  C   UNL     1       3.313   6.190  18.372  0.00  0.00    +0.000 A 
BRANCH  15  18
ATOM     18  N   UNL     1       1.226   8.454  20.434  0.00  0.00    +0.000 N 
ATOM     19  H   UNL     1       0.508   8.257  21.123  0.00  0.00    +0.000 HD
ATOM     20  H   UNL     1       1.804   9.244  20.704  0.00  0.00    +0.000 HD
ENDBRANCH  15  18
ENDBRANCH   1  12
TORSDOF 4
ENDMDL
MODEL 7
REMARK VINA RESULT:      -6.7      2.879      6.177
REMARK  Name = 
REMARK  5 active torsions:
REMARK  status: ('A' for Active; 'I' for Inactive)
REMARK    1  A    between atoms: C_1  and  O_2
REMARK    2  A    between atoms: O_2  and  C_3
REMARK    3  A    between atoms: C_6  and  S_7
REMARK    4  A    between atoms: S_7  and  C_10
REMARK    5  A    between atoms: C_13  and  N_14
REMARK                            x       y       z     vdW  Elec       q    Type
REMARK                         _______ _______ _______ _____ _____    ______ ____
ROOT
ATOM      1  S   UNL     1       3.523   3.434  17.846  0.00  0.00    +0.000 S 
ATOM      2  O   UNL     1       2.450   3.099  16.928  0.00  0.00    +0.000 OA
ATOM      3  O   UNL     1       4.065   2.422  18.731  0.00  0.00    +0.000 OA
ENDROOT
BRANCH   1   7
ATOM      4  C   UNL     1       7.002   4.989  15.326  0.00  0.00    +0.000 A 
ATOM      5  C   UNL     1       5.780   4.675  14.725  0.00  0.00    +0.000 A 
ATOM      6  C   UNL     1       4.708   4.219  15.494  0.00  0.00    +0.000 A 
ATOM      7  C   UNL     1       4.869   4.067  16.873  0.00  0.00    +0.000 A 
ATOM      8  C   UNL     1       6.098   4.339  17.478  0.00  0.00    +0.000 A 
ATOM      9  C   UNL     1       7.162   4.808  16.702  0.00  0.00    +0.000 A 
BRANCH   4  11
ATOM     10  C   UNL     1       7.740   5.173  13.090  0.00  0.00    +0.000 C 
ATOM     11  O   UNL     1       7.982   5.417  14.471  0.00  0.00    +0.000 OA
ENDBRANCH   4  11
ENDBRANCH   1   7
BRANCH   1  12
ATOM     12  C   UNL     1       2.947   4.774  18.865  0.00  0.00    +0.000 A 
ATOM     13  C   UNL     1       3.093   6.093  18.431  0.00  0.00    +0.000 A 
ATOM     14  C   UNL     1       2.569   7.133  19.206  0.00  0.00    +0.000 A 
ATOM     15  C   UNL     1       1.849   6.865  20.374  0.00  0.00    +0.000 A 
ATOM     16  C   UNL     1       1.763   5.543  20.822  0.00  0.00    +0.000 A 
ATOM     17  C   UNL     1       2.286   4.493  20.062  0.00  0.00    +0.000 A 
BRANCH  15  18
ATOM     18  N   UNL     1       1.419   7.912  21.196  0.00  0.00    +0.000 N 
ATOM     19  H   UNL     1       2.154   8.311  21.770  0.00  0.00    +0.000 HD
ATOM     20  H   UNL     1       0.889   8.626  20.706  0.00  0.00    +0.000 HD
ENDBRANCH  15  18
ENDBRANCH   1  12
TORSDOF 4
ENDMDL
MODEL 8
REMARK VINA RESULT:      -6.6      2.788      6.156
REMARK  Name = 
REMARK  5 active torsions:
REMARK  status: ('A' for Active; 'I' for Inactive)
REMARK    1  A    between atoms: C_1  and  O_2
REMARK    2  A    between atoms: O_2  and  C_3
REMARK    3  A    between atoms: C_6  and  S_7
REMARK    4  A    between atoms: S_7  and  C_10
REMARK    5  A    between atoms: C_13  and  N_14
REMARK                            x       y       z     vdW  Elec       q    Type
REMARK                         _______ _______ _______ _____ _____    ______ ____
ROOT
ATOM      1  S   UNL     1       4.099   3.574  18.560  0.00  0.00    +0.000 S 
ATOM      2  O   UNL     1       3.078   2.752  17.937  0.00  0.00    +0.000 OA
ATOM      3  O   UNL     1       4.904   3.040  19.641  0.00  0.00    +0.000 OA
ENDROOT
BRANCH   1   7
ATOM      4  C   UNL     1       6.937   4.987  15.270  0.00  0.00    +0.000 A 
ATOM      5  C   UNL     1       7.328   5.039  16.611  0.00  0.00    +0.000 A 
ATOM      6  C   UNL     1       6.472   4.589  17.617  0.00  0.00    +0.000 A 
ATOM      7  C   UNL     1       5.212   4.096  17.276  0.00  0.00    +0.000 A 
ATOM      8  C   UNL     1       4.794   4.077  15.943  0.00  0.00    +0.000 A 
ATOM      9  C   UNL     1       5.663   4.517  14.941  0.00  0.00    +0.000 A 
BRANCH   4  11
ATOM     10  C   UNL     1       7.669   5.045  13.026  0.00  0.00    +0.000 C 
ATOM     11  O   UNL     1       7.854   5.464  14.373  0.00  0.00    +0.000 OA
ENDBRANCH   4  11
ENDBRANCH   1   7
BRANCH   1  12
ATOM     12  C   UNL     1       3.295   5.038  19.174  0.00  0.00    +0.000 A 
ATOM     13  C   UNL     1       3.379   6.233  18.456  0.00  0.00    +0.000 A 
ATOM     14  C   UNL     1       2.682   7.357  18.909  0.00  0.00    +0.000 A 
ATOM     15  C   UNL     1       1.855   7.283  20.034  0.00  0.00    +0.000 A 
ATOM     16  C   UNL     1       1.829   6.095  20.773  0.00  0.00    +0.000 A 
ATOM     17  C   UNL     1       2.525   4.964  20.336  0.00  0.00    +0.000 A 
BRANCH  15  18
ATOM     18  N   UNL     1       1.243   8.434  20.540  0.00  0.00    +0.000 N 
ATOM     19  H   UNL     1       0.931   8.344  21.502  0.00  0.00    +0.000 HD
ATOM     20  H   UNL     1       1.782   9.282  20.394  0.00  0.00    +0.000 HD
ENDBRANCH  15  18
ENDBRANCH   1  12
TORSDOF 4
ENDMDL
MODEL 9
REMARK VINA RESULT:      -6.5      0.970      1.545
REMARK  Name = 
REMARK  5 active torsions:
REMARK  status: ('A' for Active; 'I' for Inactive)
REMARK    1  A    between atoms: C_1  and  O_2
REMARK    2  A    between atoms: O_2  and  C_3
REMARK    3  A    between atoms: C_6  and  S_7
REMARK    4  A    between atoms: S_7  and  C_10
REMARK    5  A    between atoms: C_13  and  N_14
REMARK                            x       y       z     vdW  Elec       q    Type
REMARK                         _______ _______ _______ _____ _____    ______ ____
ROOT
ATOM      1  S   UNL     1       4.516   3.956  18.325  0.00  0.00    +0.000 S 
ATOM      2  O   UNL     1       5.448   3.734  19.414  0.00  0.00    +0.000 OA
ATOM      3  O   UNL     1       3.541   2.938  17.983  0.00  0.00    +0.000 OA
ENDROOT
BRANCH   1   7
ATOM      4  C   UNL     1       2.153   7.758  19.243  0.00  0.00    +0.000 A 
ATOM      5  C   UNL     1       2.119   6.674  20.126  0.00  0.00    +0.000 A 
ATOM      6  C   UNL     1       2.856   5.519  19.859  0.00  0.00    +0.000 A 
ATOM      7  C   UNL     1       3.621   5.447  18.694  0.00  0.00    +0.000 A 
ATOM      8  C   UNL     1       3.631   6.507  17.784  0.00  0.00    +0.000 A 
ATOM      9  C   UNL     1       2.900   7.665  18.066  0.00  0.00    +0.000 A 
BRANCH   4  11
ATOM     10  C   UNL     1       0.960   9.668  18.534  0.00  0.00    +0.000 C 
ATOM     11  O   UNL     1       1.384   8.831  19.604  0.00  0.00    +0.000 OA
ENDBRANCH   4  11
ENDBRANCH   1   7
BRANCH   1  12
ATOM     12  C   UNL     1       5.479   4.278  16.864  0.00  0.00    +0.000 A 
ATOM     13  C   UNL     1       4.920   4.068  15.601  0.00  0.00    +0.000 A 
ATOM     14  C   UNL     1       5.660   4.396  14.460  0.00  0.00    +0.000 A 
ATOM     15  C   UNL     1       6.922   4.986  14.569  0.00  0.00    +0.000 A 
ATOM     16  C   UNL     1       7.488   5.134  15.839  0.00  0.00    +0.000 A 
ATOM     17  C   UNL     1       6.764   4.806  16.989  0.00  0.00    +0.000 A 
BRANCH  15  18
ATOM     18  N   UNL     1       7.698   5.216  13.427  0.00  0.00    +0.000 N 
ATOM     19  H   UNL     1       8.697   5.167  13.594  0.00  0.00    +0.000 HD
ATOM     20  H   UNL     1       7.419   4.660  12.625  0.00  0.00    +0.000 HD
ENDBRANCH  15  18
ENDBRANCH   1  12
TORSDOF 4
ENDMDL
