MODEL 1
REMARK VINA RESULT:      -9.2      0.000      0.000
REMARK  Name = 
REMARK  7 active torsions:
REMARK  status: ('A' for Active; 'I' for Inactive)
REMARK    1  A    between atoms: C_1  and  C_2
REMARK    2  A    between atoms: N_5  and  C_6
REMARK    3  A    between atoms: C_6  and  C_7
REMARK    4  A    between atoms: C_6  and  C_8
REMARK    5  A    between atoms: C_12  and  C_13
REMARK    6  A    between atoms: C_16  and  C_17
REMARK    7  A    between atoms: C_21  and  C_22
REMARK                            x       y       z     vdW  Elec       q    Type
REMARK                         _______ _______ _______ _____ _____    ______ ____
ROOT
ATOM      1  C   UNL     1       0.872   9.013  22.459  0.00  0.00    +0.000 C 
ATOM      2  C   UNL     1       1.115   9.064  20.983  0.00  0.00    +0.000 A 
ATOM      3  N   UNL     1       0.706  10.157  20.316  0.00  0.00    +0.000 NA
ATOM      4  C   UNL     1       1.029  10.237  19.020  0.00  0.00    +0.000 A 
ATOM      5  N   UNL     1       0.635  11.329  18.253  0.00  0.00    +0.000 N 
ATOM      6  C   UNL     1       1.737   9.234  18.385  0.00  0.00    +0.000 A 
ATOM      7  C   UNL     1       2.052   8.108  19.119  0.00  0.00    +0.000 A 
ATOM      8  N   UNL     1       1.754   8.020  20.431  0.00  0.00    +0.000 NA
ATOM      9  H   UNL     1       1.426  11.854  17.898  0.00  0.00    +0.000 HD
ENDROOT
BRANCH   7  10
ATOM     10  C   UNL     1       2.700   6.918  18.523  0.00  0.00    +0.000 A 
ATOM     11  C   UNL     1       2.266   5.626  18.870  0.00  0.00    +0.000 A 
ATOM     12  C   UNL     1       2.848   4.473  18.322  0.00  0.00    +0.000 A 
ATOM     13  C   UNL     1       3.902   4.598  17.400  0.00  0.00    +0.000 A 
ATOM     14  N   UNL     1       4.575   3.553  16.787  0.00  0.00    +0.000 NA
ATOM     15  C   UNL     1       5.505   4.035  15.994  0.00  0.00    +0.000 A 
ATOM     16  S   UNL     1       5.629   5.742  15.918  0.00  0.00    +0.000 S 
ATOM     17  C   UNL     1       4.337   5.876  17.052  0.00  0.00    +0.000 A 
ATOM     18  C   UNL     1       3.753   7.037  17.595  0.00  0.00    +0.000 A 
ENDBRANCH   7  10
BRANCH   5  19
ATOM     19  C   UNL     1      -0.493  12.145  18.688  0.00  0.00    +0.000 C 
ATOM     20  C   UNL     1      -0.367  13.609  18.267  0.00  0.00    +0.000 C 
BRANCH  19  21
ATOM     21  C   UNL     1      -1.750  11.510  18.099  0.00  0.00    +0.000 A 
ATOM     22  C   UNL     1      -1.654  10.497  17.136  0.00  0.00    +0.000 A 
ATOM     23  C   UNL     1      -2.804   9.960  16.554  0.00  0.00    +0.000 A 
ATOM     24  C   UNL     1      -4.068  10.430  16.922  0.00  0.00    +0.000 A 
ATOM     25  C   UNL     1      -4.196  11.440  17.881  0.00  0.00    +0.000 A 
ATOM     26  C   UNL     1      -3.032  11.966  18.462  0.00  0.00    +0.000 A 
BRANCH  25  27
ATOM     27  C   UNL     1      -5.489  11.990  18.274  0.00  0.00    +0.000 A 
ATOM     28  C   UNL     1      -6.338  12.683  17.432  0.00  0.00    +0.000 A 
ATOM     29  S   UNL     1      -7.751  13.158  18.281  0.00  0.00    +0.000 S 
ATOM     30  C   UNL     1      -7.141  12.403  19.697  0.00  0.00    +0.000 A 
ATOM     31  C   UNL     1      -7.915  12.430  20.969  0.00  0.00    +0.000 C 
ATOM     32  N   UNL     1      -5.970  11.820  19.566  0.00  0.00    +0.000 NA
ENDBRANCH  25  27
ENDBRANCH  19  21
ENDBRANCH   5  19
TORSDOF 4
ENDMDL
MODEL 2
REMARK VINA RESULT:      -9.0      1.566      1.912
REMARK  Name = 
REMARK  7 active torsions:
REMARK  status: ('A' for Active; 'I' for Inactive)
REMARK    1  A    between atoms: C_1  and  C_2
REMARK    2  A    between atoms: N_5  and  C_6
REMARK    3  A    between atoms: C_6  and  C_7
REMARK    4  A    between atoms: C_6  and  C_8
REMARK    5  A    between atoms: C_12  and  C_13
REMARK    6  A    between atoms: C_16  and  C_17
REMARK    7  A    between atoms: C_21  and  C_22
REMARK                            x       y       z     vdW  Elec       q    Type
REMARK                         _______ _______ _______ _____ _____    ______ ____
ROOT
ATOM      1  C   UNL     1       0.433   9.436  23.014  0.00  0.00    +0.000 C 
ATOM      2  C   UNL     1       0.762   9.313  21.558  0.00  0.00    +0.000 A 
ATOM      3  N   UNL     1       0.489  10.360  20.761  0.00  0.00    +0.000 NA
ATOM      4  C   UNL     1       0.889  10.277  19.487  0.00  0.00    +0.000 A 
ATOM      5  N   UNL     1       0.636  11.311  18.592  0.00  0.00    +0.000 N 
ATOM      6  C   UNL     1       1.541   9.159  19.003  0.00  0.00    +0.000 A 
ATOM      7  C   UNL     1       1.715   8.094  19.863  0.00  0.00    +0.000 A 
ATOM      8  N   UNL     1       1.337   8.168  21.156  0.00  0.00    +0.000 NA
ATOM      9  H   UNL     1       1.489  11.730  18.238  0.00  0.00    +0.000 HD
ENDROOT
BRANCH   7  10
ATOM     10  C   UNL     1       2.289   6.799  19.432  0.00  0.00    +0.000 A 
ATOM     11  C   UNL     1       2.972   6.700  18.207  0.00  0.00    +0.000 A 
ATOM     12  C   UNL     1       3.537   5.495  17.766  0.00  0.00    +0.000 A 
ATOM     13  C   UNL     1       3.422   4.341  18.561  0.00  0.00    +0.000 A 
ATOM     14  N   UNL     1       3.921   3.085  18.251  0.00  0.00    +0.000 NA
ATOM     15  C   UNL     1       3.623   2.245  19.215  0.00  0.00    +0.000 A 
ATOM     16  S   UNL     1       2.751   2.888  20.542  0.00  0.00    +0.000 S 
ATOM     17  C   UNL     1       2.747   4.433  19.778  0.00  0.00    +0.000 A 
ATOM     18  C   UNL     1       2.181   5.642  20.228  0.00  0.00    +0.000 A 
ENDBRANCH   7  10
BRANCH   5  19
ATOM     19  C   UNL     1      -0.439  12.257  18.869  0.00  0.00    +0.000 C 
ATOM     20  C   UNL     1      -0.206  13.627  18.233  0.00  0.00    +0.000 C 
BRANCH  19  21
ATOM     21  C   UNL     1      -1.728  11.624  18.353  0.00  0.00    +0.000 A 
ATOM     22  C   UNL     1      -1.708  10.764  17.247  0.00  0.00    +0.000 A 
ATOM     23  C   UNL     1      -2.896  10.234  16.740  0.00  0.00    +0.000 A 
ATOM     24  C   UNL     1      -4.123  10.558  17.327  0.00  0.00    +0.000 A 
ATOM     25  C   UNL     1      -4.174  11.412  18.433  0.00  0.00    +0.000 A 
ATOM     26  C   UNL     1      -2.972  11.932  18.936  0.00  0.00    +0.000 A 
BRANCH  25  27
ATOM     27  C   UNL     1      -5.431  11.810  19.060  0.00  0.00    +0.000 A 
ATOM     28  C   UNL     1      -6.436  10.937  19.431  0.00  0.00    +0.000 A 
ATOM     29  S   UNL     1      -7.740  11.805  20.130  0.00  0.00    +0.000 S 
ATOM     30  C   UNL     1      -6.876  13.270  19.900  0.00  0.00    +0.000 A 
ATOM     31  C   UNL     1      -7.465  14.575  20.306  0.00  0.00    +0.000 C 
ATOM     32  N   UNL     1      -5.687  13.144  19.351  0.00  0.00    +0.000 NA
ENDBRANCH  25  27
ENDBRANCH  19  21
ENDBRANCH   5  19
TORSDOF 4
ENDMDL
MODEL 3
REMARK VINA RESULT:      -8.9      2.281      4.251
REMARK  Name = 
REMARK  7 active torsions:
REMARK  status: ('A' for Active; 'I' for Inactive)
REMARK    1  A    between atoms: C_1  and  C_2
REMARK    2  A    between atoms: N_5  and  C_6
REMARK    3  A    between atoms: C_6  and  C_7
REMARK    4  A    between atoms: C_6  and  C_8
REMARK    5  A    between atoms: C_12  and  C_13
REMARK    6  A    between atoms: C_16  and  C_17
REMARK    7  A    between atoms: C_21  and  C_22
REMARK                            x       y       z     vdW  Elec       q    Type
REMARK                         _______ _______ _______ _____ _____    ______ ____
ROOT
ATOM      1  C   UNL     1       1.045   3.550  20.008  0.00  0.00    +0.000 C 
ATOM      2  C   UNL     1       1.803   4.800  19.685  0.00  0.00    +0.000 A 
ATOM      3  N   UNL     1       1.423   5.939  20.288  0.00  0.00    +0.000 NA
ATOM      4  C   UNL     1       2.178   7.023  20.073  0.00  0.00    +0.000 A 
ATOM      5  N   UNL     1       1.849   8.246  20.650  0.00  0.00    +0.000 N 
ATOM      6  C   UNL     1       3.291   6.982  19.255  0.00  0.00    +0.000 A 
ATOM      7  C   UNL     1       3.570   5.795  18.609  0.00  0.00    +0.000 A 
ATOM      8  N   UNL     1       2.833   4.687  18.830  0.00  0.00    +0.000 NA
ATOM      9  H   UNL     1       2.564   8.573  21.290  0.00  0.00    +0.000 HD
ENDROOT
BRANCH   7  10
ATOM     10  C   UNL     1       4.660   5.658  17.617  0.00  0.00    +0.000 A 
ATOM     11  C   UNL     1       5.919   6.232  17.864  0.00  0.00    +0.000 A 
ATOM     12  C   UNL     1       6.981   6.118  16.954  0.00  0.00    +0.000 A 
ATOM     13  C   UNL     1       6.793   5.415  15.752  0.00  0.00    +0.000 A 
ATOM     14  N   UNL     1       7.742   5.229  14.760  0.00  0.00    +0.000 NA
ATOM     15  C   UNL     1       7.219   4.533  13.776  0.00  0.00    +0.000 A 
ATOM     16  S   UNL     1       5.588   4.049  13.970  0.00  0.00    +0.000 S 
ATOM     17  C   UNL     1       5.546   4.843  15.500  0.00  0.00    +0.000 A 
ATOM     18  C   UNL     1       4.478   4.950  16.413  0.00  0.00    +0.000 A 
ENDBRANCH   7  10
BRANCH   5  19
ATOM     19  C   UNL     1       0.480   8.490  21.089  0.00  0.00    +0.000 C 
ATOM     20  C   UNL     1       0.335   8.505  22.610  0.00  0.00    +0.000 C 
BRANCH  19  21
ATOM     21  C   UNL     1       0.054   9.825  20.483  0.00  0.00    +0.000 A 
ATOM     22  C   UNL     1       0.571  11.030  20.977  0.00  0.00    +0.000 A 
ATOM     23  C   UNL     1       0.135  12.252  20.462  0.00  0.00    +0.000 A 
ATOM     24  C   UNL     1      -0.828  12.290  19.450  0.00  0.00    +0.000 A 
ATOM     25  C   UNL     1      -1.362  11.103  18.937  0.00  0.00    +0.000 A 
ATOM     26  C   UNL     1      -0.910   9.883  19.458  0.00  0.00    +0.000 A 
BRANCH  25  27
ATOM     27  C   UNL     1      -2.395  11.089  17.906  0.00  0.00    +0.000 A 
ATOM     28  C   UNL     1      -3.672  11.593  18.064  0.00  0.00    +0.000 A 
ATOM     29  S   UNL     1      -4.572  11.381  16.619  0.00  0.00    +0.000 S 
ATOM     30  C   UNL     1      -3.203  10.648  15.886  0.00  0.00    +0.000 A 
ATOM     31  C   UNL     1      -3.264  10.150  14.485  0.00  0.00    +0.000 C 
ATOM     32  N   UNL     1      -2.133  10.567  16.646  0.00  0.00    +0.000 NA
ENDBRANCH  25  27
ENDBRANCH  19  21
ENDBRANCH   5  19
TORSDOF 4
ENDMDL
MODEL 4
REMARK VINA RESULT:      -8.8      1.824      2.211
REMARK  Name = 
REMARK  7 active torsions:
REMARK  status: ('A' for Active; 'I' for Inactive)
REMARK    1  A    between atoms: C_1  and  C_2
REMARK    2  A    between atoms: N_5  and  C_6
REMARK    3  A    between atoms: C_6  and  C_7
REMARK    4  A    between atoms: C_6  and  C_8
REMARK    5  A    between atoms: C_12  and  C_13
REMARK    6  A    between atoms: C_16  and  C_17
REMARK    7  A    between atoms: C_21  and  C_22
REMARK                            x       y       z     vdW  Elec       q    Type
REMARK                         _______ _______ _______ _____ _____    ______ ____
ROOT
ATOM      1  C   UNL     1      -0.029   9.628  23.406  0.00  0.00    +0.000 C 
ATOM      2  C   UNL     1       0.399   9.570  21.972  0.00  0.00    +0.000 A 
ATOM      3  N   UNL     1       0.253  10.678  21.227  0.00  0.00    +0.000 NA
ATOM      4  C   UNL     1       0.741  10.644  19.981  0.00  0.00    +0.000 A 
ATOM      5  N   UNL     1       0.621  11.745  19.139  0.00  0.00    +0.000 N 
ATOM      6  C   UNL     1       1.355   9.516  19.473  0.00  0.00    +0.000 A 
ATOM      7  C   UNL     1       1.396   8.391  20.274  0.00  0.00    +0.000 A 
ATOM      8  N   UNL     1       0.928   8.414  21.538  0.00  0.00    +0.000 NA
ATOM      9  H   UNL     1       1.523  12.125  18.874  0.00  0.00    +0.000 HD
ENDROOT
BRANCH   7  10
ATOM     10  C   UNL     1       1.917   7.089  19.802  0.00  0.00    +0.000 A 
ATOM     11  C   UNL     1       2.566   6.994  18.558  0.00  0.00    +0.000 A 
ATOM     12  C   UNL     1       3.082   5.781  18.078  0.00  0.00    +0.000 A 
ATOM     13  C   UNL     1       2.949   4.615  18.851  0.00  0.00    +0.000 A 
ATOM     14  N   UNL     1       3.399   3.351  18.504  0.00  0.00    +0.000 NA
ATOM     15  C   UNL     1       3.097   2.500  19.457  0.00  0.00    +0.000 A 
ATOM     16  S   UNL     1       2.279   3.142  20.819  0.00  0.00    +0.000 S 
ATOM     17  C   UNL     1       2.307   4.702  20.086  0.00  0.00    +0.000 A 
ATOM     18  C   UNL     1       1.791   5.919  20.575  0.00  0.00    +0.000 A 
ENDBRANCH   7  10
BRANCH   5  19
ATOM     19  C   UNL     1      -0.409  12.743  19.400  0.00  0.00    +0.000 C 
ATOM     20  C   UNL     1      -0.114  14.091  18.740  0.00  0.00    +0.000 C 
BRANCH  19  21
ATOM     21  C   UNL     1      -1.726  12.161  18.895  0.00  0.00    +0.000 A 
ATOM     22  C   UNL     1      -1.774  11.438  17.696  0.00  0.00    +0.000 A 
ATOM     23  C   UNL     1      -2.990  10.958  17.205  0.00  0.00    +0.000 A 
ATOM     24  C   UNL     1      -4.177  11.197  17.902  0.00  0.00    +0.000 A 
ATOM     25  C   UNL     1      -4.161  11.915  19.103  0.00  0.00    +0.000 A 
ATOM     26  C   UNL     1      -2.932  12.385  19.588  0.00  0.00    +0.000 A 
BRANCH  25  27
ATOM     27  C   UNL     1      -5.377  12.221  19.850  0.00  0.00    +0.000 A 
ATOM     28  C   UNL     1      -6.605  12.492  19.279  0.00  0.00    +0.000 A 
ATOM     29  S   UNL     1      -7.768  12.801  20.501  0.00  0.00    +0.000 S 
ATOM     30  C   UNL     1      -6.564  12.544  21.697  0.00  0.00    +0.000 A 
ATOM     31  C   UNL     1      -6.888  12.672  23.145  0.00  0.00    +0.000 C 
ATOM     32  N   UNL     1      -5.371  12.236  21.239  0.00  0.00    +0.000 NA
ENDBRANCH  25  27
ENDBRANCH  19  21
ENDBRANCH   5  19
TORSDOF 4
ENDMDL
MODEL 5
REMARK VINA RESULT:      -8.7      1.195      1.340
REMARK  Name = 
REMARK  7 active torsions:
REMARK  status: ('A' for Active; 'I' for Inactive)
REMARK    1  A    between atoms: C_1  and  C_2
REMARK    2  A    between atoms: N_5  and  C_6
REMARK    3  A    between atoms: C_6  and  C_7
REMARK    4  A    between atoms: C_6  and  C_8
REMARK    5  A    between atoms: C_12  and  C_13
REMARK    6  A    between atoms: C_16  and  C_17
REMARK    7  A    between atoms: C_21  and  C_22
REMARK                            x       y       z     vdW  Elec       q    Type
REMARK                         _______ _______ _______ _____ _____    ______ ____
ROOT
ATOM      1  C   UNL     1       0.444   9.571  23.188  0.00  0.00    +0.000 C 
ATOM      2  C   UNL     1       0.764   9.339  21.744  0.00  0.00    +0.000 A 
ATOM      3  N   UNL     1       0.541  10.344  20.881  0.00  0.00    +0.000 NA
ATOM      4  C   UNL     1       0.934  10.160  19.615  0.00  0.00    +0.000 A 
ATOM      5  N   UNL     1       0.731  11.145  18.655  0.00  0.00    +0.000 N 
ATOM      6  C   UNL     1       1.529   8.982  19.205  0.00  0.00    +0.000 A 
ATOM      7  C   UNL     1       1.651   7.967  20.132  0.00  0.00    +0.000 A 
ATOM      8  N   UNL     1       1.280   8.143  21.417  0.00  0.00    +0.000 NA
ATOM      9  H   UNL     1       1.602  11.498  18.276  0.00  0.00    +0.000 HD
ENDROOT
BRANCH   7  10
ATOM     10  C   UNL     1       2.160   6.621  19.786  0.00  0.00    +0.000 A 
ATOM     11  C   UNL     1       1.869   5.520  20.611  0.00  0.00    +0.000 A 
ATOM     12  C   UNL     1       2.324   4.226  20.314  0.00  0.00    +0.000 A 
ATOM     13  C   UNL     1       3.100   4.010  19.163  0.00  0.00    +0.000 A 
ATOM     14  N   UNL     1       3.624   2.795  18.749  0.00  0.00    +0.000 NA
ATOM     15  C   UNL     1       4.302   2.965  17.637  0.00  0.00    +0.000 A 
ATOM     16  S   UNL     1       4.351   4.559  17.012  0.00  0.00    +0.000 S 
ATOM     17  C   UNL     1       3.392   5.098  18.340  0.00  0.00    +0.000 A 
ATOM     18  C   UNL     1       2.933   6.398  18.630  0.00  0.00    +0.000 A 
ENDBRANCH   7  10
BRANCH   5  19
ATOM     19  C   UNL     1      -0.296  12.159  18.869  0.00  0.00    +0.000 C 
ATOM     20  C   UNL     1      -0.022  13.455  18.106  0.00  0.00    +0.000 C 
BRANCH  19  21
ATOM     21  C   UNL     1      -1.624  11.541  18.442  0.00  0.00    +0.000 A 
ATOM     22  C   UNL     1      -1.664  10.550  17.452  0.00  0.00    +0.000 A 
ATOM     23  C   UNL     1      -2.885  10.028  17.020  0.00  0.00    +0.000 A 
ATOM     24  C   UNL     1      -4.085  10.492  17.566  0.00  0.00    +0.000 A 
ATOM     25  C   UNL     1      -4.076  11.480  18.557  0.00  0.00    +0.000 A 
ATOM     26  C   UNL     1      -2.842  11.990  18.986  0.00  0.00    +0.000 A 
BRANCH  25  27
ATOM     27  C   UNL     1      -5.302  12.023  19.134  0.00  0.00    +0.000 A 
ATOM     28  C   UNL     1      -6.575  11.767  18.661  0.00  0.00    +0.000 A 
ATOM     29  S   UNL     1      -7.735  12.595  19.616  0.00  0.00    +0.000 S 
ATOM     30  C   UNL     1      -6.469  13.223  20.591  0.00  0.00    +0.000 A 
ATOM     31  C   UNL     1      -6.764  14.132  21.732  0.00  0.00    +0.000 C 
ATOM     32  N   UNL     1      -5.256  12.844  20.253  0.00  0.00    +0.000 NA
ENDBRANCH  25  27
ENDBRANCH  19  21
ENDBRANCH   5  19
TORSDOF 4
ENDMDL
MODEL 6
REMARK VINA RESULT:      -8.6      2.010      3.818
REMARK  Name = 
REMARK  7 active torsions:
REMARK  status: ('A' for Active; 'I' for Inactive)
REMARK    1  A    between atoms: C_1  and  C_2
REMARK    2  A    between atoms: N_5  and  C_6
REMARK    3  A    between atoms: C_6  and  C_7
REMARK    4  A    between atoms: C_6  and  C_8
REMARK    5  A    between atoms: C_12  and  C_13
REMARK    6  A    between atoms: C_16  and  C_17
REMARK    7  A    between atoms: C_21  and  C_22
REMARK                            x       y       z     vdW  Elec       q    Type
REMARK                         _______ _______ _______ _____ _____    ______ ____
ROOT
ATOM      1  C   UNL     1       0.700   3.674  20.455  0.00  0.00    +0.000 C 
ATOM      2  C   UNL     1       1.549   4.853  20.093  0.00  0.00    +0.000 A 
ATOM      3  N   UNL     1       1.209   6.051  20.598  0.00  0.00    +0.000 NA
ATOM      4  C   UNL     1       2.039   7.073  20.354  0.00  0.00    +0.000 A 
ATOM      5  N   UNL     1       1.756   8.349  20.830  0.00  0.00    +0.000 N 
ATOM      6  C   UNL     1       3.188   6.912  19.604  0.00  0.00    +0.000 A 
ATOM      7  C   UNL     1       3.427   5.668  19.054  0.00  0.00    +0.000 A 
ATOM      8  N   UNL     1       2.613   4.623  19.306  0.00  0.00    +0.000 NA
ATOM      9  H   UNL     1       2.455   8.678  21.486  0.00  0.00    +0.000 HD
ENDROOT
BRANCH   7  10
ATOM     10  C   UNL     1       4.556   5.401  18.136  0.00  0.00    +0.000 A 
ATOM     11  C   UNL     1       5.878   5.417  18.614  0.00  0.00    +0.000 A 
ATOM     12  C   UNL     1       6.975   5.160  17.779  0.00  0.00    +0.000 A 
ATOM     13  C   UNL     1       6.762   4.882  16.418  0.00  0.00    +0.000 A 
ATOM     14  N   UNL     1       7.745   4.619  15.477  0.00  0.00    +0.000 NA
ATOM     15  C   UNL     1       7.187   4.411  14.306  0.00  0.00    +0.000 A 
ATOM     16  S   UNL     1       5.478   4.502  14.251  0.00  0.00    +0.000 S 
ATOM     17  C   UNL     1       5.453   4.864  15.937  0.00  0.00    +0.000 A 
ATOM     18  C   UNL     1       4.348   5.116  16.772  0.00  0.00    +0.000 A 
ENDBRANCH   7  10
BRANCH   5  19
ATOM     19  C   UNL     1       0.383   8.702  21.175  0.00  0.00    +0.000 C 
ATOM     20  C   UNL     1       0.169   8.862  22.680  0.00  0.00    +0.000 C 
BRANCH  19  21
ATOM     21  C   UNL     1       0.060   9.996  20.434  0.00  0.00    +0.000 A 
ATOM     22  C   UNL     1       0.775  11.171  20.704  0.00  0.00    +0.000 A 
ATOM     23  C   UNL     1       0.438  12.368  20.069  0.00  0.00    +0.000 A 
ATOM     24  C   UNL     1      -0.621  12.411  19.158  0.00  0.00    +0.000 A 
ATOM     25  C   UNL     1      -1.351  11.254  18.866  0.00  0.00    +0.000 A 
ATOM     26  C   UNL     1      -0.998  10.057  19.507  0.00  0.00    +0.000 A 
BRANCH  25  27
ATOM     27  C   UNL     1      -2.488  11.254  17.950  0.00  0.00    +0.000 A 
ATOM     28  C   UNL     1      -2.423  10.900  16.616  0.00  0.00    +0.000 A 
ATOM     29  S   UNL     1      -3.974  11.036  15.895  0.00  0.00    +0.000 S 
ATOM     30  C   UNL     1      -4.619  11.543  17.403  0.00  0.00    +0.000 A 
ATOM     31  C   UNL     1      -6.062  11.884  17.539  0.00  0.00    +0.000 C 
ATOM     32  N   UNL     1      -3.757  11.603  18.394  0.00  0.00    +0.000 NA
ENDBRANCH  25  27
ENDBRANCH  19  21
ENDBRANCH   5  19
TORSDOF 4
ENDMDL
MODEL 7
REMARK VINA RESULT:      -8.3      4.305     10.255
REMARK  Name = 
REMARK  7 active torsions:
REMARK  status: ('A' for Active; 'I' for Inactive)
REMARK    1  A    between atoms: C_1  and  C_2
REMARK    2  A    between atoms: N_5  and  C_6
REMARK    3  A    between atoms: C_6  and  C_7
REMARK    4  A    between atoms: C_6  and  C_8
REMARK    5  A    between atoms: C_12  and  C_13
REMARK    6  A    between atoms: C_16  and  C_17
REMARK    7  A    between atoms: C_21  and  C_22
REMARK                            x       y       z     vdW  Elec       q    Type
REMARK                         _______ _______ _______ _____ _____    ______ ____
ROOT
ATOM      1  C   UNL     1       2.634   3.821  20.210  0.00  0.00    +0.000 C 
ATOM      2  C   UNL     1       2.753   5.189  19.615  0.00  0.00    +0.000 A 
ATOM      3  N   UNL     1       3.474   5.325  18.489  0.00  0.00    +0.000 NA
ATOM      4  C   UNL     1       3.479   6.531  17.910  0.00  0.00    +0.000 A 
ATOM      5  N   UNL     1       4.208   6.761  16.748  0.00  0.00    +0.000 N 
ATOM      6  C   UNL     1       2.787   7.598  18.450  0.00  0.00    +0.000 A 
ATOM      7  C   UNL     1       2.135   7.400  19.651  0.00  0.00    +0.000 A 
ATOM      8  N   UNL     1       2.102   6.186  20.238  0.00  0.00    +0.000 NA
ATOM      9  H   UNL     1       3.616   7.015  15.966  0.00  0.00    +0.000 HD
ENDROOT
BRANCH   7  10
ATOM     10  C   UNL     1       1.462   8.492  20.389  0.00  0.00    +0.000 A 
ATOM     11  C   UNL     1       0.940   8.262  21.674  0.00  0.00    +0.000 A 
ATOM     12  C   UNL     1       0.303   9.272  22.410  0.00  0.00    +0.000 A 
ATOM     13  C   UNL     1       0.171  10.557  21.857  0.00  0.00    +0.000 A 
ATOM     14  N   UNL     1      -0.439  11.645  22.461  0.00  0.00    +0.000 NA
ATOM     15  C   UNL     1      -0.387  12.681  21.655  0.00  0.00    +0.000 A 
ATOM     16  S   UNL     1       0.392  12.435  20.150  0.00  0.00    +0.000 S 
ATOM     17  C   UNL     1       0.688  10.792  20.583  0.00  0.00    +0.000 A 
ATOM     18  C   UNL     1       1.333   9.783  19.842  0.00  0.00    +0.000 A 
ENDBRANCH   7  10
BRANCH   5  19
ATOM     19  C   UNL     1       5.319   5.879  16.409  0.00  0.00    +0.000 C 
ATOM     20  C   UNL     1       5.757   6.004  14.950  0.00  0.00    +0.000 C 
BRANCH  19  21
ATOM     21  C   UNL     1       6.464   6.226  17.357  0.00  0.00    +0.000 A 
ATOM     22  C   UNL     1       6.981   5.264  18.235  0.00  0.00    +0.000 A 
ATOM     23  C   UNL     1       7.987   5.600  19.143  0.00  0.00    +0.000 A 
ATOM     24  C   UNL     1       8.489   6.904  19.191  0.00  0.00    +0.000 A 
ATOM     25  C   UNL     1       7.994   7.885  18.326  0.00  0.00    +0.000 A 
ATOM     26  C   UNL     1       6.988   7.532  17.415  0.00  0.00    +0.000 A 
BRANCH  25  27
ATOM     27  C   UNL     1       8.459   9.269  18.361  0.00  0.00    +0.000 A 
ATOM     28  C   UNL     1       8.050  10.259  17.488  0.00  0.00    +0.000 A 
ATOM     29  S   UNL     1       8.831  11.738  17.868  0.00  0.00    +0.000 S 
ATOM     30  C   UNL     1       9.646  10.962  19.165  0.00  0.00    +0.000 A 
ATOM     31  C   UNL     1      10.604  11.713  20.022  0.00  0.00    +0.000 C 
ATOM     32  N   UNL     1       9.361   9.689  19.330  0.00  0.00    +0.000 NA
ENDBRANCH  25  27
ENDBRANCH  19  21
ENDBRANCH   5  19
TORSDOF 4
ENDMDL
MODEL 8
REMARK VINA RESULT:      -8.3      4.083     10.353
REMARK  Name = 
REMARK  7 active torsions:
REMARK  status: ('A' for Active; 'I' for Inactive)
REMARK    1  A    between atoms: C_1  and  C_2
REMARK    2  A    between atoms: N_5  and  C_6
REMARK    3  A    between atoms: C_6  and  C_7
REMARK    4  A    between atoms: C_6  and  C_8
REMARK    5  A    between atoms: C_12  and  C_13
REMARK    6  A    between atoms: C_16  and  C_17
REMARK    7  A    between atoms: C_21  and  C_22
REMARK                            x       y       z     vdW  Elec       q    Type
REMARK                         _______ _______ _______ _____ _____    ______ ____
ROOT
ATOM      1  C   UNL     1       2.260   4.320  19.944  0.00  0.00    +0.000 C 
ATOM      2  C   UNL     1       2.573   5.597  19.228  0.00  0.00    +0.000 A 
ATOM      3  N   UNL     1       3.432   5.546  18.197  0.00  0.00    +0.000 NA
ATOM      4  C   UNL     1       3.616   6.674  17.500  0.00  0.00    +0.000 A 
ATOM      5  N   UNL     1       4.497   6.711  16.424  0.00  0.00    +0.000 N 
ATOM      6  C   UNL     1       2.964   7.846  17.832  0.00  0.00    +0.000 A 
ATOM      7  C   UNL     1       2.158   7.838  18.952  0.00  0.00    +0.000 A 
ATOM      8  N   UNL     1       1.945   6.706  19.654  0.00  0.00    +0.000 NA
ATOM      9  H   UNL     1       4.028   6.919  15.550  0.00  0.00    +0.000 HD
ENDROOT
BRANCH   7  10
ATOM     10  C   UNL     1       1.503   9.057  19.479  0.00  0.00    +0.000 A 
ATOM     11  C   UNL     1       1.479  10.236  18.713  0.00  0.00    +0.000 A 
ATOM     12  C   UNL     1       0.862  11.409  19.171  0.00  0.00    +0.000 A 
ATOM     13  C   UNL     1       0.248  11.422  20.436  0.00  0.00    +0.000 A 
ATOM     14  N   UNL     1      -0.389  12.505  21.021  0.00  0.00    +0.000 NA
ATOM     15  C   UNL     1      -0.838  12.163  22.206  0.00  0.00    +0.000 A 
ATOM     16  S   UNL     1      -0.546  10.547  22.693  0.00  0.00    +0.000 S 
ATOM     17  C   UNL     1       0.268  10.256  21.201  0.00  0.00    +0.000 A 
ATOM     18  C   UNL     1       0.882   9.074  20.743  0.00  0.00    +0.000 A 
ENDBRANCH   7  10
BRANCH   5  19
ATOM     19  C   UNL     1       5.557   5.714  16.326  0.00  0.00    +0.000 C 
ATOM     20  C   UNL     1       6.143   5.604  14.919  0.00  0.00    +0.000 C 
BRANCH  19  21
ATOM     21  C   UNL     1       6.629   6.107  17.339  0.00  0.00    +0.000 A 
ATOM     22  C   UNL     1       7.105   5.176  18.272  0.00  0.00    +0.000 A 
ATOM     23  C   UNL     1       8.041   5.555  19.236  0.00  0.00    +0.000 A 
ATOM     24  C   UNL     1       8.514   6.869  19.285  0.00  0.00    +0.000 A 
ATOM     25  C   UNL     1       8.059   7.820  18.365  0.00  0.00    +0.000 A 
ATOM     26  C   UNL     1       7.122   7.424  17.399  0.00  0.00    +0.000 A 
BRANCH  25  27
ATOM     27  C   UNL     1       8.494   9.213  18.397  0.00  0.00    +0.000 A 
ATOM     28  C   UNL     1       8.124  10.174  17.476  0.00  0.00    +0.000 A 
ATOM     29  S   UNL     1       8.850  11.677  17.870  0.00  0.00    +0.000 S 
ATOM     30  C   UNL     1       9.593  10.949  19.235  0.00  0.00    +0.000 A 
ATOM     31  C   UNL     1      10.478  11.739  20.134  0.00  0.00    +0.000 C 
ATOM     32  N   UNL     1       9.322   9.674  19.412  0.00  0.00    +0.000 NA
ENDBRANCH  25  27
ENDBRANCH  19  21
ENDBRANCH   5  19
TORSDOF 4
ENDMDL
MODEL 9
REMARK VINA RESULT:      -8.2      2.405     10.333
REMARK  Name = 
REMARK  7 active torsions:
REMARK  status: ('A' for Active; 'I' for Inactive)
REMARK    1  A    between atoms: C_1  and  C_2
REMARK    2  A    between atoms: N_5  and  C_6
REMARK    3  A    between atoms: C_6  and  C_7
REMARK    4  A    between atoms: C_6  and  C_8
REMARK    5  A    between atoms: C_12  and  C_13
REMARK    6  A    between atoms: C_16  and  C_17
REMARK    7  A    between atoms: C_21  and  C_22
REMARK                            x       y       z     vdW  Elec       q    Type
REMARK                         _______ _______ _______ _____ _____    ______ ____
ROOT
ATOM      1  C   UNL     1      -3.783  11.097  16.556  0.00  0.00    +0.000 C 
ATOM      2  C   UNL     1      -3.110  11.515  17.827  0.00  0.00    +0.000 A 
ATOM      3  N   UNL     1      -1.771  11.425  17.888  0.00  0.00    +0.000 NA
ATOM      4  C   UNL     1      -1.177  11.905  18.987  0.00  0.00    +0.000 A 
ATOM      5  N   UNL     1       0.205  11.841  19.136  0.00  0.00    +0.000 N 
ATOM      6  C   UNL     1      -1.906  12.455  20.024  0.00  0.00    +0.000 A 
ATOM      7  C   UNL     1      -3.282  12.439  19.921  0.00  0.00    +0.000 A 
ATOM      8  N   UNL     1      -3.897  11.980  18.812  0.00  0.00    +0.000 NA
ATOM      9  H   UNL     1       0.628  12.760  19.196  0.00  0.00    +0.000 HD
ENDROOT
BRANCH   7  10
ATOM     10  C   UNL     1      -4.174  12.888  21.014  0.00  0.00    +0.000 A 
ATOM     11  C   UNL     1      -3.729  13.841  21.946  0.00  0.00    +0.000 A 
ATOM     12  C   UNL     1      -4.545  14.299  22.991  0.00  0.00    +0.000 A 
ATOM     13  C   UNL     1      -5.850  13.794  23.125  0.00  0.00    +0.000 A 
ATOM     14  N   UNL     1      -6.762  14.145  24.108  0.00  0.00    +0.000 NA
ATOM     15  C   UNL     1      -7.876  13.472  23.933  0.00  0.00    +0.000 A 
ATOM     16  S   UNL     1      -7.916  12.401  22.597  0.00  0.00    +0.000 S 
ATOM     17  C   UNL     1      -6.299  12.848  22.203  0.00  0.00    +0.000 A 
ATOM     18  C   UNL     1      -5.485  12.389  21.149  0.00  0.00    +0.000 A 
ENDBRANCH   7  10
BRANCH   5  19
ATOM     19  C   UNL     1       0.968  10.867  18.365  0.00  0.00    +0.000 C 
ATOM     20  C   UNL     1       2.320  11.405  17.895  0.00  0.00    +0.000 C 
BRANCH  19  21
ATOM     21  C   UNL     1       1.145   9.640  19.254  0.00  0.00    +0.000 A 
ATOM     22  C   UNL     1       0.614   9.615  20.551  0.00  0.00    +0.000 A 
ATOM     23  C   UNL     1       0.829   8.516  21.384  0.00  0.00    +0.000 A 
ATOM     24  C   UNL     1       1.581   7.426  20.937  0.00  0.00    +0.000 A 
ATOM     25  C   UNL     1       2.123   7.421  19.647  0.00  0.00    +0.000 A 
ATOM     26  C   UNL     1       1.893   8.529  18.819  0.00  0.00    +0.000 A 
BRANCH  25  27
ATOM     27  C   UNL     1       2.945   6.324  19.146  0.00  0.00    +0.000 A 
ATOM     28  C   UNL     1       3.193   5.149  19.829  0.00  0.00    +0.000 A 
ATOM     29  S   UNL     1       4.202   4.126  18.894  0.00  0.00    +0.000 S 
ATOM     30  C   UNL     1       4.230   5.307  17.649  0.00  0.00    +0.000 A 
ATOM     31  C   UNL     1       5.005   5.079  16.399  0.00  0.00    +0.000 C 
ATOM     32  N   UNL     1       3.530   6.394  17.888  0.00  0.00    +0.000 NA
ENDBRANCH  25  27
ENDBRANCH  19  21
ENDBRANCH   5  19
TORSDOF 4
ENDMDL
