MODEL 1
REMARK VINA RESULT:      -7.8      0.000      0.000
REMARK  Name = 
REMARK  2 active torsions:
REMARK  status: ('A' for Active; 'I' for Inactive)
REMARK    1  A    between atoms: C_10  and  C_12
REMARK    2  A    between atoms: C_12  and  C_13
REMARK                            x       y       z     vdW  Elec       q    Type
REMARK                         _______ _______ _______ _____ _____    ______ ____
ROOT
ATOM      1  O   UNL     1       2.222   2.735  22.181  0.00  0.00    +0.000 OA
ATOM      2  C   UNL     1       2.282   3.030  20.985  0.00  0.00    +0.000 C 
ATOM      3  C   UNL     1       3.156   2.231  20.041  0.00  0.00    +0.000 C 
ATOM      4  C   UNL     1       3.385   2.974  18.725  0.00  0.00    +0.000 C 
ATOM      5  C   UNL     1       2.193   2.834  17.752  0.00  0.00    +0.000 C 
ATOM      6  C   UNL     1       1.405   4.144  17.901  0.00  0.00    +0.000 C 
ATOM      7  C   UNL     1       2.005   4.773  19.162  0.00  0.00    +0.000 C 
ATOM      8  C   UNL     1       1.397   4.118  20.412  0.00  0.00    +0.000 C 
ATOM      9  N   UNL     1       3.407   4.402  19.001  0.00  0.00    +0.000 N 
ATOM     10  C   UNL     1       4.260   5.277  18.324  0.00  0.00    +0.000 C 
ATOM     11  O   UNL     1       3.885   6.388  17.950  0.00  0.00    +0.000 OA
ENDROOT
BRANCH  10  12
ATOM     12  C   UNL     1       5.678   4.783  18.067  0.00  0.00    +0.000 C 
BRANCH  12  13
ATOM     13  C   UNL     1       5.999   4.642  16.600  0.00  0.00    +0.000 A 
ATOM     14  C   UNL     1       7.215   5.131  16.099  0.00  0.00    +0.000 A 
ATOM     15  C   UNL     1       7.526   5.004  14.745  0.00  0.00    +0.000 A 
ATOM     16  C   UNL     1       6.618   4.393  13.883  0.00  0.00    +0.000 A 
ATOM     17 CL   UNL     1       7.002   4.228  12.213  0.00  0.00    +0.000 Cl
ATOM     18  C   UNL     1       5.399   3.916  14.364  0.00  0.00    +0.000 A 
ATOM     19  C   UNL     1       5.087   4.044  15.718  0.00  0.00    +0.000 A 
ENDBRANCH  12  13
ENDBRANCH  10  12
TORSDOF 2
ENDMDL
MODEL 2
REMARK VINA RESULT:      -7.8      0.248      1.137
REMARK  Name = 
REMARK  2 active torsions:
REMARK  status: ('A' for Active; 'I' for Inactive)
REMARK    1  A    between atoms: C_10  and  C_12
REMARK    2  A    between atoms: C_12  and  C_13
REMARK                            x       y       z     vdW  Elec       q    Type
REMARK                         _______ _______ _______ _____ _____    ______ ____
ROOT
ATOM      1  O   UNL     1       2.008   2.735  22.265  0.00  0.00    +0.000 OA
ATOM      2  C   UNL     1       2.108   3.029  21.072  0.00  0.00    +0.000 C 
ATOM      3  C   UNL     1       3.071   2.276  20.176  0.00  0.00    +0.000 C 
ATOM      4  C   UNL     1       3.321   3.026  18.868  0.00  0.00    +0.000 C 
ATOM      5  C   UNL     1       2.188   2.813  17.839  0.00  0.00    +0.000 C 
ATOM      6  C   UNL     1       1.321   4.077  17.941  0.00  0.00    +0.000 C 
ATOM      7  C   UNL     1       1.821   4.745  19.224  0.00  0.00    +0.000 C 
ATOM      8  C   UNL     1       1.192   4.061  20.449  0.00  0.00    +0.000 C 
ATOM      9  N   UNL     1       3.249   4.454  19.134  0.00  0.00    +0.000 N 
ATOM     10  C   UNL     1       4.082   5.373  18.493  0.00  0.00    +0.000 C 
ATOM     11  O   UNL     1       3.663   6.459  18.093  0.00  0.00    +0.000 OA
ENDROOT
BRANCH  10  12
ATOM     12  C   UNL     1       5.538   4.960  18.309  0.00  0.00    +0.000 C 
BRANCH  12  13
ATOM     13  C   UNL     1       5.924   4.785  16.861  0.00  0.00    +0.000 A 
ATOM     14  C   UNL     1       5.051   4.130  15.978  0.00  0.00    +0.000 A 
ATOM     15  C   UNL     1       5.394   3.964  14.636  0.00  0.00    +0.000 A 
ATOM     16  C   UNL     1       6.615   4.448  14.170  0.00  0.00    +0.000 A 
ATOM     17 CL   UNL     1       7.037   4.251  12.514  0.00  0.00    +0.000 Cl
ATOM     18  C   UNL     1       7.498   5.087  15.039  0.00  0.00    +0.000 A 
ATOM     19  C   UNL     1       7.157   5.252  16.383  0.00  0.00    +0.000 A 
ENDBRANCH  12  13
ENDBRANCH  10  12
TORSDOF 2
ENDMDL
MODEL 3
REMARK VINA RESULT:      -7.7      0.956      1.073
REMARK  Name = 
REMARK  2 active torsions:
REMARK  status: ('A' for Active; 'I' for Inactive)
REMARK    1  A    between atoms: C_10  and  C_12
REMARK    2  A    between atoms: C_12  and  C_13
REMARK                            x       y       z     vdW  Elec       q    Type
REMARK                         _______ _______ _______ _____ _____    ______ ____
ROOT
ATOM      1  O   UNL     1       2.330   2.479  22.326  0.00  0.00    +0.000 OA
ATOM      2  C   UNL     1       2.361   2.897  21.167  0.00  0.00    +0.000 C 
ATOM      3  C   UNL     1       3.504   2.518  20.246  0.00  0.00    +0.000 C 
ATOM      4  C   UNL     1       3.556   3.425  19.017  0.00  0.00    +0.000 C 
ATOM      5  C   UNL     1       2.536   3.009  17.933  0.00  0.00    +0.000 C 
ATOM      6  C   UNL     1       1.355   3.976  18.110  0.00  0.00    +0.000 C 
ATOM      7  C   UNL     1       1.640   4.633  19.463  0.00  0.00    +0.000 C 
ATOM      8  C   UNL     1       1.205   3.695  20.601  0.00  0.00    +0.000 C 
ATOM      9  N   UNL     1       3.094   4.750  19.400  0.00  0.00    +0.000 N 
ATOM     10  C   UNL     1       3.652   5.915  18.871  0.00  0.00    +0.000 C 
ATOM     11  O   UNL     1       2.957   6.878  18.550  0.00  0.00    +0.000 OA
ENDROOT
BRANCH  10  12
ATOM     12  C   UNL     1       5.167   5.929  18.705  0.00  0.00    +0.000 C 
BRANCH  12  13
ATOM     13  C   UNL     1       5.614   5.530  17.321  0.00  0.00    +0.000 A 
ATOM     14  C   UNL     1       6.624   4.568  17.163  0.00  0.00    +0.000 A 
ATOM     15  C   UNL     1       7.045   4.186  15.888  0.00  0.00    +0.000 A 
ATOM     16  C   UNL     1       6.463   4.770  14.765  0.00  0.00    +0.000 A 
ATOM     17 CL   UNL     1       6.975   4.296  13.193  0.00  0.00    +0.000 Cl
ATOM     18  C   UNL     1       5.470   5.739  14.908  0.00  0.00    +0.000 A 
ATOM     19  C   UNL     1       5.050   6.122  16.183  0.00  0.00    +0.000 A 
ENDBRANCH  12  13
ENDBRANCH  10  12
TORSDOF 2
ENDMDL
MODEL 4
REMARK VINA RESULT:      -7.4      2.842      3.612
REMARK  Name = 
REMARK  2 active torsions:
REMARK  status: ('A' for Active; 'I' for Inactive)
REMARK    1  A    between atoms: C_10  and  C_12
REMARK    2  A    between atoms: C_12  and  C_13
REMARK                            x       y       z     vdW  Elec       q    Type
REMARK                         _______ _______ _______ _____ _____    ______ ____
ROOT
ATOM      1  O   UNL     1       0.056   2.064  18.266  0.00  0.00    +0.000 OA
ATOM      2  C   UNL     1       0.866   2.881  18.709  0.00  0.00    +0.000 C 
ATOM      3  C   UNL     1       1.342   4.033  17.847  0.00  0.00    +0.000 C 
ATOM      4  C   UNL     1       2.596   4.685  18.427  0.00  0.00    +0.000 C 
ATOM      5  C   UNL     1       2.274   5.668  19.575  0.00  0.00    +0.000 C 
ATOM      6  C   UNL     1       2.564   4.881  20.862  0.00  0.00    +0.000 C 
ATOM      7  C   UNL     1       2.703   3.438  20.368  0.00  0.00    +0.000 C 
ATOM      8  C   UNL     1       1.311   2.823  20.156  0.00  0.00    +0.000 C 
ATOM      9  N   UNL     1       3.383   3.659  19.095  0.00  0.00    +0.000 N 
ATOM     10  C   UNL     1       4.779   3.658  19.069  0.00  0.00    +0.000 C 
ATOM     11  O   UNL     1       5.445   3.379  20.066  0.00  0.00    +0.000 OA
ENDROOT
BRANCH  10  12
ATOM     12  C   UNL     1       5.436   4.024  17.744  0.00  0.00    +0.000 C 
BRANCH  12  13
ATOM     13  C   UNL     1       6.194   5.328  17.801  0.00  0.00    +0.000 A 
ATOM     14  C   UNL     1       5.720   6.444  17.096  0.00  0.00    +0.000 A 
ATOM     15  C   UNL     1       6.409   7.657  17.143  0.00  0.00    +0.000 A 
ATOM     16  C   UNL     1       7.581   7.757  17.890  0.00  0.00    +0.000 A 
ATOM     17 CL   UNL     1       8.429   9.252  17.955  0.00  0.00    +0.000 Cl
ATOM     18  C   UNL     1       8.072   6.650  18.582  0.00  0.00    +0.000 A 
ATOM     19  C   UNL     1       7.384   5.436  18.535  0.00  0.00    +0.000 A 
ENDBRANCH  12  13
ENDBRANCH  10  12
TORSDOF 2
ENDMDL
MODEL 5
REMARK VINA RESULT:      -7.3      3.849      6.296
REMARK  Name = 
REMARK  2 active torsions:
REMARK  status: ('A' for Active; 'I' for Inactive)
REMARK    1  A    between atoms: C_10  and  C_12
REMARK    2  A    between atoms: C_12  and  C_13
REMARK                            x       y       z     vdW  Elec       q    Type
REMARK                         _______ _______ _______ _____ _____    ______ ____
ROOT
ATOM      1  O   UNL     1       8.523   4.011  17.850  0.00  0.00    +0.000 OA
ATOM      2  C   UNL     1       7.538   4.660  17.488  0.00  0.00    +0.000 C 
ATOM      3  C   UNL     1       7.197   5.974  18.161  0.00  0.00    +0.000 C 
ATOM      4  C   UNL     1       5.768   6.412  17.841  0.00  0.00    +0.000 C 
ATOM      5  C   UNL     1       5.652   7.084  16.454  0.00  0.00    +0.000 C 
ATOM      6  C   UNL     1       5.106   5.987  15.528  0.00  0.00    +0.000 C 
ATOM      7  C   UNL     1       5.266   4.712  16.360  0.00  0.00    +0.000 C 
ATOM      8  C   UNL     1       6.721   4.222  16.290  0.00  0.00    +0.000 C 
ATOM      9  N   UNL     1       4.944   5.222  17.690  0.00  0.00    +0.000 N 
ATOM     10  C   UNL     1       3.617   5.176  18.124  0.00  0.00    +0.000 C 
ATOM     11  O   UNL     1       2.737   4.630  17.460  0.00  0.00    +0.000 OA
ENDROOT
BRANCH  10  12
ATOM     12  C   UNL     1       3.315   5.841  19.461  0.00  0.00    +0.000 C 
BRANCH  12  13
ATOM     13  C   UNL     1       2.514   7.112  19.321  0.00  0.00    +0.000 A 
ATOM     14  C   UNL     1       2.479   7.785  18.090  0.00  0.00    +0.000 A 
ATOM     15  C   UNL     1       1.740   8.960  17.946  0.00  0.00    +0.000 A 
ATOM     16  C   UNL     1       1.037   9.471  19.034  0.00  0.00    +0.000 A 
ATOM     17 CL   UNL     1       0.118  10.915  18.857  0.00  0.00    +0.000 Cl
ATOM     18  C   UNL     1       1.076   8.821  20.267  0.00  0.00    +0.000 A 
ATOM     19  C   UNL     1       1.817   7.647  20.413  0.00  0.00    +0.000 A 
ENDBRANCH  12  13
ENDBRANCH  10  12
TORSDOF 2
ENDMDL
MODEL 6
REMARK VINA RESULT:      -7.3      3.820      6.264
REMARK  Name = 
REMARK  2 active torsions:
REMARK  status: ('A' for Active; 'I' for Inactive)
REMARK    1  A    between atoms: C_10  and  C_12
REMARK    2  A    between atoms: C_12  and  C_13
REMARK                            x       y       z     vdW  Elec       q    Type
REMARK                         _______ _______ _______ _____ _____    ______ ____
ROOT
ATOM      1  O   UNL     1       8.552   4.048  17.946  0.00  0.00    +0.000 OA
ATOM      2  C   UNL     1       7.562   4.674  17.560  0.00  0.00    +0.000 C 
ATOM      3  C   UNL     1       7.166   5.972  18.234  0.00  0.00    +0.000 C 
ATOM      4  C   UNL     1       5.737   6.376  17.875  0.00  0.00    +0.000 C 
ATOM      5  C   UNL     1       5.645   7.059  16.492  0.00  0.00    +0.000 C 
ATOM      6  C   UNL     1       5.155   5.956  15.540  0.00  0.00    +0.000 C 
ATOM      7  C   UNL     1       5.323   4.678  16.366  0.00  0.00    +0.000 C 
ATOM      8  C   UNL     1       6.793   4.226  16.335  0.00  0.00    +0.000 C 
ATOM      9  N   UNL     1       4.949   5.167  17.689  0.00  0.00    +0.000 N 
ATOM     10  C   UNL     1       3.612   5.083  18.083  0.00  0.00    +0.000 C 
ATOM     11  O   UNL     1       2.766   4.521  17.388  0.00  0.00    +0.000 OA
ENDROOT
BRANCH  10  12
ATOM     12  C   UNL     1       3.253   5.727  19.416  0.00  0.00    +0.000 C 
BRANCH  12  13
ATOM     13  C   UNL     1       2.506   7.029  19.262  0.00  0.00    +0.000 A 
ATOM     14  C   UNL     1       1.914   7.633  20.381  0.00  0.00    +0.000 A 
ATOM     15  C   UNL     1       1.223   8.838  20.253  0.00  0.00    +0.000 A 
ATOM     16  C   UNL     1       1.115   9.443  19.003  0.00  0.00    +0.000 A 
ATOM     17 CL   UNL     1       0.270  10.933  18.843  0.00  0.00    +0.000 Cl
ATOM     18  C   UNL     1       1.685   8.846  17.879  0.00  0.00    +0.000 A 
ATOM     19  C   UNL     1       2.375   7.639  18.006  0.00  0.00    +0.000 A 
ENDBRANCH  12  13
ENDBRANCH  10  12
TORSDOF 2
ENDMDL
MODEL 7
REMARK VINA RESULT:      -7.0      4.441      6.744
REMARK  Name = 
REMARK  2 active torsions:
REMARK  status: ('A' for Active; 'I' for Inactive)
REMARK    1  A    between atoms: C_10  and  C_12
REMARK    2  A    between atoms: C_12  and  C_13
REMARK                            x       y       z     vdW  Elec       q    Type
REMARK                         _______ _______ _______ _____ _____    ______ ____
ROOT
ATOM      1  O   UNL     1       7.422   5.465  19.950  0.00  0.00    +0.000 OA
ATOM      2  C   UNL     1       6.630   5.440  19.006  0.00  0.00    +0.000 C 
ATOM      3  C   UNL     1       6.542   6.611  18.048  0.00  0.00    +0.000 C 
ATOM      4  C   UNL     1       5.268   6.552  17.207  0.00  0.00    +0.000 C 
ATOM      5  C   UNL     1       5.392   5.577  16.014  0.00  0.00    +0.000 C 
ATOM      6  C   UNL     1       4.678   4.297  16.476  0.00  0.00    +0.000 C 
ATOM      7  C   UNL     1       4.501   4.516  17.980  0.00  0.00    +0.000 C 
ATOM      8  C   UNL     1       5.814   4.198  18.713  0.00  0.00    +0.000 C 
ATOM      9  N   UNL     1       4.214   5.948  18.007  0.00  0.00    +0.000 N 
ATOM     10  C   UNL     1       2.885   6.369  17.928  0.00  0.00    +0.000 C 
ATOM     11  O   UNL     1       1.951   5.568  17.936  0.00  0.00    +0.000 OA
ENDROOT
BRANCH  10  12
ATOM     12  C   UNL     1       2.652   7.871  17.825  0.00  0.00    +0.000 C 
BRANCH  12  13
ATOM     13  C   UNL     1       1.863   8.427  18.985  0.00  0.00    +0.000 A 
ATOM     14  C   UNL     1       1.107   9.597  18.819  0.00  0.00    +0.000 A 
ATOM     15  C   UNL     1       0.370  10.121  19.882  0.00  0.00    +0.000 A 
ATOM     16  C   UNL     1       0.390   9.480  21.119  0.00  0.00    +0.000 A 
ATOM     17 CL   UNL     1      -0.523  10.119  22.429  0.00  0.00    +0.000 Cl
ATOM     18  C   UNL     1       1.150   8.325  21.302  0.00  0.00    +0.000 A 
ATOM     19  C   UNL     1       1.889   7.801  20.239  0.00  0.00    +0.000 A 
ENDBRANCH  12  13
ENDBRANCH  10  12
TORSDOF 2
ENDMDL
MODEL 8
REMARK VINA RESULT:      -6.9      3.746      6.495
REMARK  Name = 
REMARK  2 active torsions:
REMARK  status: ('A' for Active; 'I' for Inactive)
REMARK    1  A    between atoms: C_10  and  C_12
REMARK    2  A    between atoms: C_12  and  C_13
REMARK                            x       y       z     vdW  Elec       q    Type
REMARK                         _______ _______ _______ _____ _____    ______ ____
ROOT
ATOM      1  O   UNL     1       7.764   8.987  17.849  0.00  0.00    +0.000 OA
ATOM      2  C   UNL     1       7.486   7.795  17.706  0.00  0.00    +0.000 C 
ATOM      3  C   UNL     1       6.561   7.352  16.591  0.00  0.00    +0.000 C 
ATOM      4  C   UNL     1       6.050   5.930  16.818  0.00  0.00    +0.000 C 
ATOM      5  C   UNL     1       7.081   4.858  16.398  0.00  0.00    +0.000 C 
ATOM      6  C   UNL     1       7.742   4.411  17.710  0.00  0.00    +0.000 C 
ATOM      7  C   UNL     1       7.288   5.474  18.713  0.00  0.00    +0.000 C 
ATOM      8  C   UNL     1       8.151   6.737  18.562  0.00  0.00    +0.000 C 
ATOM      9  N   UNL     1       5.923   5.709  18.250  0.00  0.00    +0.000 N 
ATOM     10  C   UNL     1       4.888   4.947  18.797  0.00  0.00    +0.000 C 
ATOM     11  O   UNL     1       5.083   4.159  19.722  0.00  0.00    +0.000 OA
ENDROOT
BRANCH  10  12
ATOM     12  C   UNL     1       3.506   5.138  18.185  0.00  0.00    +0.000 C 
BRANCH  12  13
ATOM     13  C   UNL     1       2.833   6.413  18.630  0.00  0.00    +0.000 A 
ATOM     14  C   UNL     1       2.714   7.489  17.738  0.00  0.00    +0.000 A 
ATOM     15  C   UNL     1       2.091   8.673  18.136  0.00  0.00    +0.000 A 
ATOM     16  C   UNL     1       1.590   8.788  19.430  0.00  0.00    +0.000 A 
ATOM     17 CL   UNL     1       0.815  10.244  19.921  0.00  0.00    +0.000 Cl
ATOM     18  C   UNL     1       1.716   7.732  20.332  0.00  0.00    +0.000 A 
ATOM     19  C   UNL     1       2.341   6.548  19.936  0.00  0.00    +0.000 A 
ENDBRANCH  12  13
ENDBRANCH  10  12
TORSDOF 2
ENDMDL
MODEL 9
REMARK VINA RESULT:      -6.9      3.408      6.287
REMARK  Name = 
REMARK  2 active torsions:
REMARK  status: ('A' for Active; 'I' for Inactive)
REMARK    1  A    between atoms: C_10  and  C_12
REMARK    2  A    between atoms: C_12  and  C_13
REMARK                            x       y       z     vdW  Elec       q    Type
REMARK                         _______ _______ _______ _____ _____    ______ ____
ROOT
ATOM      1  O   UNL     1       7.303   7.619  17.714  0.00  0.00    +0.000 OA
ATOM      2  C   UNL     1       6.776   6.659  17.148  0.00  0.00    +0.000 C 
ATOM      3  C   UNL     1       5.575   6.864  16.247  0.00  0.00    +0.000 C 
ATOM      4  C   UNL     1       4.857   5.546  15.962  0.00  0.00    +0.000 C 
ATOM      5  C   UNL     1       5.553   4.721  14.856  0.00  0.00    +0.000 C 
ATOM      6  C   UNL     1       6.369   3.660  15.611  0.00  0.00    +0.000 C 
ATOM      7  C   UNL     1       6.344   4.160  17.058  0.00  0.00    +0.000 C 
ATOM      8  C   UNL     1       7.385   5.275  17.244  0.00  0.00    +0.000 C 
ATOM      9  N   UNL     1       4.985   4.689  17.131  0.00  0.00    +0.000 N 
ATOM     10  C   UNL     1       3.956   3.843  17.549  0.00  0.00    +0.000 C 
ATOM     11  O   UNL     1       4.179   2.700  17.949  0.00  0.00    +0.000 OA
ENDROOT
BRANCH  10  12
ATOM     12  C   UNL     1       2.541   4.405  17.479  0.00  0.00    +0.000 C 
BRANCH  12  13
ATOM     13  C   UNL     1       2.273   5.460  18.523  0.00  0.00    +0.000 A 
ATOM     14  C   UNL     1       1.911   5.080  19.825  0.00  0.00    +0.000 A 
ATOM     15  C   UNL     1       1.663   6.045  20.801  0.00  0.00    +0.000 A 
ATOM     16  C   UNL     1       1.769   7.396  20.479  0.00  0.00    +0.000 A 
ATOM     17 CL   UNL     1       1.471   8.589  21.683  0.00  0.00    +0.000 Cl
ATOM     18  C   UNL     1       2.111   7.788  19.186  0.00  0.00    +0.000 A 
ATOM     19  C   UNL     1       2.358   6.823  18.207  0.00  0.00    +0.000 A 
ENDBRANCH  12  13
ENDBRANCH  10  12
TORSDOF 2
ENDMDL
