MODEL 1
REMARK VINA RESULT:      -8.8      0.000      0.000
REMARK  Name = 
REMARK  6 active torsions:
REMARK  status: ('A' for Active; 'I' for Inactive)
REMARK    1  A    between atoms: N_1  and  C_2
REMARK    2  A    between atoms: C_2  and  C_3
REMARK    3  A    between atoms: C_6  and  C_7
REMARK    4  A    between atoms: C_12  and  C_13
REMARK    5  A    between atoms: C_18  and  O_19
REMARK    6  A    between atoms: C_22  and  C_23
REMARK                            x       y       z     vdW  Elec       q    Type
REMARK                         _______ _______ _______ _____ _____    ______ ____
ROOT
ATOM      1  C   UNL     1       1.613  10.776  18.744  0.00  0.00    +0.000 A 
ATOM      2  N   UNL     1       2.230  10.159  17.681  0.00  0.00    +0.000 NA
ATOM      3  C   UNL     1       2.327   8.903  18.014  0.00  0.00    +0.000 A 
ATOM      4  C   UNL     1       2.913   7.814  17.326  0.00  0.00    +0.000 A 
ATOM      5  C   UNL     1       2.917   6.587  17.876  0.00  0.00    +0.000 A 
ATOM      6  C   UNL     1       2.306   6.336  19.177  0.00  0.00    +0.000 A 
ATOM      7  C   UNL     1       1.708   7.365  19.810  0.00  0.00    +0.000 A 
ATOM      8  N   UNL     1       1.736   8.646  19.252  0.00  0.00    +0.000 N 
ATOM      9  C   UNL     1       1.253   9.867  19.738  0.00  0.00    +0.000 A 
ENDROOT
BRANCH   1  13
ATOM     10  C   UNL     1       0.875  15.002  18.741  0.00  0.00    +0.000 A 
ATOM     11  C   UNL     1      -0.146  14.062  18.487  0.00  0.00    +0.000 A 
ATOM     12  C   UNL     1       0.093  12.689  18.484  0.00  0.00    +0.000 A 
ATOM     13  C   UNL     1       1.380  12.205  18.728  0.00  0.00    +0.000 A 
ATOM     14  C   UNL     1       2.409  13.115  18.958  0.00  0.00    +0.000 A 
ATOM     15  C   UNL     1       2.151  14.480  19.013  0.00  0.00    +0.000 A 
BRANCH  10  16
ATOM     16  C   UNL     1       0.620  16.544  18.709  0.00  0.00    +0.000 C 
ATOM     17  C   UNL     1      -0.584  17.140  17.923  0.00  0.00    +0.000 C 
ATOM     18  C   UNL     1      -1.335  17.209  19.267  0.00  0.00    +0.000 C 
ATOM     19  C   UNL     1       0.042  17.256  19.962  0.00  0.00    +0.000 C 
BRANCH  16  20
ATOM     20  N   UNL     1       1.829  17.252  18.284  0.00  0.00    +0.000 NA
ATOM     21  H   UNL     1       1.614  18.152  17.848  0.00  0.00    +0.000 HD
ATOM     22  H   UNL     1       2.354  16.741  17.578  0.00  0.00    +0.000 HD
ENDBRANCH  16  20
ENDBRANCH  10  16
ENDBRANCH   1  13
BRANCH   6  23
ATOM     23  C   UNL     1       2.338   5.035  19.854  0.00  0.00    +0.000 A 
ATOM     24  C   UNL     1       1.201   4.521  20.475  0.00  0.00    +0.000 A 
ATOM     25  C   UNL     1       1.260   3.279  21.104  0.00  0.00    +0.000 A 
ATOM     26  C   UNL     1       2.463   2.591  21.091  0.00  0.00    +0.000 A 
ATOM     27  N   UNL     1       3.590   3.050  20.507  0.00  0.00    +0.000 NA
ATOM     28  C   UNL     1       3.491   4.254  19.911  0.00  0.00    +0.000 A 
BRANCH  28  29
ATOM     29  O   UNL     1       4.658   4.661  19.351  0.00  0.00    +0.000 OA
ATOM     30  H   UNL     1       4.491   5.621  19.299  0.00  0.00    +0.000 HD
ENDBRANCH  28  29
ENDBRANCH   6  23
BRANCH   9  31
ATOM     31  C   UNL     1       0.504  10.037  21.005  0.00  0.00    +0.000 A 
ATOM     32  C   UNL     1       0.859   9.354  22.170  0.00  0.00    +0.000 A 
ATOM     33  C   UNL     1       0.094   9.463  23.335  0.00  0.00    +0.000 A 
ATOM     34  C   UNL     1      -0.985  10.342  23.377  0.00  0.00    +0.000 A 
ATOM     35  C   UNL     1      -1.304  11.097  22.261  0.00  0.00    +0.000 A 
ATOM     36  C   UNL     1      -0.591  10.920  21.074  0.00  0.00    +0.000 A 
ENDBRANCH   9  31
TORSDOF 6
ENDMDL
MODEL 2
REMARK VINA RESULT:      -8.8      0.542      1.121
REMARK  Name = 
REMARK  6 active torsions:
REMARK  status: ('A' for Active; 'I' for Inactive)
REMARK    1  A    between atoms: N_1  and  C_2
REMARK    2  A    between atoms: C_2  and  C_3
REMARK    3  A    between atoms: C_6  and  C_7
REMARK    4  A    between atoms: C_12  and  C_13
REMARK    5  A    between atoms: C_18  and  O_19
REMARK    6  A    between atoms: C_22  and  C_23
REMARK                            x       y       z     vdW  Elec       q    Type
REMARK                         _______ _______ _______ _____ _____    ______ ____
ROOT
ATOM      1  C   UNL     1       1.550  10.972  18.826  0.00  0.00    +0.000 A 
ATOM      2  N   UNL     1       2.178  10.389  17.753  0.00  0.00    +0.000 NA
ATOM      3  C   UNL     1       2.288   9.127  18.055  0.00  0.00    +0.000 A 
ATOM      4  C   UNL     1       2.890   8.061  17.343  0.00  0.00    +0.000 A 
ATOM      5  C   UNL     1       2.906   6.821  17.863  0.00  0.00    +0.000 A 
ATOM      6  C   UNL     1       2.292   6.532  19.154  0.00  0.00    +0.000 A 
ATOM      7  C   UNL     1       1.679   7.538  19.809  0.00  0.00    +0.000 A 
ATOM      8  N   UNL     1       1.695   8.832  19.283  0.00  0.00    +0.000 N 
ATOM      9  C   UNL     1       1.195  10.036  19.796  0.00  0.00    +0.000 A 
ENDROOT
BRANCH   1  13
ATOM     10  C   UNL     1       0.858  15.207  18.842  0.00  0.00    +0.000 A 
ATOM     11  C   UNL     1       2.105  14.649  19.193  0.00  0.00    +0.000 A 
ATOM     12  C   UNL     1       2.330  13.273  19.193  0.00  0.00    +0.000 A 
ATOM     13  C   UNL     1       1.300  12.398  18.845  0.00  0.00    +0.000 A 
ATOM     14  C   UNL     1       0.052  12.925  18.516  0.00  0.00    +0.000 A 
ATOM     15  C   UNL     1      -0.148  14.300  18.467  0.00  0.00    +0.000 A 
BRANCH  10  16
ATOM     16  C   UNL     1       0.590  16.746  18.877  0.00  0.00    +0.000 C 
ATOM     17  C   UNL     1       1.200  17.690  17.799  0.00  0.00    +0.000 C 
ATOM     18  C   UNL     1      -0.163  17.634  17.082  0.00  0.00    +0.000 C 
ATOM     19  C   UNL     1      -0.797  17.297  18.448  0.00  0.00    +0.000 C 
BRANCH  16  20
ATOM     20  N   UNL     1       0.924  17.292  20.193  0.00  0.00    +0.000 NA
ATOM     21  H   UNL     1       1.853  17.718  20.207  0.00  0.00    +0.000 HD
ATOM     22  H   UNL     1       0.956  16.577  20.917  0.00  0.00    +0.000 HD
ENDBRANCH  16  20
ENDBRANCH  10  16
ENDBRANCH   1  13
BRANCH   6  23
ATOM     23  C   UNL     1       2.336   5.214  19.799  0.00  0.00    +0.000 A 
ATOM     24  C   UNL     1       1.194   4.660  20.377  0.00  0.00    +0.000 A 
ATOM     25  C   UNL     1       1.265   3.405  20.976  0.00  0.00    +0.000 A 
ATOM     26  C   UNL     1       2.483   2.743  20.978  0.00  0.00    +0.000 A 
ATOM     27  N   UNL     1       3.614   3.241  20.435  0.00  0.00    +0.000 NA
ATOM     28  C   UNL     1       3.503   4.458  19.866  0.00  0.00    +0.000 A 
BRANCH  28  29
ATOM     29  O   UNL     1       4.675   4.904  19.348  0.00  0.00    +0.000 OA
ATOM     30  H   UNL     1       4.371   5.177  18.462  0.00  0.00    +0.000 HD
ENDBRANCH  28  29
ENDBRANCH   6  23
BRANCH   9  31
ATOM     31  C   UNL     1       0.438  10.165  21.063  0.00  0.00    +0.000 A 
ATOM     32  C   UNL     1       0.757   9.412  22.195  0.00  0.00    +0.000 A 
ATOM     33  C   UNL     1      -0.017   9.488  23.357  0.00  0.00    +0.000 A 
ATOM     34  C   UNL     1      -1.067  10.399  23.433  0.00  0.00    +0.000 A 
ATOM     35  C   UNL     1      -1.349  11.220  22.355  0.00  0.00    +0.000 A 
ATOM     36  C   UNL     1      -0.628  11.079  21.167  0.00  0.00    +0.000 A 
ENDBRANCH   9  31
TORSDOF 6
ENDMDL
MODEL 3
REMARK VINA RESULT:      -8.8      0.689      1.275
REMARK  Name = 
REMARK  6 active torsions:
REMARK  status: ('A' for Active; 'I' for Inactive)
REMARK    1  A    between atoms: N_1  and  C_2
REMARK    2  A    between atoms: C_2  and  C_3
REMARK    3  A    between atoms: C_6  and  C_7
REMARK    4  A    between atoms: C_12  and  C_13
REMARK    5  A    between atoms: C_18  and  O_19
REMARK    6  A    between atoms: C_22  and  C_23
REMARK                            x       y       z     vdW  Elec       q    Type
REMARK                         _______ _______ _______ _____ _____    ______ ____
ROOT
ATOM      1  C   UNL     1       1.526  10.971  18.821  0.00  0.00    +0.000 A 
ATOM      2  N   UNL     1       2.176  10.395  17.757  0.00  0.00    +0.000 NA
ATOM      3  C   UNL     1       2.295   9.134  18.060  0.00  0.00    +0.000 A 
ATOM      4  C   UNL     1       2.919   8.075  17.356  0.00  0.00    +0.000 A 
ATOM      5  C   UNL     1       2.940   6.835  17.876  0.00  0.00    +0.000 A 
ATOM      6  C   UNL     1       2.310   6.538  19.157  0.00  0.00    +0.000 A 
ATOM      7  C   UNL     1       1.677   7.537  19.804  0.00  0.00    +0.000 A 
ATOM      8  N   UNL     1       1.687   8.832  19.279  0.00  0.00    +0.000 N 
ATOM      9  C   UNL     1       1.167  10.030  19.786  0.00  0.00    +0.000 A 
ENDROOT
BRANCH   1  13
ATOM     10  C   UNL     1       0.689  15.179  18.903  0.00  0.00    +0.000 A 
ATOM     11  C   UNL     1      -0.262  14.233  18.465  0.00  0.00    +0.000 A 
ATOM     12  C   UNL     1       0.010  12.866  18.434  0.00  0.00    +0.000 A 
ATOM     13  C   UNL     1       1.261  12.395  18.837  0.00  0.00    +0.000 A 
ATOM     14  C   UNL     1       2.224  13.312  19.251  0.00  0.00    +0.000 A 
ATOM     15  C   UNL     1       1.926  14.668  19.330  0.00  0.00    +0.000 A 
BRANCH  10  16
ATOM     16  C   UNL     1       0.402  16.715  18.905  0.00  0.00    +0.000 C 
ATOM     17  C   UNL     1       1.545  17.743  18.658  0.00  0.00    +0.000 C 
ATOM     18  C   UNL     1       1.062  17.820  17.197  0.00  0.00    +0.000 C 
ATOM     19  C   UNL     1      -0.325  17.365  17.696  0.00  0.00    +0.000 C 
BRANCH  16  20
ATOM     20  N   UNL     1      -0.294  17.102  20.133  0.00  0.00    +0.000 NA
ATOM     21  H   UNL     1       0.236  17.790  20.674  0.00  0.00    +0.000 HD
ATOM     22  H   UNL     1      -0.428  16.320  20.771  0.00  0.00    +0.000 HD
ENDBRANCH  16  20
ENDBRANCH  10  16
ENDBRANCH   1  13
BRANCH   6  23
ATOM     23  C   UNL     1       2.358   5.221  19.803  0.00  0.00    +0.000 A 
ATOM     24  C   UNL     1       1.225   4.675  20.404  0.00  0.00    +0.000 A 
ATOM     25  C   UNL     1       1.299   3.420  21.003  0.00  0.00    +0.000 A 
ATOM     26  C   UNL     1       2.513   2.749  20.979  0.00  0.00    +0.000 A 
ATOM     27  N   UNL     1       3.636   3.239  20.413  0.00  0.00    +0.000 NA
ATOM     28  C   UNL     1       3.521   4.457  19.846  0.00  0.00    +0.000 A 
BRANCH  28  29
ATOM     29  O   UNL     1       4.685   4.894  19.302  0.00  0.00    +0.000 OA
ATOM     30  H   UNL     1       5.154   4.044  19.210  0.00  0.00    +0.000 HD
ENDBRANCH  28  29
ENDBRANCH   6  23
BRANCH   9  31
ATOM     31  C   UNL     1       0.390  10.151  21.041  0.00  0.00    +0.000 A 
ATOM     32  C   UNL     1      -0.701  11.016  21.155  0.00  0.00    +0.000 A 
ATOM     33  C   UNL     1      -1.373  11.177  22.370  0.00  0.00    +0.000 A 
ATOM     34  C   UNL     1      -1.022  10.395  23.467  0.00  0.00    +0.000 A 
ATOM     35  C   UNL     1      -0.001   9.467  23.354  0.00  0.00    +0.000 A 
ATOM     36  C   UNL     1       0.725   9.371  22.165  0.00  0.00    +0.000 A 
ENDBRANCH   9  31
TORSDOF 6
ENDMDL
MODEL 4
REMARK VINA RESULT:      -8.7      1.036      1.443
REMARK  Name = 
REMARK  6 active torsions:
REMARK  status: ('A' for Active; 'I' for Inactive)
REMARK    1  A    between atoms: N_1  and  C_2
REMARK    2  A    between atoms: C_2  and  C_3
REMARK    3  A    between atoms: C_6  and  C_7
REMARK    4  A    between atoms: C_12  and  C_13
REMARK    5  A    between atoms: C_18  and  O_19
REMARK    6  A    between atoms: C_22  and  C_23
REMARK                            x       y       z     vdW  Elec       q    Type
REMARK                         _______ _______ _______ _____ _____    ______ ____
ROOT
ATOM      1  C   UNL     1       1.598  10.942  18.780  0.00  0.00    +0.000 A 
ATOM      2  N   UNL     1       2.241  10.335  17.729  0.00  0.00    +0.000 NA
ATOM      3  C   UNL     1       2.260   9.065  18.016  0.00  0.00    +0.000 A 
ATOM      4  C   UNL     1       2.830   7.973  17.318  0.00  0.00    +0.000 A 
ATOM      5  C   UNL     1       2.746   6.728  17.819  0.00  0.00    +0.000 A 
ATOM      6  C   UNL     1       2.055   6.461  19.075  0.00  0.00    +0.000 A 
ATOM      7  C   UNL     1       1.473   7.494  19.716  0.00  0.00    +0.000 A 
ATOM      8  N   UNL     1       1.592   8.792  19.211  0.00  0.00    +0.000 N 
ATOM      9  C   UNL     1       1.142  10.017  19.718  0.00  0.00    +0.000 A 
ENDROOT
BRANCH   1  13
ATOM     10  C   UNL     1       1.063  15.197  18.905  0.00  0.00    +0.000 A 
ATOM     11  C   UNL     1       0.013  14.319  18.566  0.00  0.00    +0.000 A 
ATOM     12  C   UNL     1       0.186  12.936  18.521  0.00  0.00    +0.000 A 
ATOM     13  C   UNL     1       1.434  12.380  18.809  0.00  0.00    +0.000 A 
ATOM     14  C   UNL     1       2.493  13.230  19.123  0.00  0.00    +0.000 A 
ATOM     15  C   UNL     1       2.298  14.603  19.219  0.00  0.00    +0.000 A 
BRANCH  10  16
ATOM     16  C   UNL     1       0.884  16.750  18.920  0.00  0.00    +0.000 C 
ATOM     17  C   UNL     1       1.376  17.625  17.729  0.00  0.00    +0.000 C 
ATOM     18  C   UNL     1      -0.080  17.625  17.223  0.00  0.00    +0.000 C 
ATOM     19  C   UNL     1      -0.520  17.366  18.679  0.00  0.00    +0.000 C 
BRANCH  16  20
ATOM     20  N   UNL     1       1.439  17.314  20.152  0.00  0.00    +0.000 NA
ATOM     21  H   UNL     1       0.719  17.470  20.861  0.00  0.00    +0.000 HD
ATOM     22  H   UNL     1       1.863  18.228  20.007  0.00  0.00    +0.000 HD
ENDBRANCH  16  20
ENDBRANCH  10  16
ENDBRANCH   1  13
BRANCH   6  23
ATOM     23  C   UNL     1       1.988   5.135  19.702  0.00  0.00    +0.000 A 
ATOM     24  C   UNL     1       2.332   4.956  21.041  0.00  0.00    +0.000 A 
ATOM     25  C   UNL     1       2.252   3.688  21.610  0.00  0.00    +0.000 A 
ATOM     26  C   UNL     1       1.829   2.634  20.814  0.00  0.00    +0.000 A 
ATOM     27  N   UNL     1       1.490   2.759  19.514  0.00  0.00    +0.000 NA
ATOM     28  C   UNL     1       1.582   4.002  19.002  0.00  0.00    +0.000 A 
BRANCH  28  29
ATOM     29  O   UNL     1       1.236   4.057  17.691  0.00  0.00    +0.000 OA
ATOM     30  H   UNL     1       2.050   4.446  17.321  0.00  0.00    +0.000 HD
ENDBRANCH  28  29
ENDBRANCH   6  23
BRANCH   9  31
ATOM     31  C   UNL     1       0.334  10.177  20.950  0.00  0.00    +0.000 A 
ATOM     32  C   UNL     1      -0.751  11.054  21.013  0.00  0.00    +0.000 A 
ATOM     33  C   UNL     1      -1.452  11.253  22.207  0.00  0.00    +0.000 A 
ATOM     34  C   UNL     1      -1.137  10.496  23.331  0.00  0.00    +0.000 A 
ATOM     35  C   UNL     1      -0.123   9.556  23.269  0.00  0.00    +0.000 A 
ATOM     36  C   UNL     1       0.632   9.423  22.101  0.00  0.00    +0.000 A 
ENDBRANCH   9  31
TORSDOF 6
ENDMDL
MODEL 5
REMARK VINA RESULT:      -8.6      3.411      9.630
REMARK  Name = 
REMARK  6 active torsions:
REMARK  status: ('A' for Active; 'I' for Inactive)
REMARK    1  A    between atoms: N_1  and  C_2
REMARK    2  A    between atoms: C_2  and  C_3
REMARK    3  A    between atoms: C_6  and  C_7
REMARK    4  A    between atoms: C_12  and  C_13
REMARK    5  A    between atoms: C_18  and  O_19
REMARK    6  A    between atoms: C_22  and  C_23
REMARK                            x       y       z     vdW  Elec       q    Type
REMARK                         _______ _______ _______ _____ _____    ______ ____
ROOT
ATOM      1  C   UNL     1       0.841  11.028  20.142  0.00  0.00    +0.000 A 
ATOM      2  N   UNL     1       1.552  11.902  20.928  0.00  0.00    +0.000 NA
ATOM      3  C   UNL     1       0.993  13.065  20.753  0.00  0.00    +0.000 A 
ATOM      4  C   UNL     1       1.333  14.337  21.275  0.00  0.00    +0.000 A 
ATOM      5  C   UNL     1       0.616  15.423  20.938  0.00  0.00    +0.000 A 
ATOM      6  C   UNL     1      -0.536  15.326  20.049  0.00  0.00    +0.000 A 
ATOM      7  C   UNL     1      -0.886  14.109  19.589  0.00  0.00    +0.000 A 
ATOM      8  N   UNL     1      -0.119  12.987  19.912  0.00  0.00    +0.000 N 
ATOM      9  C   UNL     1      -0.237  11.650  19.512  0.00  0.00    +0.000 A 
ENDROOT
BRANCH   1  13
ATOM     10  C   UNL     1       2.031   6.913  19.900  0.00  0.00    +0.000 A 
ATOM     11  C   UNL     1       2.253   7.822  18.844  0.00  0.00    +0.000 A 
ATOM     12  C   UNL     1       1.864   9.158  18.919  0.00  0.00    +0.000 A 
ATOM     13  C   UNL     1       1.222   9.633  20.065  0.00  0.00    +0.000 A 
ATOM     14  C   UNL     1       0.971   8.748  21.111  0.00  0.00    +0.000 A 
ATOM     15  C   UNL     1       1.411   7.431  21.050  0.00  0.00    +0.000 A 
BRANCH  10  16
ATOM     16  C   UNL     1       2.432   5.406  19.805  0.00  0.00    +0.000 C 
ATOM     17  C   UNL     1       2.093   4.413  20.956  0.00  0.00    +0.000 C 
ATOM     18  C   UNL     1       0.876   3.972  20.120  0.00  0.00    +0.000 C 
ATOM     19  C   UNL     1       1.640   4.453  18.869  0.00  0.00    +0.000 C 
BRANCH  16  20
ATOM     20  N   UNL     1       3.859   5.276  19.507  0.00  0.00    +0.000 NA
ATOM     21  H   UNL     1       4.250   4.403  19.869  0.00  0.00    +0.000 HD
ATOM     22  H   UNL     1       4.418   6.009  19.938  0.00  0.00    +0.000 HD
ENDBRANCH  16  20
ENDBRANCH  10  16
ENDBRANCH   1  13
BRANCH   6  23
ATOM     23  C   UNL     1      -1.314  16.485  19.595  0.00  0.00    +0.000 A 
ATOM     24  C   UNL     1      -0.907  17.236  18.493  0.00  0.00    +0.000 A 
ATOM     25  C   UNL     1      -1.670  18.326  18.082  0.00  0.00    +0.000 A 
ATOM     26  C   UNL     1      -2.821  18.630  18.793  0.00  0.00    +0.000 A 
ATOM     27  N   UNL     1      -3.251  17.935  19.867  0.00  0.00    +0.000 NA
ATOM     28  C   UNL     1      -2.484  16.889  20.232  0.00  0.00    +0.000 A 
BRANCH  28  29
ATOM     29  O   UNL     1      -2.967  16.239  21.321  0.00  0.00    +0.000 OA
ATOM     30  H   UNL     1      -3.406  15.487  20.883  0.00  0.00    +0.000 HD
ENDBRANCH  28  29
ENDBRANCH   6  23
BRANCH   9  31
ATOM     31  C   UNL     1      -1.320  11.116  18.655  0.00  0.00    +0.000 A 
ATOM     32  C   UNL     1      -1.068  10.207  17.625  0.00  0.00    +0.000 A 
ATOM     33  C   UNL     1      -2.090   9.775  16.774  0.00  0.00    +0.000 A 
ATOM     34  C   UNL     1      -3.403  10.173  17.009  0.00  0.00    +0.000 A 
ATOM     35  C   UNL     1      -3.692  11.004  18.077  0.00  0.00    +0.000 A 
ATOM     36  C   UNL     1      -2.657  11.503  18.871  0.00  0.00    +0.000 A 
ENDBRANCH   9  31
TORSDOF 6
ENDMDL
MODEL 6
REMARK VINA RESULT:      -8.6      0.956      1.547
REMARK  Name = 
REMARK  6 active torsions:
REMARK  status: ('A' for Active; 'I' for Inactive)
REMARK    1  A    between atoms: N_1  and  C_2
REMARK    2  A    between atoms: C_2  and  C_3
REMARK    3  A    between atoms: C_6  and  C_7
REMARK    4  A    between atoms: C_12  and  C_13
REMARK    5  A    between atoms: C_18  and  O_19
REMARK    6  A    between atoms: C_22  and  C_23
REMARK                            x       y       z     vdW  Elec       q    Type
REMARK                         _______ _______ _______ _____ _____    ______ ____
ROOT
ATOM      1  C   UNL     1       1.644  10.891  18.772  0.00  0.00    +0.000 A 
ATOM      2  N   UNL     1       2.287  10.271  17.728  0.00  0.00    +0.000 NA
ATOM      3  C   UNL     1       2.293   9.002  18.025  0.00  0.00    +0.000 A 
ATOM      4  C   UNL     1       2.857   7.901  17.337  0.00  0.00    +0.000 A 
ATOM      5  C   UNL     1       2.759   6.660  17.846  0.00  0.00    +0.000 A 
ATOM      6  C   UNL     1       2.060   6.408  19.101  0.00  0.00    +0.000 A 
ATOM      7  C   UNL     1       1.483   7.451  19.731  0.00  0.00    +0.000 A 
ATOM      8  N   UNL     1       1.617   8.744  19.218  0.00  0.00    +0.000 N 
ATOM      9  C   UNL     1       1.175   9.977  19.714  0.00  0.00    +0.000 A 
ENDROOT
BRANCH   1  13
ATOM     10  C   UNL     1       1.245  15.163  18.784  0.00  0.00    +0.000 A 
ATOM     11  C   UNL     1       2.450  14.521  19.142  0.00  0.00    +0.000 A 
ATOM     12  C   UNL     1       2.580  13.133  19.142  0.00  0.00    +0.000 A 
ATOM     13  C   UNL     1       1.493  12.331  18.789  0.00  0.00    +0.000 A 
ATOM     14  C   UNL     1       0.286  12.942  18.455  0.00  0.00    +0.000 A 
ATOM     15  C   UNL     1       0.181  14.327  18.404  0.00  0.00    +0.000 A 
BRANCH  10  16
ATOM     16  C   UNL     1       1.083  16.717  18.818  0.00  0.00    +0.000 C 
ATOM     17  C   UNL     1      -0.262  17.391  18.416  0.00  0.00    +0.000 C 
ATOM     18  C   UNL     1      -0.579  17.489  19.921  0.00  0.00    +0.000 C 
ATOM     19  C   UNL     1       0.942  17.449  20.180  0.00  0.00    +0.000 C 
BRANCH  16  20
ATOM     20  N   UNL     1       2.153  17.357  18.051  0.00  0.00    +0.000 NA
ATOM     21  H   UNL     1       2.344  16.867  17.174  0.00  0.00    +0.000 HD
ATOM     22  H   UNL     1       3.043  17.359  18.545  0.00  0.00    +0.000 HD
ENDBRANCH  16  20
ENDBRANCH  10  16
ENDBRANCH   1  13
BRANCH   6  23
ATOM     23  C   UNL     1       1.978   5.088  19.736  0.00  0.00    +0.000 A 
ATOM     24  C   UNL     1       2.333   4.912  21.073  0.00  0.00    +0.000 A 
ATOM     25  C   UNL     1       2.239   3.648  21.651  0.00  0.00    +0.000 A 
ATOM     26  C   UNL     1       1.789   2.596  20.866  0.00  0.00    +0.000 A 
ATOM     27  N   UNL     1       1.438   2.719  19.569  0.00  0.00    +0.000 NA
ATOM     28  C   UNL     1       1.545   3.957  19.048  0.00  0.00    +0.000 A 
BRANCH  28  29
ATOM     29  O   UNL     1       1.186   4.010  17.741  0.00  0.00    +0.000 OA
ATOM     30  H   UNL     1       1.883   3.449  17.354  0.00  0.00    +0.000 HD
ENDBRANCH  28  29
ENDBRANCH   6  23
BRANCH   9  31
ATOM     31  C   UNL     1       0.363  10.153  20.940  0.00  0.00    +0.000 A 
ATOM     32  C   UNL     1      -0.716  11.038  20.992  0.00  0.00    +0.000 A 
ATOM     33  C   UNL     1      -1.422  11.251  22.180  0.00  0.00    +0.000 A 
ATOM     34  C   UNL     1      -1.117  10.502  23.312  0.00  0.00    +0.000 A 
ATOM     35  C   UNL     1      -0.109   9.554  23.262  0.00  0.00    +0.000 A 
ATOM     36  C   UNL     1       0.650   9.406  22.100  0.00  0.00    +0.000 A 
ENDBRANCH   9  31
TORSDOF 6
ENDMDL
MODEL 7
REMARK VINA RESULT:      -8.6      3.297      9.581
REMARK  Name = 
REMARK  6 active torsions:
REMARK  status: ('A' for Active; 'I' for Inactive)
REMARK    1  A    between atoms: N_1  and  C_2
REMARK    2  A    between atoms: C_2  and  C_3
REMARK    3  A    between atoms: C_6  and  C_7
REMARK    4  A    between atoms: C_12  and  C_13
REMARK    5  A    between atoms: C_18  and  O_19
REMARK    6  A    between atoms: C_22  and  C_23
REMARK                            x       y       z     vdW  Elec       q    Type
REMARK                         _______ _______ _______ _____ _____    ______ ____
ROOT
ATOM      1  C   UNL     1       0.747  11.022  20.240  0.00  0.00    +0.000 A 
ATOM      2  N   UNL     1       1.419  11.891  21.066  0.00  0.00    +0.000 NA
ATOM      3  C   UNL     1       0.844  13.048  20.899  0.00  0.00    +0.000 A 
ATOM      4  C   UNL     1       1.146  14.312  21.459  0.00  0.00    +0.000 A 
ATOM      5  C   UNL     1       0.421  15.394  21.123  0.00  0.00    +0.000 A 
ATOM      6  C   UNL     1      -0.702  15.297  20.197  0.00  0.00    +0.000 A 
ATOM      7  C   UNL     1      -1.017  14.084  19.700  0.00  0.00    +0.000 A 
ATOM      8  N   UNL     1      -0.239  12.969  20.023  0.00  0.00    +0.000 N 
ATOM      9  C   UNL     1      -0.322  11.639  19.591  0.00  0.00    +0.000 A 
ENDROOT
BRANCH   1  13
ATOM     10  C   UNL     1       2.015   6.934  19.943  0.00  0.00    +0.000 A 
ATOM     11  C   UNL     1       2.191   7.853  18.887  0.00  0.00    +0.000 A 
ATOM     12  C   UNL     1       1.776   9.180  18.981  0.00  0.00    +0.000 A 
ATOM     13  C   UNL     1       1.155   9.636  20.145  0.00  0.00    +0.000 A 
ATOM     14  C   UNL     1       0.949   8.740  21.193  0.00  0.00    +0.000 A 
ATOM     15  C   UNL     1       1.415   7.433  21.112  0.00  0.00    +0.000 A 
BRANCH  10  16
ATOM     16  C   UNL     1       2.445   5.436  19.830  0.00  0.00    +0.000 C 
ATOM     17  C   UNL     1       2.082   4.412  20.945  0.00  0.00    +0.000 C 
ATOM     18  C   UNL     1       0.903   3.971  20.056  0.00  0.00    +0.000 C 
ATOM     19  C   UNL     1       1.703   4.493  18.844  0.00  0.00    +0.000 C 
BRANCH  16  20
ATOM     20  N   UNL     1       3.884   5.336  19.580  0.00  0.00    +0.000 NA
ATOM     21  H   UNL     1       4.278   4.465  19.942  0.00  0.00    +0.000 HD
ATOM     22  H   UNL     1       4.414   6.072  20.042  0.00  0.00    +0.000 HD
ENDBRANCH  16  20
ENDBRANCH  10  16
ENDBRANCH   1  13
BRANCH   6  23
ATOM     23  C   UNL     1      -1.486  16.452  19.744  0.00  0.00    +0.000 A 
ATOM     24  C   UNL     1      -2.696  16.780  20.353  0.00  0.00    +0.000 A 
ATOM     25  C   UNL     1      -3.415  17.887  19.906  0.00  0.00    +0.000 A 
ATOM     26  C   UNL     1      -2.895  18.631  18.858  0.00  0.00    +0.000 A 
ATOM     27  N   UNL     1      -1.731  18.349  18.237  0.00  0.00    +0.000 NA
ATOM     28  C   UNL     1      -1.067  17.271  18.698  0.00  0.00    +0.000 A 
BRANCH  28  29
ATOM     29  O   UNL     1       0.088  17.038  18.027  0.00  0.00    +0.000 OA
ATOM     30  H   UNL     1       0.732  17.343  18.693  0.00  0.00    +0.000 HD
ENDBRANCH  28  29
ENDBRANCH   6  23
BRANCH   9  31
ATOM     31  C   UNL     1      -1.369  11.106  18.689  0.00  0.00    +0.000 A 
ATOM     32  C   UNL     1      -1.075  10.195  17.672  0.00  0.00    +0.000 A 
ATOM     33  C   UNL     1      -2.061   9.763  16.780  0.00  0.00    +0.000 A 
ATOM     34  C   UNL     1      -3.382  10.164  16.958  0.00  0.00    +0.000 A 
ATOM     35  C   UNL     1      -3.715  10.997  18.013  0.00  0.00    +0.000 A 
ATOM     36  C   UNL     1      -2.713  11.495  18.849  0.00  0.00    +0.000 A 
ENDBRANCH   9  31
TORSDOF 6
ENDMDL
MODEL 8
REMARK VINA RESULT:      -8.5      3.395      9.568
REMARK  Name = 
REMARK  6 active torsions:
REMARK  status: ('A' for Active; 'I' for Inactive)
REMARK    1  A    between atoms: N_1  and  C_2
REMARK    2  A    between atoms: C_2  and  C_3
REMARK    3  A    between atoms: C_6  and  C_7
REMARK    4  A    between atoms: C_12  and  C_13
REMARK    5  A    between atoms: C_18  and  O_19
REMARK    6  A    between atoms: C_22  and  C_23
REMARK                            x       y       z     vdW  Elec       q    Type
REMARK                         _______ _______ _______ _____ _____    ______ ____
ROOT
ATOM      1  C   UNL     1       0.748  11.060  20.061  0.00  0.00    +0.000 A 
ATOM      2  N   UNL     1       1.431  11.902  20.905  0.00  0.00    +0.000 NA
ATOM      3  C   UNL     1       0.802  13.041  20.847  0.00  0.00    +0.000 A 
ATOM      4  C   UNL     1       1.085  14.280  21.473  0.00  0.00    +0.000 A 
ATOM      5  C   UNL     1       0.298  15.347  21.250  0.00  0.00    +0.000 A 
ATOM      6  C   UNL     1      -0.870  15.262  20.382  0.00  0.00    +0.000 A 
ATOM      7  C   UNL     1      -1.165  14.070  19.823  0.00  0.00    +0.000 A 
ATOM      8  N   UNL     1      -0.326  12.971  20.028  0.00  0.00    +0.000 N 
ATOM      9  C   UNL     1      -0.380  11.670  19.514  0.00  0.00    +0.000 A 
ENDROOT
BRANCH   1  13
ATOM     10  C   UNL     1       2.161   7.058  19.425  0.00  0.00    +0.000 A 
ATOM     11  C   UNL     1       2.267   8.058  18.435  0.00  0.00    +0.000 A 
ATOM     12  C   UNL     1       1.805   9.357  18.639  0.00  0.00    +0.000 A 
ATOM     13  C   UNL     1       1.205   9.702  19.852  0.00  0.00    +0.000 A 
ATOM     14  C   UNL     1       1.069   8.725  20.836  0.00  0.00    +0.000 A 
ATOM     15  C   UNL     1       1.581   7.447  20.645  0.00  0.00    +0.000 A 
BRANCH  10  16
ATOM     16  C   UNL     1       2.643   5.591  19.189  0.00  0.00    +0.000 C 
ATOM     17  C   UNL     1       1.659   4.393  19.324  0.00  0.00    +0.000 C 
ATOM     18  C   UNL     1       1.525   4.423  17.789  0.00  0.00    +0.000 C 
ATOM     19  C   UNL     1       2.914   5.092  17.744  0.00  0.00    +0.000 C 
BRANCH  16  20
ATOM     20  N   UNL     1       3.819   5.302  20.013  0.00  0.00    +0.000 NA
ATOM     21  H   UNL     1       3.638   4.560  20.692  0.00  0.00    +0.000 HD
ATOM     22  H   UNL     1       4.111   6.101  20.572  0.00  0.00    +0.000 HD
ENDBRANCH  16  20
ENDBRANCH  10  16
ENDBRANCH   1  13
BRANCH   6  23
ATOM     23  C   UNL     1      -1.725  16.408  20.051  0.00  0.00    +0.000 A 
ATOM     24  C   UNL     1      -2.880  16.677  20.783  0.00  0.00    +0.000 A 
ATOM     25  C   UNL     1      -3.668  17.776  20.450  0.00  0.00    +0.000 A 
ATOM     26  C   UNL     1      -3.271  18.573  19.388  0.00  0.00    +0.000 A 
ATOM     27  N   UNL     1      -2.164  18.350  18.649  0.00  0.00    +0.000 NA
ATOM     28  C   UNL     1      -1.431  17.276  19.003  0.00  0.00    +0.000 A 
BRANCH  28  29
ATOM     29  O   UNL     1      -0.339  17.104  18.217  0.00  0.00    +0.000 OA
ATOM     30  H   UNL     1      -0.296  16.129  18.205  0.00  0.00    +0.000 HD
ENDBRANCH  28  29
ENDBRANCH   6  23
BRANCH   9  31
ATOM     31  C   UNL     1      -1.455  11.151  18.638  0.00  0.00    +0.000 A 
ATOM     32  C   UNL     1      -2.793  11.510  18.817  0.00  0.00    +0.000 A 
ATOM     33  C   UNL     1      -3.805  10.948  18.033  0.00  0.00    +0.000 A 
ATOM     34  C   UNL     1      -3.477  10.091  16.986  0.00  0.00    +0.000 A 
ATOM     35  C   UNL     1      -2.150   9.788  16.732  0.00  0.00    +0.000 A 
ATOM     36  C   UNL     1      -1.150  10.282  17.572  0.00  0.00    +0.000 A 
ENDBRANCH   9  31
TORSDOF 6
ENDMDL
MODEL 9
REMARK VINA RESULT:      -8.4      4.126      9.464
REMARK  Name = 
REMARK  6 active torsions:
REMARK  status: ('A' for Active; 'I' for Inactive)
REMARK    1  A    between atoms: N_1  and  C_2
REMARK    2  A    between atoms: C_2  and  C_3
REMARK    3  A    between atoms: C_6  and  C_7
REMARK    4  A    between atoms: C_12  and  C_13
REMARK    5  A    between atoms: C_18  and  O_19
REMARK    6  A    between atoms: C_22  and  C_23
REMARK                            x       y       z     vdW  Elec       q    Type
REMARK                         _______ _______ _______ _____ _____    ______ ____
ROOT
ATOM      1  C   UNL     1      -0.102  10.512  20.495  0.00  0.00    +0.000 A 
ATOM      2  N   UNL     1       0.105  10.990  21.767  0.00  0.00    +0.000 NA
ATOM      3  C   UNL     1      -0.809  11.900  21.952  0.00  0.00    +0.000 A 
ATOM      4  C   UNL     1      -1.047  12.751  23.058  0.00  0.00    +0.000 A 
ATOM      5  C   UNL     1      -2.052  13.644  23.022  0.00  0.00    +0.000 A 
ATOM      6  C   UNL     1      -2.932  13.751  21.865  0.00  0.00    +0.000 A 
ATOM      7  C   UNL     1      -2.733  12.909  20.831  0.00  0.00    +0.000 A 
ATOM      8  N   UNL     1      -1.666  12.006  20.856  0.00  0.00    +0.000 N 
ATOM      9  C   UNL     1      -1.219  11.090  19.895  0.00  0.00    +0.000 A 
ENDROOT
BRANCH   1  13
ATOM     10  C   UNL     1       2.451   7.472  18.867  0.00  0.00    +0.000 A 
ATOM     11  C   UNL     1       2.005   7.440  20.205  0.00  0.00    +0.000 A 
ATOM     12  C   UNL     1       1.179   8.428  20.736  0.00  0.00    +0.000 A 
ATOM     13  C   UNL     1       0.774   9.501  19.940  0.00  0.00    +0.000 A 
ATOM     14  C   UNL     1       1.221   9.567  18.622  0.00  0.00    +0.000 A 
ATOM     15  C   UNL     1       2.000   8.549  18.084  0.00  0.00    +0.000 A 
BRANCH  10  16
ATOM     16  C   UNL     1       3.407   6.386  18.276  0.00  0.00    +0.000 C 
ATOM     17  C   UNL     1       4.347   5.559  19.202  0.00  0.00    +0.000 C 
ATOM     18  C   UNL     1       3.297   4.433  19.141  0.00  0.00    +0.000 C 
ATOM     19  C   UNL     1       2.828   5.027  17.797  0.00  0.00    +0.000 C 
BRANCH  16  20
ATOM     20  N   UNL     1       4.221   6.954  17.201  0.00  0.00    +0.000 NA
ATOM     21  H   UNL     1       3.879   6.683  16.276  0.00  0.00    +0.000 HD
ATOM     22  H   UNL     1       5.185   6.630  17.226  0.00  0.00    +0.000 HD
ENDBRANCH  16  20
ENDBRANCH  10  16
ENDBRANCH   1  13
BRANCH   6  23
ATOM     23  C   UNL     1      -4.001  14.749  21.744  0.00  0.00    +0.000 A 
ATOM     24  C   UNL     1      -3.828  15.896  20.971  0.00  0.00    +0.000 A 
ATOM     25  C   UNL     1      -4.863  16.823  20.869  0.00  0.00    +0.000 A 
ATOM     26  C   UNL     1      -6.044  16.568  21.550  0.00  0.00    +0.000 A 
ATOM     27  N   UNL     1      -6.255  15.475  22.312  0.00  0.00    +0.000 NA
ATOM     28  C   UNL     1      -5.229  14.605  22.385  0.00  0.00    +0.000 A 
BRANCH  28  29
ATOM     29  O   UNL     1      -5.503  13.534  23.172  0.00  0.00    +0.000 OA
ATOM     30  H   UNL     1      -5.944  13.984  23.916  0.00  0.00    +0.000 HD
ENDBRANCH  28  29
ENDBRANCH   6  23
BRANCH   9  31
ATOM     31  C   UNL     1      -1.881  10.839  18.594  0.00  0.00    +0.000 A 
ATOM     32  C   UNL     1      -2.649   9.695  18.364  0.00  0.00    +0.000 A 
ATOM     33  C   UNL     1      -3.201   9.433  17.106  0.00  0.00    +0.000 A 
ATOM     34  C   UNL     1      -3.072  10.369  16.084  0.00  0.00    +0.000 A 
ATOM     35  C   UNL     1      -2.390  11.552  16.313  0.00  0.00    +0.000 A 
ATOM     36  C   UNL     1      -1.767  11.770  17.543  0.00  0.00    +0.000 A 
ENDBRANCH   9  31
TORSDOF 6
ENDMDL
