MODEL 1
REMARK VINA RESULT:      -6.7      0.000      0.000
REMARK  Name = 
REMARK  0 active torsions:
REMARK  status: ('A' for Active; 'I' for Inactive)
REMARK                            x       y       z     vdW  Elec       q    Type
REMARK                         _______ _______ _______ _____ _____    ______ ____
ROOT
ATOM      1  O   UNL     1       0.217   9.909  18.172  0.00  0.00    +0.000 OA
ATOM      2  C   UNL     1       0.438   9.341  19.249  0.00  0.00    +0.000 C 
ATOM      3  N   UNL     1      -0.351   9.659  20.341  0.00  0.00    +0.000 N 
ATOM      4  C   UNL     1      -1.213  10.846  20.243  0.00  0.00    +0.000 C 
ATOM      5  C   UNL     1      -0.872  11.870  21.339  0.00  0.00    +0.000 C 
ATOM      6  C   UNL     1      -0.735  11.246  22.732  0.00  0.00    +0.000 C 
ATOM      7  C   UNL     1       0.137   9.994  22.691  0.00  0.00    +0.000 C 
ATOM      8  C   UNL     1      -0.446   9.043  21.653  0.00  0.00    +0.000 C 
ATOM      9  N   UNL     1       1.467   8.422  19.329  0.00  0.00    +0.000 N 
ATOM     10  C   UNL     1       2.040   7.758  20.497  0.00  0.00    +0.000 C 
ATOM     11  C   UNL     1       1.471   6.354  20.692  0.00  0.00    +0.000 C 
ATOM     12  C   UNL     1       1.813   5.346  19.599  0.00  0.00    +0.000 C 
ATOM     13  N   UNL     1       2.854   5.788  18.669  0.00  0.00    +0.000 N 
ATOM     14  C   UNL     1       4.075   5.136  18.742  0.00  0.00    +0.000 C 
ATOM     15  O   UNL     1       4.200   4.156  19.486  0.00  0.00    +0.000 OA
ATOM     16  N   UNL     1       5.163   5.554  17.998  0.00  0.00    +0.000 N 
ATOM     17  C   UNL     1       6.293   4.628  17.849  0.00  0.00    +0.000 C 
ATOM     18  C   UNL     1       7.625   5.266  18.249  0.00  0.00    +0.000 C 
ATOM     19  C   UNL     1       7.852   6.582  17.515  0.00  0.00    +0.000 C 
ATOM     20  C   UNL     1       6.676   7.511  17.762  0.00  0.00    +0.000 C 
ATOM     21  C   UNL     1       5.369   6.842  17.352  0.00  0.00    +0.000 C 
ATOM     22  C   UNL     1       2.361   6.738  17.650  0.00  0.00    +0.000 C 
ATOM     23  C   UNL     1       2.272   8.212  18.115  0.00  0.00    +0.000 C 
ENDROOT
TORSDOF 0
ENDMDL
MODEL 2
REMARK VINA RESULT:      -6.6      2.417      7.942
REMARK  Name = 
REMARK  0 active torsions:
REMARK  status: ('A' for Active; 'I' for Inactive)
REMARK                            x       y       z     vdW  Elec       q    Type
REMARK                         _______ _______ _______ _____ _____    ______ ____
ROOT
ATOM      1  O   UNL     1       2.532   8.608  17.698  0.00  0.00    +0.000 OA
ATOM      2  C   UNL     1       2.125   8.074  18.737  0.00  0.00    +0.000 C 
ATOM      3  N   UNL     1       2.583   6.807  19.055  0.00  0.00    +0.000 N 
ATOM      4  C   UNL     1       3.298   6.054  18.015  0.00  0.00    +0.000 C 
ATOM      5  C   UNL     1       2.583   4.728  17.703  0.00  0.00    +0.000 C 
ATOM      6  C   UNL     1       2.188   3.941  18.957  0.00  0.00    +0.000 C 
ATOM      7  C   UNL     1       1.506   4.844  19.981  0.00  0.00    +0.000 C 
ATOM      8  C   UNL     1       2.431   6.021  20.267  0.00  0.00    +0.000 C 
ATOM      9  N   UNL     1       1.223   8.751  19.536  0.00  0.00    +0.000 N 
ATOM     10  C   UNL     1       0.467   8.286  20.696  0.00  0.00    +0.000 C 
ATOM     11  C   UNL     1       1.133   8.687  22.010  0.00  0.00    +0.000 C 
ATOM     12  C   UNL     1       1.188  10.186  22.292  0.00  0.00    +0.000 C 
ATOM     13  N   UNL     1       0.358  11.001  21.402  0.00  0.00    +0.000 N 
ATOM     14  C   UNL     1      -0.759  11.600  21.965  0.00  0.00    +0.000 C 
ATOM     15  O   UNL     1      -0.944  11.522  23.185  0.00  0.00    +0.000 OA
ATOM     16  N   UNL     1      -1.677  12.288  21.191  0.00  0.00    +0.000 N 
ATOM     17  C   UNL     1      -2.620  13.183  21.874  0.00  0.00    +0.000 C 
ATOM     18  C   UNL     1      -4.074  12.888  21.503  0.00  0.00    +0.000 C 
ATOM     19  C   UNL     1      -4.271  12.881  19.992  0.00  0.00    +0.000 C 
ATOM     20  C   UNL     1      -3.307  11.891  19.359  0.00  0.00    +0.000 C 
ATOM     21  C   UNL     1      -1.871  12.217  19.751  0.00  0.00    +0.000 C 
ATOM     22  C   UNL     1       0.967  11.220  20.074  0.00  0.00    +0.000 C 
ATOM     23  C   UNL     1       0.766  10.067  19.061  0.00  0.00    +0.000 C 
ENDROOT
TORSDOF 0
ENDMDL
MODEL 3
REMARK VINA RESULT:      -6.5      2.626      8.394
REMARK  Name = 
REMARK  0 active torsions:
REMARK  status: ('A' for Active; 'I' for Inactive)
REMARK                            x       y       z     vdW  Elec       q    Type
REMARK                         _______ _______ _______ _____ _____    ______ ____
ROOT
ATOM      1  O   UNL     1       1.836   9.309  17.411  0.00  0.00    +0.000 OA
ATOM      2  C   UNL     1       1.536   8.903  18.540  0.00  0.00    +0.000 C 
ATOM      3  N   UNL     1       2.243   7.839  19.072  0.00  0.00    +0.000 N 
ATOM      4  C   UNL     1       3.113   7.072  18.168  0.00  0.00    +0.000 C 
ATOM      5  C   UNL     1       2.694   5.592  18.122  0.00  0.00    +0.000 C 
ATOM      6  C   UNL     1       2.454   4.984  19.508  0.00  0.00    +0.000 C 
ATOM      7  C   UNL     1       1.586   5.899  20.366  0.00  0.00    +0.000 C 
ATOM      8  C   UNL     1       2.242   7.274  20.410  0.00  0.00    +0.000 C 
ATOM      9  N   UNL     1       0.502   9.514  19.226  0.00  0.00    +0.000 N 
ATOM     10  C   UNL     1      -0.155   9.122  20.469  0.00  0.00    +0.000 C 
ATOM     11  C   UNL     1       0.395   9.887  21.672  0.00  0.00    +0.000 C 
ATOM     12  C   UNL     1       0.133  11.390  21.674  0.00  0.00    +0.000 C 
ATOM     13  N   UNL     1      -0.837  11.839  20.672  0.00  0.00    +0.000 N 
ATOM     14  C   UNL     1      -2.061  12.287  21.145  0.00  0.00    +0.000 C 
ATOM     15  O   UNL     1      -2.241  12.397  22.363  0.00  0.00    +0.000 OA
ATOM     16  N   UNL     1      -3.091  12.616  20.282  0.00  0.00    +0.000 N 
ATOM     17  C   UNL     1      -4.209  13.406  20.815  0.00  0.00    +0.000 C 
ATOM     18  C   UNL     1      -5.565  12.753  20.541  0.00  0.00    +0.000 C 
ATOM     19  C   UNL     1      -5.736  12.429  19.062  0.00  0.00    +0.000 C 
ATOM     20  C   UNL     1      -4.579  11.561  18.595  0.00  0.00    +0.000 C 
ATOM     21  C   UNL     1      -3.247  12.243  18.884  0.00  0.00    +0.000 C 
ATOM     22  C   UNL     1      -0.269  11.932  19.311  0.00  0.00    +0.000 C 
ATOM     23  C   UNL     1      -0.212  10.597  18.530  0.00  0.00    +0.000 C 
ENDROOT
TORSDOF 0
ENDMDL
MODEL 4
REMARK VINA RESULT:      -6.3      2.178      7.452
REMARK  Name = 
REMARK  0 active torsions:
REMARK  status: ('A' for Active; 'I' for Inactive)
REMARK                            x       y       z     vdW  Elec       q    Type
REMARK                         _______ _______ _______ _____ _____    ______ ____
ROOT
ATOM      1  O   UNL     1       3.947   7.050  17.204  0.00  0.00    +0.000 OA
ATOM      2  C   UNL     1       3.334   6.682  18.213  0.00  0.00    +0.000 C 
ATOM      3  N   UNL     1       3.775   5.553  18.882  0.00  0.00    +0.000 N 
ATOM      4  C   UNL     1       4.761   4.696  18.208  0.00  0.00    +0.000 C 
ATOM      5  C   UNL     1       4.220   3.267  18.027  0.00  0.00    +0.000 C 
ATOM      6  C   UNL     1       3.581   2.694  19.297  0.00  0.00    +0.000 C 
ATOM      7  C   UNL     1       2.622   3.698  19.931  0.00  0.00    +0.000 C 
ATOM      8  C   UNL     1       3.382   4.998  20.166  0.00  0.00    +0.000 C 
ATOM      9  N   UNL     1       2.229   7.399  18.632  0.00  0.00    +0.000 N 
ATOM     10  C   UNL     1       1.246   7.084  19.665  0.00  0.00    +0.000 C 
ATOM     11  C   UNL     1       1.552   7.794  20.982  0.00  0.00    +0.000 C 
ATOM     12  C   UNL     1       1.451   9.316  20.951  0.00  0.00    +0.000 C 
ATOM     13  N   UNL     1       0.813   9.857  19.748  0.00  0.00    +0.000 N 
ATOM     14  C   UNL     1      -0.439  10.431  19.910  0.00  0.00    +0.000 C 
ATOM     15  O   UNL     1      -0.906  10.565  21.047  0.00  0.00    +0.000 OA
ATOM     16  N   UNL     1      -1.183  10.860  18.825  0.00  0.00    +0.000 N 
ATOM     17  C   UNL     1      -2.312  11.764  19.079  0.00  0.00    +0.000 C 
ATOM     18  C   UNL     1      -3.615  11.253  18.462  0.00  0.00    +0.000 C 
ATOM     19  C   UNL     1      -3.443  10.941  16.980  0.00  0.00    +0.000 C 
ATOM     20  C   UNL     1      -2.300   9.956  16.799  0.00  0.00    +0.000 C 
ATOM     21  C   UNL     1      -1.021  10.499  17.425  0.00  0.00    +0.000 C 
ATOM     22  C   UNL     1       1.709   9.885  18.574  0.00  0.00    +0.000 C 
ATOM     23  C   UNL     1       1.824   8.547  17.804  0.00  0.00    +0.000 C 
ENDROOT
TORSDOF 0
ENDMDL
MODEL 5
REMARK VINA RESULT:      -6.3      2.553      4.427
REMARK  Name = 
REMARK  0 active torsions:
REMARK  status: ('A' for Active; 'I' for Inactive)
REMARK                            x       y       z     vdW  Elec       q    Type
REMARK                         _______ _______ _______ _____ _____    ______ ____
ROOT
ATOM      1  O   UNL     1      -0.459  10.926  23.148  0.00  0.00    +0.000 OA
ATOM      2  C   UNL     1      -0.778  11.019  21.956  0.00  0.00    +0.000 C 
ATOM      3  N   UNL     1      -1.633  12.038  21.576  0.00  0.00    +0.000 N 
ATOM      4  C   UNL     1      -2.337  12.775  22.636  0.00  0.00    +0.000 C 
ATOM      5  C   UNL     1      -3.862  12.663  22.468  0.00  0.00    +0.000 C 
ATOM      6  C   UNL     1      -4.337  12.920  21.034  0.00  0.00    +0.000 C 
ATOM      7  C   UNL     1      -3.494  12.143  20.028  0.00  0.00    +0.000 C 
ATOM      8  C   UNL     1      -2.030  12.500  20.257  0.00  0.00    +0.000 C 
ATOM      9  N   UNL     1      -0.281  10.100  21.050  0.00  0.00    +0.000 N 
ATOM     10  C   UNL     1      -0.633   9.883  19.650  0.00  0.00    +0.000 C 
ATOM     11  C   UNL     1       0.350  10.565  18.701  0.00  0.00    +0.000 C 
ATOM     12  C   UNL     1       1.774  10.019  18.721  0.00  0.00    +0.000 C 
ATOM     13  N   UNL     1       1.928   8.751  19.439  0.00  0.00    +0.000 N 
ATOM     14  C   UNL     1       2.207   7.629  18.674  0.00  0.00    +0.000 C 
ATOM     15  O   UNL     1       2.426   7.756  17.463  0.00  0.00    +0.000 OA
ATOM     16  N   UNL     1       2.249   6.365  19.233  0.00  0.00    +0.000 N 
ATOM     17  C   UNL     1       2.889   5.292  18.462  0.00  0.00    +0.000 C 
ATOM     18  C   UNL     1       1.983   4.069  18.303  0.00  0.00    +0.000 C 
ATOM     19  C   UNL     1       1.464   3.585  19.652  0.00  0.00    +0.000 C 
ATOM     20  C   UNL     1       0.763   4.729  20.367  0.00  0.00    +0.000 C 
ATOM     21  C   UNL     1       1.696   5.926  20.505  0.00  0.00    +0.000 C 
ATOM     22  C   UNL     1       1.960   8.912  20.908  0.00  0.00    +0.000 C 
ATOM     23  C   UNL     1       0.573   9.028  21.586  0.00  0.00    +0.000 C 
ENDROOT
TORSDOF 0
ENDMDL
MODEL 6
REMARK VINA RESULT:      -6.2      4.065      9.864
REMARK  Name = 
REMARK  0 active torsions:
REMARK  status: ('A' for Active; 'I' for Inactive)
REMARK                            x       y       z     vdW  Elec       q    Type
REMARK                         _______ _______ _______ _____ _____    ______ ____
ROOT
ATOM      1  O   UNL     1      -0.374  12.288  18.318  0.00  0.00    +0.000 OA
ATOM      2  C   UNL     1      -0.254  11.610  19.344  0.00  0.00    +0.000 C 
ATOM      3  N   UNL     1       0.856  10.792  19.473  0.00  0.00    +0.000 N 
ATOM      4  C   UNL     1       1.679  10.558  18.277  0.00  0.00    +0.000 C 
ATOM      5  C   UNL     1       1.743   9.059  17.935  0.00  0.00    +0.000 C 
ATOM      6  C   UNL     1       2.044   8.171  19.148  0.00  0.00    +0.000 C 
ATOM      7  C   UNL     1       1.165   8.550  20.337  0.00  0.00    +0.000 C 
ATOM      8  C   UNL     1       1.350  10.037  20.611  0.00  0.00    +0.000 C 
ATOM      9  N   UNL     1      -1.231  11.680  20.320  0.00  0.00    +0.000 N 
ATOM     10  C   UNL     1      -1.416  10.868  21.519  0.00  0.00    +0.000 C 
ATOM     11  C   UNL     1      -0.861  11.554  22.765  0.00  0.00    +0.000 C 
ATOM     12  C   UNL     1      -1.570  12.839  23.183  0.00  0.00    +0.000 C 
ATOM     13  N   UNL     1      -2.841  13.081  22.496  0.00  0.00    +0.000 N 
ATOM     14  C   UNL     1      -3.994  12.972  23.259  0.00  0.00    +0.000 C 
ATOM     15  O   UNL     1      -3.903  12.794  24.480  0.00  0.00    +0.000 OA
ATOM     16  N   UNL     1      -5.250  13.058  22.687  0.00  0.00    +0.000 N 
ATOM     17  C   UNL     1      -6.397  13.290  23.574  0.00  0.00    +0.000 C 
ATOM     18  C   UNL     1      -7.506  12.256  23.374  0.00  0.00    +0.000 C 
ATOM     19  C   UNL     1      -7.916  12.158  21.909  0.00  0.00    +0.000 C 
ATOM     20  C   UNL     1      -6.693  11.857  21.059  0.00  0.00    +0.000 C 
ATOM     21  C   UNL     1      -5.612  12.907  21.285  0.00  0.00    +0.000 C 
ATOM     22  C   UNL     1      -2.673  13.609  21.126  0.00  0.00    +0.000 C 
ATOM     23  C   UNL     1      -2.392  12.542  20.041  0.00  0.00    +0.000 C 
ENDROOT
TORSDOF 0
ENDMDL
MODEL 7
REMARK VINA RESULT:      -6.2      2.658      4.996
REMARK  Name = 
REMARK  0 active torsions:
REMARK  status: ('A' for Active; 'I' for Inactive)
REMARK                            x       y       z     vdW  Elec       q    Type
REMARK                         _______ _______ _______ _____ _____    ______ ____
ROOT
ATOM      1  O   UNL     1      -1.079  11.876  23.187  0.00  0.00    +0.000 OA
ATOM      2  C   UNL     1      -1.495  11.861  22.022  0.00  0.00    +0.000 C 
ATOM      3  N   UNL     1      -2.562  12.677  21.688  0.00  0.00    +0.000 N 
ATOM      4  C   UNL     1      -3.320  13.299  22.784  0.00  0.00    +0.000 C 
ATOM      5  C   UNL     1      -4.800  12.882  22.739  0.00  0.00    +0.000 C 
ATOM      6  C   UNL     1      -5.420  12.988  21.341  0.00  0.00    +0.000 C 
ATOM      7  C   UNL     1      -4.514  12.356  20.288  0.00  0.00    +0.000 C 
ATOM      8  C   UNL     1      -3.138  13.003  20.395  0.00  0.00    +0.000 C 
ATOM      9  N   UNL     1      -0.892  11.027  21.100  0.00  0.00    +0.000 N 
ATOM     10  C   UNL     1      -1.294  10.694  19.736  0.00  0.00    +0.000 C 
ATOM     11  C   UNL     1      -0.538  11.521  18.699  0.00  0.00    +0.000 C 
ATOM     12  C   UNL     1       0.964  11.268  18.620  0.00  0.00    +0.000 C 
ATOM     13  N   UNL     1       1.419  10.083  19.350  0.00  0.00    +0.000 N 
ATOM     14  C   UNL     1       1.861   9.011  18.589  0.00  0.00    +0.000 C 
ATOM     15  O   UNL     1       1.961   9.135  17.362  0.00  0.00    +0.000 OA
ATOM     16  N   UNL     1       2.195   7.801  19.170  0.00  0.00    +0.000 N 
ATOM     17  C   UNL     1       2.978   6.848  18.374  0.00  0.00    +0.000 C 
ATOM     18  C   UNL     1       2.325   5.466  18.313  0.00  0.00    +0.000 C 
ATOM     19  C   UNL     1       2.013   4.938  19.708  0.00  0.00    +0.000 C 
ATOM     20  C   UNL     1       1.151   5.946  20.451  0.00  0.00    +0.000 C 
ATOM     21  C   UNL     1       1.833   7.308  20.490  0.00  0.00    +0.000 C 
ATOM     22  C   UNL     1       1.524  10.300  20.808  0.00  0.00    +0.000 C 
ATOM     23  C   UNL     1       0.195  10.164  21.590  0.00  0.00    +0.000 C 
ENDROOT
TORSDOF 0
ENDMDL
MODEL 8
REMARK VINA RESULT:      -6.1      2.427      7.737
REMARK  Name = 
REMARK  0 active torsions:
REMARK  status: ('A' for Active; 'I' for Inactive)
REMARK                            x       y       z     vdW  Elec       q    Type
REMARK                         _______ _______ _______ _____ _____    ______ ____
ROOT
ATOM      1  O   UNL     1       1.631   7.292  21.401  0.00  0.00    +0.000 OA
ATOM      2  C   UNL     1       1.788   7.630  20.221  0.00  0.00    +0.000 C 
ATOM      3  N   UNL     1       2.332   6.717  19.335  0.00  0.00    +0.000 N 
ATOM      4  C   UNL     1       2.951   5.505  19.892  0.00  0.00    +0.000 C 
ATOM      5  C   UNL     1       4.432   5.406  19.488  0.00  0.00    +0.000 C 
ATOM      6  C   UNL     1       4.675   5.667  17.997  0.00  0.00    +0.000 C 
ATOM      7  C   UNL     1       3.936   6.917  17.531  0.00  0.00    +0.000 C 
ATOM      8  C   UNL     1       2.463   6.761  17.889  0.00  0.00    +0.000 C 
ATOM      9  N   UNL     1       1.428   8.907  19.831  0.00  0.00    +0.000 N 
ATOM     10  C   UNL     1       1.668   9.602  18.570  0.00  0.00    +0.000 C 
ATOM     11  C   UNL     1       0.454   9.543  17.645  0.00  0.00    +0.000 C 
ATOM     12  C   UNL     1      -0.790  10.275  18.139  0.00  0.00    +0.000 C 
ATOM     13  N   UNL     1      -0.560  11.153  19.288  0.00  0.00    +0.000 N 
ATOM     14  C   UNL     1      -0.647  12.518  19.059  0.00  0.00    +0.000 C 
ATOM     15  O   UNL     1      -1.019  12.928  17.953  0.00  0.00    +0.000 OA
ATOM     16  N   UNL     1      -0.328  13.437  20.042  0.00  0.00    +0.000 N 
ATOM     17  C   UNL     1      -0.775  14.824  19.859  0.00  0.00    +0.000 C 
ATOM     18  C   UNL     1       0.372  15.828  19.991  0.00  0.00    +0.000 C 
ATOM     19  C   UNL     1       1.134  15.630  21.297  0.00  0.00    +0.000 C 
ATOM     20  C   UNL     1       1.617  14.193  21.390  0.00  0.00    +0.000 C 
ATOM     21  C   UNL     1       0.448  13.225  21.254  0.00  0.00    +0.000 C 
ATOM     22  C   UNL     1      -0.470  10.425  20.571  0.00  0.00    +0.000 C 
ATOM     23  C   UNL     1       0.915   9.805  20.878  0.00  0.00    +0.000 C 
ENDROOT
TORSDOF 0
ENDMDL
MODEL 9
REMARK VINA RESULT:      -5.9      7.777     11.448
REMARK  Name = 
REMARK  0 active torsions:
REMARK  status: ('A' for Active; 'I' for Inactive)
REMARK                            x       y       z     vdW  Elec       q    Type
REMARK                         _______ _______ _______ _____ _____    ______ ____
ROOT
ATOM      1  O   UNL     1       8.221  12.579  17.085  0.00  0.00    +0.000 OA
ATOM      2  C   UNL     1       8.735  13.367  17.886  0.00  0.00    +0.000 C 
ATOM      3  N   UNL     1      10.103  13.309  18.089  0.00  0.00    +0.000 N 
ATOM      4  C   UNL     1      10.826  12.141  17.564  0.00  0.00    +0.000 C 
ATOM      5  C   UNL     1      11.543  11.381  18.694  0.00  0.00    +0.000 C 
ATOM      6  C   UNL     1      12.330  12.296  19.639  0.00  0.00    +0.000 C 
ATOM      7  C   UNL     1      11.490  13.497  20.067  0.00  0.00    +0.000 C 
ATOM      8  C   UNL     1      10.994  14.202  18.811  0.00  0.00    +0.000 C 
ATOM      9  N   UNL     1       7.931  14.269  18.558  0.00  0.00    +0.000 N 
ATOM     10  C   UNL     1       8.254  15.168  19.663  0.00  0.00    +0.000 C 
ATOM     11  C   UNL     1       8.543  16.587  19.179  0.00  0.00    +0.000 C 
ATOM     12  C   UNL     1       7.364  17.324  18.551  0.00  0.00    +0.000 C 
ATOM     13  N   UNL     1       6.066  16.673  18.749  0.00  0.00    +0.000 N 
ATOM     14  C   UNL     1       5.170  17.310  19.595  0.00  0.00    +0.000 C 
ATOM     15  O   UNL     1       5.446  18.429  20.044  0.00  0.00    +0.000 OA
ATOM     16  N   UNL     1       3.969  16.723  19.948  0.00  0.00    +0.000 N 
ATOM     17  C   UNL     1       2.932  17.579  20.539  0.00  0.00    +0.000 C 
ATOM     18  C   UNL     1       2.412  17.029  21.868  0.00  0.00    +0.000 C 
ATOM     19  C   UNL     1       1.959  15.580  21.730  0.00  0.00    +0.000 C 
ATOM     20  C   UNL     1       3.098  14.744  21.171  0.00  0.00    +0.000 C 
ATOM     21  C   UNL     1       3.589  15.322  19.849  0.00  0.00    +0.000 C 
ATOM     22  C   UNL     1       5.844  15.527  17.843  0.00  0.00    +0.000 C 
ATOM     23  C   UNL     1       6.484  14.194  18.301  0.00  0.00    +0.000 C 
ENDROOT
TORSDOF 0
ENDMDL
