MODEL 1
REMARK VINA RESULT:      -6.9      0.000      0.000
REMARK  Name = 
REMARK  2 active torsions:
REMARK  status: ('A' for Active; 'I' for Inactive)
REMARK    1  A    between atoms: C_1  and  C_2
REMARK    2  A    between atoms: C_4  and  C_5
REMARK                            x       y       z     vdW  Elec       q    Type
REMARK                         _______ _______ _______ _____ _____    ______ ____
ROOT
ATOM      1  C   UNL     1      -3.108  10.321  16.164  0.00  0.00    +0.000 C 
ATOM      2  C   UNL     1      -2.192  11.089  17.118  0.00  0.00    +0.000 C 
ATOM      3  N   UNL     1      -1.183  10.148  17.590  0.00  0.00    +0.000 NA
ATOM      4  C   UNL     1      -0.210  10.528  18.344  0.00  0.00    +0.000 C 
ATOM      5  C   UNL     1       0.031  11.938  18.786  0.00  0.00    +0.000 A 
ATOM      6  C   UNL     1       1.359  12.402  18.759  0.00  0.00    +0.000 A 
ATOM      7  C   UNL     1       1.682  13.647  19.291  0.00  0.00    +0.000 A 
ATOM      8 CL   UNL     1       3.318  14.176  19.304  0.00  0.00    +0.000 Cl
ATOM      9  C   UNL     1       0.689  14.461  19.824  0.00  0.00    +0.000 A 
ATOM     10  C   UNL     1      -0.640  14.029  19.822  0.00  0.00    +0.000 A 
ATOM     11  C   UNL     1      -0.982  12.765  19.311  0.00  0.00    +0.000 A 
ATOM     12  N   UNL     1      -2.347  12.374  19.278  0.00  0.00    +0.000 N 
ATOM     13  C   UNL     1      -3.377  12.679  20.146  0.00  0.00    +0.000 A 
ATOM     14 BR   UNL     1      -3.278  13.430  21.863  0.00  0.00    +0.000 Br
ATOM     15  N   UNL     1      -4.514  12.226  19.669  0.00  0.00    +0.000 NA
ATOM     16  N   UNL     1      -4.249  11.574  18.496  0.00  0.00    +0.000 NA
ATOM     17  C   UNL     1      -2.949  11.632  18.281  0.00  0.00    +0.000 A 
ENDROOT
BRANCH   4  18
ATOM     18  C   UNL     1       0.722   9.455  18.828  0.00  0.00    +0.000 A 
ATOM     19  C   UNL     1       1.555   8.807  17.907  0.00  0.00    +0.000 A 
ATOM     20  C   UNL     1       2.393   7.773  18.327  0.00  0.00    +0.000 A 
ATOM     21  C   UNL     1       2.399   7.379  19.665  0.00  0.00    +0.000 A 
ATOM     22  C   UNL     1       1.569   8.018  20.585  0.00  0.00    +0.000 A 
ATOM     23  C   UNL     1       0.726   9.051  20.169  0.00  0.00    +0.000 A 
ENDBRANCH   4  18
TORSDOF 1
ENDMDL
MODEL 2
REMARK VINA RESULT:      -6.7      0.222      1.032
REMARK  Name = 
REMARK  2 active torsions:
REMARK  status: ('A' for Active; 'I' for Inactive)
REMARK    1  A    between atoms: C_1  and  C_2
REMARK    2  A    between atoms: C_4  and  C_5
REMARK                            x       y       z     vdW  Elec       q    Type
REMARK                         _______ _______ _______ _____ _____    ______ ____
ROOT
ATOM      1  C   UNL     1      -3.175  10.270  15.991  0.00  0.00    +0.000 C 
ATOM      2  C   UNL     1      -2.303  11.037  16.986  0.00  0.00    +0.000 C 
ATOM      3  N   UNL     1      -1.295  10.105  17.478  0.00  0.00    +0.000 NA
ATOM      4  C   UNL     1      -0.353  10.488  18.269  0.00  0.00    +0.000 C 
ATOM      5  C   UNL     1      -0.148  11.895  18.739  0.00  0.00    +0.000 A 
ATOM      6  C   UNL     1       1.172  12.379  18.762  0.00  0.00    +0.000 A 
ATOM      7  C   UNL     1       1.458  13.621  19.322  0.00  0.00    +0.000 A 
ATOM      8 CL   UNL     1       3.084  14.174  19.396  0.00  0.00    +0.000 Cl
ATOM      9  C   UNL     1       0.436  14.411  19.833  0.00  0.00    +0.000 A 
ATOM     10  C   UNL     1      -0.886  13.960  19.781  0.00  0.00    +0.000 A 
ATOM     11  C   UNL     1      -1.191  12.699  19.241  0.00  0.00    +0.000 A 
ATOM     12  N   UNL     1      -2.548  12.288  19.158  0.00  0.00    +0.000 N 
ATOM     13  C   UNL     1      -3.611  12.565  19.995  0.00  0.00    +0.000 A 
ATOM     14 BR   UNL     1      -3.580  13.292  21.725  0.00  0.00    +0.000 Br
ATOM     15  N   UNL     1      -4.724  12.102  19.474  0.00  0.00    +0.000 NA
ATOM     16  N   UNL     1      -4.411  11.471  18.302  0.00  0.00    +0.000 NA
ATOM     17  C   UNL     1      -3.106  11.552  18.131  0.00  0.00    +0.000 A 
ENDROOT
BRANCH   4  18
ATOM     18  C   UNL     1       0.579   9.422  18.769  0.00  0.00    +0.000 A 
ATOM     19  C   UNL     1       0.578   9.099  20.132  0.00  0.00    +0.000 A 
ATOM     20  C   UNL     1       1.470   8.147  20.627  0.00  0.00    +0.000 A 
ATOM     21  C   UNL     1       2.368   7.518  19.765  0.00  0.00    +0.000 A 
ATOM     22  C   UNL     1       2.376   7.838  18.408  0.00  0.00    +0.000 A 
ATOM     23  C   UNL     1       1.487   8.793  17.909  0.00  0.00    +0.000 A 
ENDBRANCH   4  18
TORSDOF 1
ENDMDL
MODEL 3
REMARK VINA RESULT:      -6.5      2.833      4.209
REMARK  Name = 
REMARK  2 active torsions:
REMARK  status: ('A' for Active; 'I' for Inactive)
REMARK    1  A    between atoms: C_1  and  C_2
REMARK    2  A    between atoms: C_4  and  C_5
REMARK                            x       y       z     vdW  Elec       q    Type
REMARK                         _______ _______ _______ _____ _____    ______ ____
ROOT
ATOM      1  C   UNL     1      -0.385   9.997  23.492  0.00  0.00    +0.000 C 
ATOM      2  C   UNL     1      -0.595  10.344  22.017  0.00  0.00    +0.000 C 
ATOM      3  N   UNL     1       0.318   9.505  21.248  0.00  0.00    +0.000 NA
ATOM      4  C   UNL     1       0.308   9.505  19.960  0.00  0.00    +0.000 C 
ATOM      5  C   UNL     1      -0.632  10.304  19.111  0.00  0.00    +0.000 A 
ATOM      6  C   UNL     1      -1.191   9.661  17.991  0.00  0.00    +0.000 A 
ATOM      7  C   UNL     1      -1.955  10.379  17.075  0.00  0.00    +0.000 A 
ATOM      8 CL   UNL     1      -2.582   9.593  15.680  0.00  0.00    +0.000 Cl
ATOM      9  C   UNL     1      -2.204  11.731  17.276  0.00  0.00    +0.000 A 
ATOM     10  C   UNL     1      -1.688  12.373  18.405  0.00  0.00    +0.000 A 
ATOM     11  C   UNL     1      -0.895  11.671  19.328  0.00  0.00    +0.000 A 
ATOM     12  N   UNL     1      -0.425  12.339  20.491  0.00  0.00    +0.000 N 
ATOM     13  C   UNL     1      -0.065  13.660  20.669  0.00  0.00    +0.000 A 
ATOM     14 BR   UNL     1       0.265  14.971  19.367  0.00  0.00    +0.000 Br
ATOM     15  N   UNL     1       0.180  13.891  21.940  0.00  0.00    +0.000 NA
ATOM     16  N   UNL     1       0.028  12.713  22.618  0.00  0.00    +0.000 NA
ATOM     17  C   UNL     1      -0.299  11.778  21.747  0.00  0.00    +0.000 A 
ENDROOT
BRANCH   4  18
ATOM     18  C   UNL     1       1.345   8.659  19.280  0.00  0.00    +0.000 A 
ATOM     19  C   UNL     1       1.788   7.487  19.908  0.00  0.00    +0.000 A 
ATOM     20  C   UNL     1       2.787   6.711  19.318  0.00  0.00    +0.000 A 
ATOM     21  C   UNL     1       3.350   7.104  18.104  0.00  0.00    +0.000 A 
ATOM     22  C   UNL     1       2.916   8.271  17.477  0.00  0.00    +0.000 A 
ATOM     23  C   UNL     1       1.919   9.053  18.065  0.00  0.00    +0.000 A 
ENDBRANCH   4  18
TORSDOF 1
ENDMDL
MODEL 4
REMARK VINA RESULT:      -6.4      2.814      4.114
REMARK  Name = 
REMARK  2 active torsions:
REMARK  status: ('A' for Active; 'I' for Inactive)
REMARK    1  A    between atoms: C_1  and  C_2
REMARK    2  A    between atoms: C_4  and  C_5
REMARK                            x       y       z     vdW  Elec       q    Type
REMARK                         _______ _______ _______ _____ _____    ______ ____
ROOT
ATOM      1  C   UNL     1      -0.413  10.006  23.453  0.00  0.00    +0.000 C 
ATOM      2  C   UNL     1      -0.612  10.342  21.975  0.00  0.00    +0.000 C 
ATOM      3  N   UNL     1       0.331   9.523  21.221  0.00  0.00    +0.000 NA
ATOM      4  C   UNL     1       0.338   9.519  19.933  0.00  0.00    +0.000 C 
ATOM      5  C   UNL     1      -0.610  10.291  19.068  0.00  0.00    +0.000 A 
ATOM      6  C   UNL     1      -1.139   9.631  17.944  0.00  0.00    +0.000 A 
ATOM      7  C   UNL     1      -1.908  10.326  17.015  0.00  0.00    +0.000 A 
ATOM      8 CL   UNL     1      -2.498   9.520  15.616  0.00  0.00    +0.000 Cl
ATOM      9  C   UNL     1      -2.192  11.673  17.208  0.00  0.00    +0.000 A 
ATOM     10  C   UNL     1      -1.707  12.332  18.341  0.00  0.00    +0.000 A 
ATOM     11  C   UNL     1      -0.909  11.652  19.277  0.00  0.00    +0.000 A 
ATOM     12  N   UNL     1      -0.470  12.336  20.442  0.00  0.00    +0.000 N 
ATOM     13  C   UNL     1      -0.145  13.666  20.621  0.00  0.00    +0.000 A 
ATOM     14 BR   UNL     1       0.170  14.979  19.317  0.00  0.00    +0.000 Br
ATOM     15  N   UNL     1       0.078  13.907  21.893  0.00  0.00    +0.000 NA
ATOM     16  N   UNL     1      -0.055  12.728  22.574  0.00  0.00    +0.000 NA
ATOM     17  C   UNL     1      -0.347  11.783  21.702  0.00  0.00    +0.000 A 
ENDROOT
BRANCH   4  18
ATOM     18  C   UNL     1       1.404   8.695  19.270  0.00  0.00    +0.000 A 
ATOM     19  C   UNL     1       1.928   9.118  18.041  0.00  0.00    +0.000 A 
ATOM     20  C   UNL     1       2.884   8.343  17.383  0.00  0.00    +0.000 A 
ATOM     21  C   UNL     1       3.316   7.142  17.946  0.00  0.00    +0.000 A 
ATOM     22  C   UNL     1       2.794   6.714  19.166  0.00  0.00    +0.000 A 
ATOM     23  C   UNL     1       1.835   7.485  19.826  0.00  0.00    +0.000 A 
ENDBRANCH   4  18
TORSDOF 1
ENDMDL
MODEL 5
REMARK VINA RESULT:      -6.4      2.869      4.809
REMARK  Name = 
REMARK  2 active torsions:
REMARK  status: ('A' for Active; 'I' for Inactive)
REMARK    1  A    between atoms: C_1  and  C_2
REMARK    2  A    between atoms: C_4  and  C_5
REMARK                            x       y       z     vdW  Elec       q    Type
REMARK                         _______ _______ _______ _____ _____    ______ ____
ROOT
ATOM      1  C   UNL     1      -0.624  15.725  19.669  0.00  0.00    +0.000 C 
ATOM      2  C   UNL     1      -0.772  14.335  20.290  0.00  0.00    +0.000 C 
ATOM      3  N   UNL     1      -1.298  13.457  19.251  0.00  0.00    +0.000 NA
ATOM      4  C   UNL     1      -1.446  12.193  19.449  0.00  0.00    +0.000 C 
ATOM      5  C   UNL     1      -1.074  11.474  20.710  0.00  0.00    +0.000 A 
ATOM      6  C   UNL     1      -0.427  10.232  20.575  0.00  0.00    +0.000 A 
ATOM      7  C   UNL     1      -0.183   9.440  21.693  0.00  0.00    +0.000 A 
ATOM      8 CL   UNL     1       0.555   7.898  21.506  0.00  0.00    +0.000 Cl
ATOM      9  C   UNL     1      -0.545   9.883  22.959  0.00  0.00    +0.000 A 
ATOM     10  C   UNL     1      -1.152  11.132  23.112  0.00  0.00    +0.000 A 
ATOM     11  C   UNL     1      -1.428  11.936  21.993  0.00  0.00    +0.000 A 
ATOM     12  N   UNL     1      -2.003  13.221  22.184  0.00  0.00    +0.000 N 
ATOM     13  C   UNL     1      -2.892  13.660  23.146  0.00  0.00    +0.000 A 
ATOM     14 BR   UNL     1      -3.929  12.643  24.333  0.00  0.00    +0.000 Br
ATOM     15  N   UNL     1      -3.058  14.960  23.043  0.00  0.00    +0.000 NA
ATOM     16  N   UNL     1      -2.313  15.396  21.982  0.00  0.00    +0.000 NA
ATOM     17  C   UNL     1      -1.710  14.352  21.448  0.00  0.00    +0.000 A 
ENDROOT
BRANCH   4  18
ATOM     18  C   UNL     1      -2.067  11.406  18.332  0.00  0.00    +0.000 A 
ATOM     19  C   UNL     1      -3.429  11.577  18.052  0.00  0.00    +0.000 A 
ATOM     20  C   UNL     1      -4.039  10.820  17.051  0.00  0.00    +0.000 A 
ATOM     21  C   UNL     1      -3.294   9.887  16.330  0.00  0.00    +0.000 A 
ATOM     22  C   UNL     1      -1.939   9.709  16.607  0.00  0.00    +0.000 A 
ATOM     23  C   UNL     1      -1.326  10.462  17.610  0.00  0.00    +0.000 A 
ENDBRANCH   4  18
TORSDOF 1
ENDMDL
MODEL 6
REMARK VINA RESULT:      -6.4      2.874      4.755
REMARK  Name = 
REMARK  2 active torsions:
REMARK  status: ('A' for Active; 'I' for Inactive)
REMARK    1  A    between atoms: C_1  and  C_2
REMARK    2  A    between atoms: C_4  and  C_5
REMARK                            x       y       z     vdW  Elec       q    Type
REMARK                         _______ _______ _______ _____ _____    ______ ____
ROOT
ATOM      1  C   UNL     1      -0.771  15.738  19.626  0.00  0.00    +0.000 C 
ATOM      2  C   UNL     1      -0.886  14.351  20.262  0.00  0.00    +0.000 C 
ATOM      3  N   UNL     1      -1.412  13.455  19.238  0.00  0.00    +0.000 NA
ATOM      4  C   UNL     1      -1.536  12.191  19.450  0.00  0.00    +0.000 C 
ATOM      5  C   UNL     1      -1.134  11.490  20.712  0.00  0.00    +0.000 A 
ATOM      6  C   UNL     1      -0.468  10.258  20.578  0.00  0.00    +0.000 A 
ATOM      7  C   UNL     1      -0.194   9.480  21.700  0.00  0.00    +0.000 A 
ATOM      8 CL   UNL     1       0.568   7.950  21.515  0.00  0.00    +0.000 Cl
ATOM      9  C   UNL     1      -0.544   9.929  22.967  0.00  0.00    +0.000 A 
ATOM     10  C   UNL     1      -1.170  11.169  23.118  0.00  0.00    +0.000 A 
ATOM     11  C   UNL     1      -1.476  11.958  21.996  0.00  0.00    +0.000 A 
ATOM     12  N   UNL     1      -2.069  13.235  22.184  0.00  0.00    +0.000 N 
ATOM     13  C   UNL     1      -2.952  13.668  23.154  0.00  0.00    +0.000 A 
ATOM     14 BR   UNL     1      -3.954  12.644  24.367  0.00  0.00    +0.000 Br
ATOM     15  N   UNL     1      -3.141  14.963  23.043  0.00  0.00    +0.000 NA
ATOM     16  N   UNL     1      -2.420  15.403  21.967  0.00  0.00    +0.000 NA
ATOM     17  C   UNL     1      -1.807  14.364  21.433  0.00  0.00    +0.000 A 
ENDROOT
BRANCH   4  18
ATOM     18  C   UNL     1      -2.160  11.383  18.350  0.00  0.00    +0.000 A 
ATOM     19  C   UNL     1      -1.374  10.455  17.653  0.00  0.00    +0.000 A 
ATOM     20  C   UNL     1      -1.921   9.730  16.594  0.00  0.00    +0.000 A 
ATOM     21  C   UNL     1      -3.251   9.931  16.223  0.00  0.00    +0.000 A 
ATOM     22  C   UNL     1      -4.036  10.856  16.910  0.00  0.00    +0.000 A 
ATOM     23  C   UNL     1      -3.492  11.586  17.968  0.00  0.00    +0.000 A 
ENDBRANCH   4  18
TORSDOF 1
ENDMDL
MODEL 7
REMARK VINA RESULT:      -6.3      1.564      2.152
REMARK  Name = 
REMARK  2 active torsions:
REMARK  status: ('A' for Active; 'I' for Inactive)
REMARK    1  A    between atoms: C_1  and  C_2
REMARK    2  A    between atoms: C_4  and  C_5
REMARK                            x       y       z     vdW  Elec       q    Type
REMARK                         _______ _______ _______ _____ _____    ______ ____
ROOT
ATOM      1  C   UNL     1      -2.680  10.705  15.650  0.00  0.00    +0.000 C 
ATOM      2  C   UNL     1      -2.450  11.355  17.016  0.00  0.00    +0.000 C 
ATOM      3  N   UNL     1      -1.524  10.497  17.746  0.00  0.00    +0.000 NA
ATOM      4  C   UNL     1      -1.068  10.831  18.904  0.00  0.00    +0.000 C 
ATOM      5  C   UNL     1      -1.381  12.114  19.610  0.00  0.00    +0.000 A 
ATOM      6  C   UNL     1      -0.314  12.772  20.250  0.00  0.00    +0.000 A 
ATOM      7  C   UNL     1      -0.552  13.888  21.048  0.00  0.00    +0.000 A 
ATOM      8 CL   UNL     1       0.753  14.646  21.872  0.00  0.00    +0.000 Cl
ATOM      9  C   UNL     1      -1.841  14.385  21.192  0.00  0.00    +0.000 A 
ATOM     10  C   UNL     1      -2.904  13.766  20.529  0.00  0.00    +0.000 A 
ATOM     11  C   UNL     1      -2.688  12.624  19.739  0.00  0.00    +0.000 A 
ATOM     12  N   UNL     1      -3.780  12.045  19.040  0.00  0.00    +0.000 N 
ATOM     13  C   UNL     1      -5.115  11.970  19.387  0.00  0.00    +0.000 A 
ATOM     14 BR   UNL     1      -5.911  12.294  21.055  0.00  0.00    +0.000 Br
ATOM     15  N   UNL     1      -5.810  11.473  18.389  0.00  0.00    +0.000 NA
ATOM     16  N   UNL     1      -4.940  11.171  17.378  0.00  0.00    +0.000 NA
ATOM     17  C   UNL     1      -3.722  11.480  17.781  0.00  0.00    +0.000 A 
ENDROOT
BRANCH   4  18
ATOM     18  C   UNL     1      -0.183   9.832  19.591  0.00  0.00    +0.000 A 
ATOM     19  C   UNL     1      -0.483   9.443  20.903  0.00  0.00    +0.000 A 
ATOM     20  C   UNL     1       0.353   8.553  21.579  0.00  0.00    +0.000 A 
ATOM     21  C   UNL     1       1.493   8.052  20.950  0.00  0.00    +0.000 A 
ATOM     22  C   UNL     1       1.798   8.439  19.645  0.00  0.00    +0.000 A 
ATOM     23  C   UNL     1       0.966   9.332  18.967  0.00  0.00    +0.000 A 
ENDBRANCH   4  18
TORSDOF 1
ENDMDL
MODEL 8
REMARK VINA RESULT:      -6.3      5.912      9.131
REMARK  Name = 
REMARK  2 active torsions:
REMARK  status: ('A' for Active; 'I' for Inactive)
REMARK    1  A    between atoms: C_1  and  C_2
REMARK    2  A    between atoms: C_4  and  C_5
REMARK                            x       y       z     vdW  Elec       q    Type
REMARK                         _______ _______ _______ _____ _____    ______ ____
ROOT
ATOM      1  C   UNL     1       5.060   7.010  14.798  0.00  0.00    +0.000 C 
ATOM      2  C   UNL     1       4.770   6.303  16.122  0.00  0.00    +0.000 C 
ATOM      3  N   UNL     1       3.795   7.119  16.837  0.00  0.00    +0.000 NA
ATOM      4  C   UNL     1       3.284   6.733  17.954  0.00  0.00    +0.000 C 
ATOM      5  C   UNL     1       3.578   5.426  18.625  0.00  0.00    +0.000 A 
ATOM      6  C   UNL     1       2.489   4.730  19.182  0.00  0.00    +0.000 A 
ATOM      7  C   UNL     1       2.701   3.586  19.946  0.00  0.00    +0.000 A 
ATOM      8 CL   UNL     1       1.366   2.779  20.669  0.00  0.00    +0.000 Cl
ATOM      9  C   UNL     1       3.989   3.099  20.137  0.00  0.00    +0.000 A 
ATOM     10  C   UNL     1       5.075   3.757  19.556  0.00  0.00    +0.000 A 
ATOM     11  C   UNL     1       4.884   4.928  18.802  0.00  0.00    +0.000 A 
ATOM     12  N   UNL     1       6.002   5.548  18.185  0.00  0.00    +0.000 N 
ATOM     13  C   UNL     1       7.316   5.626  18.604  0.00  0.00    +0.000 A 
ATOM     14 BR   UNL     1       8.029   5.245  20.297  0.00  0.00    +0.000 Br
ATOM     15  N   UNL     1       8.055   6.171  17.664  0.00  0.00    +0.000 NA
ATOM     16  N   UNL     1       7.234   6.503  16.622  0.00  0.00    +0.000 NA
ATOM     17  C   UNL     1       6.002   6.163  16.948  0.00  0.00    +0.000 A 
ENDROOT
BRANCH   4  18
ATOM     18  C   UNL     1       2.350   7.693  18.633  0.00  0.00    +0.000 A 
ATOM     19  C   UNL     1       1.786   8.738  17.890  0.00  0.00    +0.000 A 
ATOM     20  C   UNL     1       0.955   9.671  18.512  0.00  0.00    +0.000 A 
ATOM     21  C   UNL     1       0.688   9.567  19.877  0.00  0.00    +0.000 A 
ATOM     22  C   UNL     1       1.250   8.531  20.622  0.00  0.00    +0.000 A 
ATOM     23  C   UNL     1       2.085   7.597  20.005  0.00  0.00    +0.000 A 
ENDBRANCH   4  18
TORSDOF 1
ENDMDL
MODEL 9
REMARK VINA RESULT:      -6.2      8.074      9.914
REMARK  Name = 
REMARK  2 active torsions:
REMARK  status: ('A' for Active; 'I' for Inactive)
REMARK    1  A    between atoms: C_1  and  C_2
REMARK    2  A    between atoms: C_4  and  C_5
REMARK                            x       y       z     vdW  Elec       q    Type
REMARK                         _______ _______ _______ _____ _____    ______ ____
ROOT
ATOM      1  C   UNL     1       9.043  18.260  19.188  0.00  0.00    +0.000 C 
ATOM      2  C   UNL     1       8.469  17.019  19.872  0.00  0.00    +0.000 C 
ATOM      3  N   UNL     1       9.265  15.880  19.428  0.00  0.00    +0.000 NA
ATOM      4  C   UNL     1       9.077  14.700  19.907  0.00  0.00    +0.000 C 
ATOM      5  C   UNL     1       8.082  14.356  20.972  0.00  0.00    +0.000 A 
ATOM      6  C   UNL     1       8.503  13.473  21.984  0.00  0.00    +0.000 A 
ATOM      7  C   UNL     1       7.594  12.993  22.923  0.00  0.00    +0.000 A 
ATOM      8 CL   UNL     1       8.109  11.869  24.117  0.00  0.00    +0.000 Cl
ATOM      9  C   UNL     1       6.269  13.409  22.892  0.00  0.00    +0.000 A 
ATOM     10  C   UNL     1       5.846  14.317  21.918  0.00  0.00    +0.000 A 
ATOM     11  C   UNL     1       6.743  14.794  20.947  0.00  0.00    +0.000 A 
ATOM     12  N   UNL     1       6.296  15.752  19.998  0.00  0.00    +0.000 N 
ATOM     13  C   UNL     1       5.052  15.913  19.420  0.00  0.00    +0.000 A 
ATOM     14 BR   UNL     1       3.602  14.723  19.411  0.00  0.00    +0.000 Br
ATOM     15  N   UNL     1       5.032  17.012  18.699  0.00  0.00    +0.000 NA
ATOM     16  N   UNL     1       6.277  17.574  18.754  0.00  0.00    +0.000 NA
ATOM     17  C   UNL     1       7.042  16.803  19.501  0.00  0.00    +0.000 A 
ENDROOT
BRANCH   4  18
ATOM     18  C   UNL     1       9.905  13.595  19.316  0.00  0.00    +0.000 A 
ATOM     19  C   UNL     1      11.270  13.527  19.623  0.00  0.00    +0.000 A 
ATOM     20  C   UNL     1      12.070  12.539  19.046  0.00  0.00    +0.000 A 
ATOM     21  C   UNL     1      11.511  11.620  18.159  0.00  0.00    +0.000 A 
ATOM     22  C   UNL     1      10.153  11.685  17.847  0.00  0.00    +0.000 A 
ATOM     23  C   UNL     1       9.351  12.675  18.419  0.00  0.00    +0.000 A 
ENDBRANCH   4  18
TORSDOF 1
ENDMDL
