MODEL 1
REMARK VINA RESULT:      -7.9      0.000      0.000
REMARK  Name = 
REMARK  12 active torsions:
REMARK  status: ('A' for Active; 'I' for Inactive)
REMARK    1  A    between atoms: C_1  and  C_2
REMARK    2  A    between atoms: C_2  and  C_3
REMARK    3  A    between atoms: C_2  and  O_4
REMARK    4  A    between atoms: O_4  and  C_5
REMARK    5  A    between atoms: C_8  and  S_9
REMARK    6  A    between atoms: S_9  and  N_12
REMARK    7  A    between atoms: N_15  and  C_16
REMARK    8  A    between atoms: C_19  and  C_20
REMARK    9  A    between atoms: C_22  and  O_23
REMARK   10  A    between atoms: O_23  and  C_24
REMARK   11  A    between atoms: C_24  and  C_25
REMARK   12  A    between atoms: C_25  and  O_27
REMARK                            x       y       z     vdW  Elec       q    Type
REMARK                         _______ _______ _______ _____ _____    ______ ____
ROOT
ATOM      1  N   UNL     1       2.727   2.492  19.804  0.00  0.00    +0.000 NA
ATOM      2  C   UNL     1       2.500   1.990  18.429  0.00  0.00    +0.000 C 
ATOM      3  C   UNL     1       3.039   2.969  17.383  0.00  0.00    +0.000 C 
ATOM      4  N   UNL     1       4.448   3.293  17.654  0.00  0.00    +0.000 N 
ATOM      5  C   UNL     1       4.821   3.631  19.053  0.00  0.00    +0.000 C 
ATOM      6  C   UNL     1       4.170   2.678  20.079  0.00  0.00    +0.000 C 
ENDROOT
BRANCH   4   7
ATOM      7  C   UNL     1       5.216   3.844  16.634  0.00  0.00    +0.000 A 
ATOM      8  C   UNL     1       5.314   3.313  15.345  0.00  0.00    +0.000 A 
ATOM      9  C   UNL     1       6.191   3.862  14.402  0.00  0.00    +0.000 A 
ATOM     10  C   UNL     1       6.997   4.960  14.735  0.00  0.00    +0.000 A 
ATOM     11  C   UNL     1       6.897   5.523  16.012  0.00  0.00    +0.000 A 
ATOM     12  C   UNL     1       6.016   4.953  16.934  0.00  0.00    +0.000 A 
BRANCH  10  13
ATOM     13  C   UNL     1       7.915   5.475  13.761  0.00  0.00    +0.000 C 
ATOM     14  N   UNL     1       8.645   5.904  12.969  0.00  0.00    +0.000 NA
ENDBRANCH  10  13
BRANCH  11  15
ATOM     15  O   UNL     1       7.730   6.567  16.339  0.00  0.00    +0.000 OA
BRANCH  15  16
ATOM     16  C   UNL     1       7.741   6.949  17.719  0.00  0.00    +0.000 C 
BRANCH  16  17
ATOM     17  C   UNL     1       8.048   8.427  17.937  0.00  0.00    +0.000 C 
ATOM     18  O   UNL     1       7.581   9.328  17.256  0.00  0.00    +0.000 OA
BRANCH  17  19
ATOM     19  O   UNL     1       8.884   8.654  18.978  0.00  0.00    +0.000 OA
ATOM     20  H   UNL     1       8.465   8.412  19.832  0.00  0.00    +0.000 HD
ENDBRANCH  17  19
ENDBRANCH  16  17
ENDBRANCH  15  16
ENDBRANCH  11  15
ENDBRANCH   4   7
BRANCH   1  21
ATOM     21  S   UNL     1       1.581   3.460  20.564  0.00  0.00    +0.000 S 
ATOM     22  O   UNL     1       1.899   3.470  21.975  0.00  0.00    +0.000 OA
ATOM     23  O   UNL     1       0.272   3.046  20.100  0.00  0.00    +0.000 OA
BRANCH  21  27
ATOM     24  C   UNL     1       2.032   7.792  19.071  0.00  0.00    +0.000 A 
ATOM     25  C   UNL     1       2.144   6.727  18.176  0.00  0.00    +0.000 A 
ATOM     26  C   UNL     1       2.028   5.401  18.628  0.00  0.00    +0.000 A 
ATOM     27  C   UNL     1       1.832   5.134  19.986  0.00  0.00    +0.000 A 
ATOM     28  C   UNL     1       1.670   6.197  20.880  0.00  0.00    +0.000 A 
ATOM     29  C   UNL     1       1.782   7.515  20.420  0.00  0.00    +0.000 A 
BRANCH  24  30
ATOM     30  O   UNL     1       2.144   9.122  18.779  0.00  0.00    +0.000 OA
BRANCH  30  32
ATOM     31  C   UNL     1       1.554  11.428  18.781  0.00  0.00    +0.000 C 
ATOM     32  C   UNL     1       1.035  10.004  18.987  0.00  0.00    +0.000 C 
ATOM     33  C   UNL     1      -0.069   9.718  17.973  0.00  0.00    +0.000 C 
ENDBRANCH  30  32
ENDBRANCH  24  30
ENDBRANCH  21  27
ENDBRANCH   1  21
TORSDOF 10
ENDMDL
MODEL 2
REMARK VINA RESULT:      -7.8      0.481      1.079
REMARK  Name = 
REMARK  12 active torsions:
REMARK  status: ('A' for Active; 'I' for Inactive)
REMARK    1  A    between atoms: C_1  and  C_2
REMARK    2  A    between atoms: C_2  and  C_3
REMARK    3  A    between atoms: C_2  and  O_4
REMARK    4  A    between atoms: O_4  and  C_5
REMARK    5  A    between atoms: C_8  and  S_9
REMARK    6  A    between atoms: S_9  and  N_12
REMARK    7  A    between atoms: N_15  and  C_16
REMARK    8  A    between atoms: C_19  and  C_20
REMARK    9  A    between atoms: C_22  and  O_23
REMARK   10  A    between atoms: O_23  and  C_24
REMARK   11  A    between atoms: C_24  and  C_25
REMARK   12  A    between atoms: C_25  and  O_27
REMARK                            x       y       z     vdW  Elec       q    Type
REMARK                         _______ _______ _______ _____ _____    ______ ____
ROOT
ATOM      1  N   UNL     1       2.743   2.367  19.632  0.00  0.00    +0.000 NA
ATOM      2  C   UNL     1       2.693   1.721  18.299  0.00  0.00    +0.000 C 
ATOM      3  C   UNL     1       3.162   2.677  17.200  0.00  0.00    +0.000 C 
ATOM      4  N   UNL     1       4.486   3.230  17.524  0.00  0.00    +0.000 N 
ATOM      5  C   UNL     1       4.702   3.738  18.905  0.00  0.00    +0.000 C 
ATOM      6  C   UNL     1       4.120   2.791  19.975  0.00  0.00    +0.000 C 
ENDROOT
BRANCH   4   7
ATOM      7  C   UNL     1       5.241   3.801  16.504  0.00  0.00    +0.000 A 
ATOM      8  C   UNL     1       5.322   3.295  15.205  0.00  0.00    +0.000 A 
ATOM      9  C   UNL     1       6.186   3.862  14.261  0.00  0.00    +0.000 A 
ATOM     10  C   UNL     1       6.996   4.954  14.604  0.00  0.00    +0.000 A 
ATOM     11  C   UNL     1       6.912   5.493  15.892  0.00  0.00    +0.000 A 
ATOM     12  C   UNL     1       6.043   4.904  16.815  0.00  0.00    +0.000 A 
BRANCH  10  13
ATOM     13  C   UNL     1       7.901   5.488  13.628  0.00  0.00    +0.000 C 
ATOM     14  N   UNL     1       8.639   5.931  12.851  0.00  0.00    +0.000 NA
ENDBRANCH  10  13
BRANCH  11  15
ATOM     15  O   UNL     1       7.749   6.531  16.228  0.00  0.00    +0.000 OA
BRANCH  15  16
ATOM     16  C   UNL     1       7.149   7.606  16.961  0.00  0.00    +0.000 C 
BRANCH  16  17
ATOM     17  C   UNL     1       8.033   8.146  18.079  0.00  0.00    +0.000 C 
ATOM     18  O   UNL     1       8.587   7.443  18.911  0.00  0.00    +0.000 OA
BRANCH  17  19
ATOM     19  O   UNL     1       8.161   9.494  18.058  0.00  0.00    +0.000 OA
ATOM     20  H   UNL     1       8.706   9.813  18.809  0.00  0.00    +0.000 HD
ENDBRANCH  17  19
ENDBRANCH  16  17
ENDBRANCH  15  16
ENDBRANCH  11  15
ENDBRANCH   4   7
BRANCH   1  21
ATOM     21  S   UNL     1       1.416   3.213  20.225  0.00  0.00    +0.000 S 
ATOM     22  O   UNL     1       1.506   3.190  21.669  0.00  0.00    +0.000 OA
ATOM     23  O   UNL     1       0.235   2.720  19.546  0.00  0.00    +0.000 OA
BRANCH  21  27
ATOM     24  C   UNL     1       2.130   7.583  18.961  0.00  0.00    +0.000 A 
ATOM     25  C   UNL     1       1.992   7.258  20.311  0.00  0.00    +0.000 A 
ATOM     26  C   UNL     1       1.754   5.929  20.703  0.00  0.00    +0.000 A 
ATOM     27  C   UNL     1       1.618   4.924  19.741  0.00  0.00    +0.000 A 
ATOM     28  C   UNL     1       1.804   5.235  18.390  0.00  0.00    +0.000 A 
ATOM     29  C   UNL     1       2.047   6.560  18.009  0.00  0.00    +0.000 A 
BRANCH  24  30
ATOM     30  O   UNL     1       2.341   8.826  18.435  0.00  0.00    +0.000 OA
BRANCH  30  32
ATOM     31  C   UNL     1       2.053  11.173  18.155  0.00  0.00    +0.000 C 
ATOM     32  C   UNL     1       1.423   9.892  18.705  0.00  0.00    +0.000 C 
ATOM     33  C   UNL     1       0.094   9.640  17.997  0.00  0.00    +0.000 C 
ENDBRANCH  30  32
ENDBRANCH  24  30
ENDBRANCH  21  27
ENDBRANCH   1  21
TORSDOF 10
ENDMDL
MODEL 3
REMARK VINA RESULT:      -7.5      5.317      7.611
REMARK  Name = 
REMARK  12 active torsions:
REMARK  status: ('A' for Active; 'I' for Inactive)
REMARK    1  A    between atoms: C_1  and  C_2
REMARK    2  A    between atoms: C_2  and  C_3
REMARK    3  A    between atoms: C_2  and  O_4
REMARK    4  A    between atoms: O_4  and  C_5
REMARK    5  A    between atoms: C_8  and  S_9
REMARK    6  A    between atoms: S_9  and  N_12
REMARK    7  A    between atoms: N_15  and  C_16
REMARK    8  A    between atoms: C_19  and  C_20
REMARK    9  A    between atoms: C_22  and  O_23
REMARK   10  A    between atoms: O_23  and  C_24
REMARK   11  A    between atoms: C_24  and  C_25
REMARK   12  A    between atoms: C_25  and  O_27
REMARK                            x       y       z     vdW  Elec       q    Type
REMARK                         _______ _______ _______ _____ _____    ______ ____
ROOT
ATOM      1  N   UNL     1      -0.629   9.963  21.049  0.00  0.00    +0.000 NA
ATOM      2  C   UNL     1      -0.389  10.140  19.597  0.00  0.00    +0.000 C 
ATOM      3  C   UNL     1       1.025   9.701  19.210  0.00  0.00    +0.000 C 
ATOM      4  N   UNL     1       1.288   8.331  19.676  0.00  0.00    +0.000 N 
ATOM      5  C   UNL     1       0.907   7.993  21.073  0.00  0.00    +0.000 C 
ATOM      6  C   UNL     1      -0.483   8.546  21.452  0.00  0.00    +0.000 C 
ENDROOT
BRANCH   4   7
ATOM      7  C   UNL     1       2.341   7.621  19.108  0.00  0.00    +0.000 A 
ATOM      8  C   UNL     1       2.944   7.945  17.891  0.00  0.00    +0.000 A 
ATOM      9  C   UNL     1       3.928   7.122  17.329  0.00  0.00    +0.000 A 
ATOM     10  C   UNL     1       4.327   5.946  17.980  0.00  0.00    +0.000 A 
ATOM     11  C   UNL     1       3.753   5.615  19.213  0.00  0.00    +0.000 A 
ATOM     12  C   UNL     1       2.772   6.453  19.747  0.00  0.00    +0.000 A 
BRANCH  10  13
ATOM     13  C   UNL     1       5.307   5.102  17.362  0.00  0.00    +0.000 C 
ATOM     14  N   UNL     1       6.101   4.431  16.847  0.00  0.00    +0.000 NA
ENDBRANCH  10  13
BRANCH  11  15
ATOM     15  O   UNL     1       4.118   4.433  19.813  0.00  0.00    +0.000 OA
BRANCH  15  16
ATOM     16  C   UNL     1       3.233   3.326  19.606  0.00  0.00    +0.000 C 
BRANCH  16  17
ATOM     17  C   UNL     1       3.952   2.041  19.210  0.00  0.00    +0.000 C 
ATOM     18  O   UNL     1       3.546   1.268  18.355  0.00  0.00    +0.000 OA
BRANCH  17  19
ATOM     19  O   UNL     1       5.103   1.838  19.892  0.00  0.00    +0.000 OA
ATOM     20  H   UNL     1       4.950   1.306  20.702  0.00  0.00    +0.000 HD
ENDBRANCH  17  19
ENDBRANCH  16  17
ENDBRANCH  15  16
ENDBRANCH  11  15
ENDBRANCH   4   7
BRANCH   1  21
ATOM     21  S   UNL     1      -0.277  11.200  22.132  0.00  0.00    +0.000 S 
ATOM     22  O   UNL     1       0.697  12.060  21.496  0.00  0.00    +0.000 OA
ATOM     23  O   UNL     1      -0.006  10.597  23.422  0.00  0.00    +0.000 OA
BRANCH  21  27
ATOM     24  C   UNL     1      -4.199  13.579  22.531  0.00  0.00    +0.000 A 
ATOM     25  C   UNL     1      -3.332  13.831  21.468  0.00  0.00    +0.000 A 
ATOM     26  C   UNL     1      -2.123  13.123  21.351  0.00  0.00    +0.000 A 
ATOM     27  C   UNL     1      -1.761  12.182  22.318  0.00  0.00    +0.000 A 
ATOM     28  C   UNL     1      -2.648  11.889  23.359  0.00  0.00    +0.000 A 
ATOM     29  C   UNL     1      -3.853  12.595  23.465  0.00  0.00    +0.000 A 
BRANCH  24  30
ATOM     30  O   UNL     1      -5.390  14.200  22.783  0.00  0.00    +0.000 OA
BRANCH  30  32
ATOM     31  C   UNL     1      -6.928  16.009  22.953  0.00  0.00    +0.000 C 
ATOM     32  C   UNL     1      -5.448  15.624  22.920  0.00  0.00    +0.000 C 
ATOM     33  C   UNL     1      -4.785  16.060  24.224  0.00  0.00    +0.000 C 
ENDBRANCH  30  32
ENDBRANCH  24  30
ENDBRANCH  21  27
ENDBRANCH   1  21
TORSDOF 10
ENDMDL
MODEL 4
REMARK VINA RESULT:      -7.4      5.079      7.596
REMARK  Name = 
REMARK  12 active torsions:
REMARK  status: ('A' for Active; 'I' for Inactive)
REMARK    1  A    between atoms: C_1  and  C_2
REMARK    2  A    between atoms: C_2  and  C_3
REMARK    3  A    between atoms: C_2  and  O_4
REMARK    4  A    between atoms: O_4  and  C_5
REMARK    5  A    between atoms: C_8  and  S_9
REMARK    6  A    between atoms: S_9  and  N_12
REMARK    7  A    between atoms: N_15  and  C_16
REMARK    8  A    between atoms: C_19  and  C_20
REMARK    9  A    between atoms: C_22  and  O_23
REMARK   10  A    between atoms: O_23  and  C_24
REMARK   11  A    between atoms: C_24  and  C_25
REMARK   12  A    between atoms: C_25  and  O_27
REMARK                            x       y       z     vdW  Elec       q    Type
REMARK                         _______ _______ _______ _____ _____    ______ ____
ROOT
ATOM      1  N   UNL     1      -0.446  10.302  20.063  0.00  0.00    +0.000 NA
ATOM      2  C   UNL     1      -0.367   9.990  18.617  0.00  0.00    +0.000 C 
ATOM      3  C   UNL     1       1.042   9.543  18.220  0.00  0.00    +0.000 C 
ATOM      4  N   UNL     1       1.494   8.435  19.075  0.00  0.00    +0.000 N 
ATOM      5  C   UNL     1       1.288   8.568  20.542  0.00  0.00    +0.000 C 
ATOM      6  C   UNL     1      -0.111   9.120  20.890  0.00  0.00    +0.000 C 
ENDROOT
BRANCH   4   7
ATOM      7  C   UNL     1       2.558   7.648  18.645  0.00  0.00    +0.000 A 
ATOM      8  C   UNL     1       3.400   7.976  17.581  0.00  0.00    +0.000 A 
ATOM      9  C   UNL     1       4.384   7.083  17.136  0.00  0.00    +0.000 A 
ATOM     10  C   UNL     1       4.541   5.834  17.752  0.00  0.00    +0.000 A 
ATOM     11  C   UNL     1       3.723   5.495  18.836  0.00  0.00    +0.000 A 
ATOM     12  C   UNL     1       2.748   6.404  19.256  0.00  0.00    +0.000 A 
BRANCH  10  13
ATOM     13  C   UNL     1       5.529   4.925  17.249  0.00  0.00    +0.000 C 
ATOM     14  N   UNL     1       6.315   4.180  16.835  0.00  0.00    +0.000 NA
ENDBRANCH  10  13
BRANCH  11  15
ATOM     15  O   UNL     1       3.855   4.247  19.396  0.00  0.00    +0.000 OA
BRANCH  15  16
ATOM     16  C   UNL     1       2.633   3.561  19.693  0.00  0.00    +0.000 C 
BRANCH  16  17
ATOM     17  C   UNL     1       2.021   2.860  18.485  0.00  0.00    +0.000 C 
ATOM     18  O   UNL     1       1.212   3.382  17.731  0.00  0.00    +0.000 OA
BRANCH  17  19
ATOM     19  O   UNL     1       2.471   1.595  18.314  0.00  0.00    +0.000 OA
ATOM     20  H   UNL     1       2.670   1.412  17.371  0.00  0.00    +0.000 HD
ENDBRANCH  17  19
ENDBRANCH  16  17
ENDBRANCH  15  16
ENDBRANCH  11  15
ENDBRANCH   4   7
BRANCH   1  21
ATOM     21  S   UNL     1      -0.126  11.855  20.623  0.00  0.00    +0.000 S 
ATOM     22  O   UNL     1       0.208  12.664  19.470  0.00  0.00    +0.000 OA
ATOM     23  O   UNL     1       0.787  11.745  21.743  0.00  0.00    +0.000 OA
BRANCH  21  27
ATOM     24  C   UNL     1      -4.153  13.373  22.259  0.00  0.00    +0.000 A 
ATOM     25  C   UNL     1      -3.817  13.583  20.921  0.00  0.00    +0.000 A 
ATOM     26  C   UNL     1      -2.580  13.140  20.419  0.00  0.00    +0.000 A 
ATOM     27  C   UNL     1      -1.660  12.515  21.265  0.00  0.00    +0.000 A 
ATOM     28  C   UNL     1      -2.011  12.258  22.594  0.00  0.00    +0.000 A 
ATOM     29  C   UNL     1      -3.247  12.697  23.084  0.00  0.00    +0.000 A 
BRANCH  24  30
ATOM     30  O   UNL     1      -5.303  13.765  22.885  0.00  0.00    +0.000 OA
BRANCH  30  32
ATOM     31  C   UNL     1      -7.248  13.262  24.162  0.00  0.00    +0.000 C 
ATOM     32  C   UNL     1      -6.443  12.898  22.914  0.00  0.00    +0.000 C 
ATOM     33  C   UNL     1      -7.307  13.117  21.674  0.00  0.00    +0.000 C 
ENDBRANCH  30  32
ENDBRANCH  24  30
ENDBRANCH  21  27
ENDBRANCH   1  21
TORSDOF 10
ENDMDL
MODEL 5
REMARK VINA RESULT:      -7.4      4.967      7.322
REMARK  Name = 
REMARK  12 active torsions:
REMARK  status: ('A' for Active; 'I' for Inactive)
REMARK    1  A    between atoms: C_1  and  C_2
REMARK    2  A    between atoms: C_2  and  C_3
REMARK    3  A    between atoms: C_2  and  O_4
REMARK    4  A    between atoms: O_4  and  C_5
REMARK    5  A    between atoms: C_8  and  S_9
REMARK    6  A    between atoms: S_9  and  N_12
REMARK    7  A    between atoms: N_15  and  C_16
REMARK    8  A    between atoms: C_19  and  C_20
REMARK    9  A    between atoms: C_22  and  O_23
REMARK   10  A    between atoms: O_23  and  C_24
REMARK   11  A    between atoms: C_24  and  C_25
REMARK   12  A    between atoms: C_25  and  O_27
REMARK                            x       y       z     vdW  Elec       q    Type
REMARK                         _______ _______ _______ _____ _____    ______ ____
ROOT
ATOM      1  N   UNL     1      -0.459   9.721  20.972  0.00  0.00    +0.000 NA
ATOM      2  C   UNL     1      -0.235   9.912  19.520  0.00  0.00    +0.000 C 
ATOM      3  C   UNL     1       1.185   9.506  19.119  0.00  0.00    +0.000 C 
ATOM      4  N   UNL     1       1.481   8.138  19.573  0.00  0.00    +0.000 N 
ATOM      5  C   UNL     1       1.119   7.783  20.971  0.00  0.00    +0.000 C 
ATOM      6  C   UNL     1      -0.280   8.304  21.364  0.00  0.00    +0.000 C 
ENDROOT
BRANCH   4   7
ATOM      7  C   UNL     1       2.544   7.455  18.992  0.00  0.00    +0.000 A 
ATOM      8  C   UNL     1       3.163   7.829  17.797  0.00  0.00    +0.000 A 
ATOM      9  C   UNL     1       4.157   7.031  17.217  0.00  0.00    +0.000 A 
ATOM     10  C   UNL     1       4.552   5.832  17.827  0.00  0.00    +0.000 A 
ATOM     11  C   UNL     1       3.963   5.451  19.037  0.00  0.00    +0.000 A 
ATOM     12  C   UNL     1       2.971   6.264  19.591  0.00  0.00    +0.000 A 
BRANCH  10  13
ATOM     13  C   UNL     1       5.544   5.016  17.189  0.00  0.00    +0.000 C 
ATOM     14  N   UNL     1       6.355   4.356  16.688  0.00  0.00    +0.000 NA
ENDBRANCH  10  13
BRANCH  11  15
ATOM     15  O   UNL     1       4.324   4.248  19.596  0.00  0.00    +0.000 OA
BRANCH  15  16
ATOM     16  C   UNL     1       3.245   3.397  20.001  0.00  0.00    +0.000 C 
BRANCH  16  17
ATOM     17  C   UNL     1       2.925   2.300  18.992  0.00  0.00    +0.000 C 
ATOM     18  O   UNL     1       1.807   1.839  18.817  0.00  0.00    +0.000 OA
BRANCH  17  19
ATOM     19  O   UNL     1       4.005   1.887  18.288  0.00  0.00    +0.000 OA
ATOM     20  H   UNL     1       4.794   1.796  18.864  0.00  0.00    +0.000 HD
ENDBRANCH  17  19
ENDBRANCH  16  17
ENDBRANCH  15  16
ENDBRANCH  11  15
ENDBRANCH   4   7
BRANCH   1  21
ATOM     21  S   UNL     1      -0.125  10.958  22.061  0.00  0.00    +0.000 S 
ATOM     22  O   UNL     1       0.862  11.815  21.442  0.00  0.00    +0.000 OA
ATOM     23  O   UNL     1       0.121  10.356  23.356  0.00  0.00    +0.000 OA
BRANCH  21  27
ATOM     24  C   UNL     1      -4.054  13.331  22.428  0.00  0.00    +0.000 A 
ATOM     25  C   UNL     1      -3.313  13.381  21.247  0.00  0.00    +0.000 A 
ATOM     26  C   UNL     1      -2.101  12.676  21.134  0.00  0.00    +0.000 A 
ATOM     27  C   UNL     1      -1.610  11.942  22.218  0.00  0.00    +0.000 A 
ATOM     28  C   UNL     1      -2.372  11.848  23.387  0.00  0.00    +0.000 A 
ATOM     29  C   UNL     1      -3.580  12.549  23.489  0.00  0.00    +0.000 A 
BRANCH  24  30
ATOM     30  O   UNL     1      -5.229  13.977  22.685  0.00  0.00    +0.000 OA
BRANCH  30  32
ATOM     31  C   UNL     1      -6.213  12.319  21.288  0.00  0.00    +0.000 C 
ATOM     32  C   UNL     1      -6.481  13.350  22.386  0.00  0.00    +0.000 C 
ATOM     33  C   UNL     1      -7.029  12.640  23.622  0.00  0.00    +0.000 C 
ENDBRANCH  30  32
ENDBRANCH  24  30
ENDBRANCH  21  27
ENDBRANCH   1  21
TORSDOF 10
ENDMDL
MODEL 6
REMARK VINA RESULT:      -7.4      3.693      8.392
REMARK  Name = 
REMARK  12 active torsions:
REMARK  status: ('A' for Active; 'I' for Inactive)
REMARK    1  A    between atoms: C_1  and  C_2
REMARK    2  A    between atoms: C_2  and  C_3
REMARK    3  A    between atoms: C_2  and  O_4
REMARK    4  A    between atoms: O_4  and  C_5
REMARK    5  A    between atoms: C_8  and  S_9
REMARK    6  A    between atoms: S_9  and  N_12
REMARK    7  A    between atoms: N_15  and  C_16
REMARK    8  A    between atoms: C_19  and  C_20
REMARK    9  A    between atoms: C_22  and  O_23
REMARK   10  A    between atoms: O_23  and  C_24
REMARK   11  A    between atoms: C_24  and  C_25
REMARK   12  A    between atoms: C_25  and  O_27
REMARK                            x       y       z     vdW  Elec       q    Type
REMARK                         _______ _______ _______ _____ _____    ______ ____
ROOT
ATOM      1  N   UNL     1       3.137   4.680  19.140  0.00  0.00    +0.000 NA
ATOM      2  C   UNL     1       2.527   5.071  20.433  0.00  0.00    +0.000 C 
ATOM      3  C   UNL     1       2.524   6.591  20.609  0.00  0.00    +0.000 C 
ATOM      4  N   UNL     1       1.893   7.246  19.452  0.00  0.00    +0.000 N 
ATOM      5  C   UNL     1       2.301   6.790  18.096  0.00  0.00    +0.000 C 
ATOM      6  C   UNL     1       2.391   5.253  17.996  0.00  0.00    +0.000 C 
ENDROOT
BRANCH   4   7
ATOM      7  C   UNL     1       1.453   8.558  19.583  0.00  0.00    +0.000 A 
ATOM      8  C   UNL     1       1.447   9.495  18.548  0.00  0.00    +0.000 A 
ATOM      9  C   UNL     1       1.090  10.829  18.781  0.00  0.00    +0.000 A 
ATOM     10  C   UNL     1       0.732  11.254  20.068  0.00  0.00    +0.000 A 
ATOM     11  C   UNL     1       0.706  10.326  21.115  0.00  0.00    +0.000 A 
ATOM     12  C   UNL     1       1.071   9.003  20.854  0.00  0.00    +0.000 A 
BRANCH  10  13
ATOM     13  C   UNL     1       0.410  12.634  20.285  0.00  0.00    +0.000 C 
ATOM     14  N   UNL     1       0.135  13.745  20.469  0.00  0.00    +0.000 NA
ENDBRANCH  10  13
BRANCH  11  15
ATOM     15  O   UNL     1       0.402  10.769  22.381  0.00  0.00    +0.000 OA
BRANCH  15  16
ATOM     16  C   UNL     1      -0.905  10.435  22.863  0.00  0.00    +0.000 C 
BRANCH  16  17
ATOM     17  C   UNL     1      -1.738  11.652  23.251  0.00  0.00    +0.000 C 
ATOM     18  O   UNL     1      -2.935  11.609  23.496  0.00  0.00    +0.000 OA
BRANCH  17  19
ATOM     19  O   UNL     1      -1.019  12.797  23.314  0.00  0.00    +0.000 OA
ATOM     20  H   UNL     1      -0.333  12.750  24.015  0.00  0.00    +0.000 HD
ENDBRANCH  17  19
ENDBRANCH  16  17
ENDBRANCH  15  16
ENDBRANCH  11  15
ENDBRANCH   4   7
BRANCH   1  21
ATOM     21  S   UNL     1       4.790   4.391  19.025  0.00  0.00    +0.000 S 
ATOM     22  O   UNL     1       5.015   3.026  19.448  0.00  0.00    +0.000 OA
ATOM     23  O   UNL     1       5.479   5.492  19.667  0.00  0.00    +0.000 OA
BRANCH  21  27
ATOM     24  C   UNL     1       6.073   4.478  14.604  0.00  0.00    +0.000 A 
ATOM     25  C   UNL     1       6.078   5.651  15.358  0.00  0.00    +0.000 A 
ATOM     26  C   UNL     1       5.668   5.637  16.702  0.00  0.00    +0.000 A 
ATOM     27  C   UNL     1       5.218   4.450  17.289  0.00  0.00    +0.000 A 
ATOM     28  C   UNL     1       5.258   3.261  16.554  0.00  0.00    +0.000 A 
ATOM     29  C   UNL     1       5.673   3.284  15.217  0.00  0.00    +0.000 A 
BRANCH  24  30
ATOM     30  O   UNL     1       6.422   4.347  13.289  0.00  0.00    +0.000 OA
BRANCH  30  32
ATOM     31  C   UNL     1       4.726   3.554  11.819  0.00  0.00    +0.000 C 
ATOM     32  C   UNL     1       6.022   3.190  12.545  0.00  0.00    +0.000 C 
ATOM     33  C   UNL     1       7.090   2.824  11.518  0.00  0.00    +0.000 C 
ENDBRANCH  30  32
ENDBRANCH  24  30
ENDBRANCH  21  27
ENDBRANCH   1  21
TORSDOF 10
ENDMDL
MODEL 7
REMARK VINA RESULT:      -7.3      5.384      8.243
REMARK  Name = 
REMARK  12 active torsions:
REMARK  status: ('A' for Active; 'I' for Inactive)
REMARK    1  A    between atoms: C_1  and  C_2
REMARK    2  A    between atoms: C_2  and  C_3
REMARK    3  A    between atoms: C_2  and  O_4
REMARK    4  A    between atoms: O_4  and  C_5
REMARK    5  A    between atoms: C_8  and  S_9
REMARK    6  A    between atoms: S_9  and  N_12
REMARK    7  A    between atoms: N_15  and  C_16
REMARK    8  A    between atoms: C_19  and  C_20
REMARK    9  A    between atoms: C_22  and  O_23
REMARK   10  A    between atoms: O_23  and  C_24
REMARK   11  A    between atoms: C_24  and  C_25
REMARK   12  A    between atoms: C_25  and  O_27
REMARK                            x       y       z     vdW  Elec       q    Type
REMARK                         _______ _______ _______ _____ _____    ______ ____
ROOT
ATOM      1  N   UNL     1      -0.524  10.927  20.335  0.00  0.00    +0.000 NA
ATOM      2  C   UNL     1      -0.560  10.517  18.911  0.00  0.00    +0.000 C 
ATOM      3  C   UNL     1       0.781   9.925  18.470  0.00  0.00    +0.000 C 
ATOM      4  N   UNL     1       1.191   8.838  19.373  0.00  0.00    +0.000 N 
ATOM      5  C   UNL     1       1.086   9.083  20.836  0.00  0.00    +0.000 C 
ATOM      6  C   UNL     1      -0.239   9.775  21.221  0.00  0.00    +0.000 C 
ENDROOT
BRANCH   4   7
ATOM      7  C   UNL     1       2.157   7.937  18.940  0.00  0.00    +0.000 A 
ATOM      8  C   UNL     1       2.994   8.146  17.842  0.00  0.00    +0.000 A 
ATOM      9  C   UNL     1       3.870   7.146  17.400  0.00  0.00    +0.000 A 
ATOM     10  C   UNL     1       3.922   5.907  18.053  0.00  0.00    +0.000 A 
ATOM     11  C   UNL     1       3.109   5.685  19.170  0.00  0.00    +0.000 A 
ATOM     12  C   UNL     1       2.242   6.699  19.587  0.00  0.00    +0.000 A 
BRANCH  10  13
ATOM     13  C   UNL     1       4.799   4.888  17.553  0.00  0.00    +0.000 C 
ATOM     14  N   UNL     1       5.510   4.074  17.134  0.00  0.00    +0.000 NA
ENDBRANCH  10  13
BRANCH  11  15
ATOM     15  O   UNL     1       3.134   4.447  19.769  0.00  0.00    +0.000 OA
BRANCH  15  16
ATOM     16  C   UNL     1       2.536   4.368  21.068  0.00  0.00    +0.000 C 
BRANCH  16  17
ATOM     17  C   UNL     1       1.539   3.223  21.208  0.00  0.00    +0.000 C 
ATOM     18  O   UNL     1       1.525   2.442  22.149  0.00  0.00    +0.000 OA
BRANCH  17  19
ATOM     19  O   UNL     1       0.651   3.156  20.189  0.00  0.00    +0.000 OA
ATOM     20  H   UNL     1       0.479   2.227  19.925  0.00  0.00    +0.000 HD
ENDBRANCH  17  19
ENDBRANCH  16  17
ENDBRANCH  15  16
ENDBRANCH  11  15
ENDBRANCH   4   7
BRANCH   1  21
ATOM     21  S   UNL     1      -0.043  12.479  20.768  0.00  0.00    +0.000 S 
ATOM     22  O   UNL     1      -0.016  13.270  19.558  0.00  0.00    +0.000 OA
ATOM     23  O   UNL     1       1.133  12.361  21.607  0.00  0.00    +0.000 OA
BRANCH  21  27
ATOM     24  C   UNL     1      -3.302  14.174  23.545  0.00  0.00    +0.000 A 
ATOM     25  C   UNL     1      -3.561  13.044  22.769  0.00  0.00    +0.000 A 
ATOM     26  C   UNL     1      -2.578  12.532  21.904  0.00  0.00    +0.000 A 
ATOM     27  C   UNL     1      -1.340  13.172  21.787  0.00  0.00    +0.000 A 
ATOM     28  C   UNL     1      -1.057  14.275  22.597  0.00  0.00    +0.000 A 
ATOM     29  C   UNL     1      -2.040  14.775  23.461  0.00  0.00    +0.000 A 
BRANCH  24  30
ATOM     30  O   UNL     1      -4.163  14.790  24.408  0.00  0.00    +0.000 OA
BRANCH  30  32
ATOM     31  C   UNL     1      -6.320  15.697  23.970  0.00  0.00    +0.000 C 
ATOM     32  C   UNL     1      -4.823  16.003  24.029  0.00  0.00    +0.000 C 
ATOM     33  C   UNL     1      -4.572  17.092  25.070  0.00  0.00    +0.000 C 
ENDBRANCH  30  32
ENDBRANCH  24  30
ENDBRANCH  21  27
ENDBRANCH   1  21
TORSDOF 10
ENDMDL
MODEL 8
REMARK VINA RESULT:      -7.3      3.184      8.004
REMARK  Name = 
REMARK  12 active torsions:
REMARK  status: ('A' for Active; 'I' for Inactive)
REMARK    1  A    between atoms: C_1  and  C_2
REMARK    2  A    between atoms: C_2  and  C_3
REMARK    3  A    between atoms: C_2  and  O_4
REMARK    4  A    between atoms: O_4  and  C_5
REMARK    5  A    between atoms: C_8  and  S_9
REMARK    6  A    between atoms: S_9  and  N_12
REMARK    7  A    between atoms: N_15  and  C_16
REMARK    8  A    between atoms: C_19  and  C_20
REMARK    9  A    between atoms: C_22  and  O_23
REMARK   10  A    between atoms: O_23  and  C_24
REMARK   11  A    between atoms: C_24  and  C_25
REMARK   12  A    between atoms: C_25  and  O_27
REMARK                            x       y       z     vdW  Elec       q    Type
REMARK                         _______ _______ _______ _____ _____    ______ ____
ROOT
ATOM      1  N   UNL     1       3.057   4.973  18.681  0.00  0.00    +0.000 NA
ATOM      2  C   UNL     1       1.947   4.778  19.643  0.00  0.00    +0.000 C 
ATOM      3  C   UNL     1       1.833   5.961  20.606  0.00  0.00    +0.000 C 
ATOM      4  N   UNL     1       1.737   7.228  19.864  0.00  0.00    +0.000 N 
ATOM      5  C   UNL     1       2.693   7.444  18.745  0.00  0.00    +0.000 C 
ATOM      6  C   UNL     1       2.855   6.189  17.861  0.00  0.00    +0.000 C 
ENDROOT
BRANCH   4   7
ATOM      7  C   UNL     1       1.251   8.354  20.519  0.00  0.00    +0.000 A 
ATOM      8  C   UNL     1       0.659   8.335  21.784  0.00  0.00    +0.000 A 
ATOM      9  C   UNL     1       0.095   9.492  22.336  0.00  0.00    +0.000 A 
ATOM     10  C   UNL     1       0.110  10.699  21.624  0.00  0.00    +0.000 A 
ATOM     11  C   UNL     1       0.720  10.746  20.365  0.00  0.00    +0.000 A 
ATOM     12  C   UNL     1       1.271   9.576  19.838  0.00  0.00    +0.000 A 
BRANCH  10  13
ATOM     13  C   UNL     1      -0.510  11.858  22.197  0.00  0.00    +0.000 C 
ATOM     14  N   UNL     1      -1.025  12.784  22.667  0.00  0.00    +0.000 NA
ENDBRANCH  10  13
BRANCH  11  15
ATOM     15  O   UNL     1       0.682  11.925  19.658  0.00  0.00    +0.000 OA
BRANCH  15  16
ATOM     16  C   UNL     1       1.881  12.707  19.679  0.00  0.00    +0.000 C 
BRANCH  16  17
ATOM     17  C   UNL     1       2.372  13.105  18.292  0.00  0.00    +0.000 C 
ATOM     18  O   UNL     1       2.606  14.256  17.955  0.00  0.00    +0.000 OA
BRANCH  17  19
ATOM     19  O   UNL     1       2.541  12.050  17.460  0.00  0.00    +0.000 OA
ATOM     20  H   UNL     1       1.881  11.346  17.637  0.00  0.00    +0.000 HD
ENDBRANCH  17  19
ENDBRANCH  16  17
ENDBRANCH  15  16
ENDBRANCH  11  15
ENDBRANCH   4   7
BRANCH   1  21
ATOM     21  S   UNL     1       4.609   4.435  19.043  0.00  0.00    +0.000 S 
ATOM     22  O   UNL     1       4.508   3.030  19.372  0.00  0.00    +0.000 OA
ATOM     23  O   UNL     1       5.199   5.376  19.974  0.00  0.00    +0.000 OA
BRANCH  21  27
ATOM     24  C   UNL     1       6.974   4.829  15.112  0.00  0.00    +0.000 A 
ATOM     25  C   UNL     1       5.912   3.929  15.203  0.00  0.00    +0.000 A 
ATOM     26  C   UNL     1       5.198   3.789  16.406  0.00  0.00    +0.000 A 
ATOM     27  C   UNL     1       5.568   4.526  17.535  0.00  0.00    +0.000 A 
ATOM     28  C   UNL     1       6.600   5.464  17.436  0.00  0.00    +0.000 A 
ATOM     29  C   UNL     1       7.302   5.602  16.233  0.00  0.00    +0.000 A 
BRANCH  24  30
ATOM     30  O   UNL     1       7.766   5.054  14.021  0.00  0.00    +0.000 OA
BRANCH  30  32
ATOM     31  C   UNL     1       8.076   6.098  11.904  0.00  0.00    +0.000 C 
ATOM     32  C   UNL     1       7.187   5.153  12.715  0.00  0.00    +0.000 C 
ATOM     33  C   UNL     1       7.161   3.783  12.041  0.00  0.00    +0.000 C 
ENDBRANCH  30  32
ENDBRANCH  24  30
ENDBRANCH  21  27
ENDBRANCH   1  21
TORSDOF 10
ENDMDL
MODEL 9
REMARK VINA RESULT:      -7.3      5.019      7.516
REMARK  Name = 
REMARK  12 active torsions:
REMARK  status: ('A' for Active; 'I' for Inactive)
REMARK    1  A    between atoms: C_1  and  C_2
REMARK    2  A    between atoms: C_2  and  C_3
REMARK    3  A    between atoms: C_2  and  O_4
REMARK    4  A    between atoms: O_4  and  C_5
REMARK    5  A    between atoms: C_8  and  S_9
REMARK    6  A    between atoms: S_9  and  N_12
REMARK    7  A    between atoms: N_15  and  C_16
REMARK    8  A    between atoms: C_19  and  C_20
REMARK    9  A    between atoms: C_22  and  O_23
REMARK   10  A    between atoms: O_23  and  C_24
REMARK   11  A    between atoms: C_24  and  C_25
REMARK   12  A    between atoms: C_25  and  O_27
REMARK                            x       y       z     vdW  Elec       q    Type
REMARK                         _______ _______ _______ _____ _____    ______ ____
ROOT
ATOM      1  N   UNL     1      -0.406   9.798  20.908  0.00  0.00    +0.000 NA
ATOM      2  C   UNL     1      -0.193   9.973  19.452  0.00  0.00    +0.000 C 
ATOM      3  C   UNL     1       1.190   9.475  19.028  0.00  0.00    +0.000 C 
ATOM      4  N   UNL     1       1.404   8.091  19.480  0.00  0.00    +0.000 N 
ATOM      5  C   UNL     1       1.043   7.762  20.885  0.00  0.00    +0.000 C 
ATOM      6  C   UNL     1      -0.312   8.373  21.300  0.00  0.00    +0.000 C 
ENDROOT
BRANCH   4   7
ATOM      7  C   UNL     1       2.411   7.340  18.883  0.00  0.00    +0.000 A 
ATOM      8  C   UNL     1       3.273   7.821  17.896  0.00  0.00    +0.000 A 
ATOM      9  C   UNL     1       4.193   6.975  17.264  0.00  0.00    +0.000 A 
ATOM     10  C   UNL     1       4.264   5.618  17.610  0.00  0.00    +0.000 A 
ATOM     11  C   UNL     1       3.426   5.121  18.614  0.00  0.00    +0.000 A 
ATOM     12  C   UNL     1       2.516   5.987  19.225  0.00  0.00    +0.000 A 
BRANCH  10  13
ATOM     13  C   UNL     1       5.187   4.767  16.917  0.00  0.00    +0.000 C 
ATOM     14  N   UNL     1       5.933   4.067  16.371  0.00  0.00    +0.000 NA
ENDBRANCH  10  13
BRANCH  11  15
ATOM     15  O   UNL     1       3.473   3.778  18.906  0.00  0.00    +0.000 OA
BRANCH  15  16
ATOM     16  C   UNL     1       2.229   3.175  19.280  0.00  0.00    +0.000 C 
BRANCH  16  17
ATOM     17  C   UNL     1       2.159   2.789  20.753  0.00  0.00    +0.000 C 
ATOM     18  O   UNL     1       3.132   2.479  21.424  0.00  0.00    +0.000 OA
BRANCH  17  19
ATOM     19  O   UNL     1       0.904   2.836  21.261  0.00  0.00    +0.000 OA
ATOM     20  H   UNL     1       0.844   2.347  22.109  0.00  0.00    +0.000 HD
ENDBRANCH  17  19
ENDBRANCH  16  17
ENDBRANCH  15  16
ENDBRANCH  11  15
ENDBRANCH   4   7
BRANCH   1  21
ATOM     21  S   UNL     1       0.027  11.012  21.989  0.00  0.00    +0.000 S 
ATOM     22  O   UNL     1       1.085  11.779  21.368  0.00  0.00    +0.000 OA
ATOM     23  O   UNL     1       0.216  10.402  23.290  0.00  0.00    +0.000 OA
BRANCH  21  27
ATOM     24  C   UNL     1      -3.681  13.728  22.259  0.00  0.00    +0.000 A 
ATOM     25  C   UNL     1      -2.715  13.958  21.279  0.00  0.00    +0.000 A 
ATOM     26  C   UNL     1      -1.570  13.145  21.203  0.00  0.00    +0.000 A 
ATOM     27  C   UNL     1      -1.371  12.119  22.131  0.00  0.00    +0.000 A 
ATOM     28  C   UNL     1      -2.360  11.853  23.084  0.00  0.00    +0.000 A 
ATOM     29  C   UNL     1      -3.500  12.663  23.149  0.00  0.00    +0.000 A 
BRANCH  24  30
ATOM     30  O   UNL     1      -4.826  14.446  22.464  0.00  0.00    +0.000 OA
BRANCH  30  32
ATOM     31  C   UNL     1      -4.232  16.188  23.973  0.00  0.00    +0.000 C 
ATOM     32  C   UNL     1      -5.130  14.968  23.762  0.00  0.00    +0.000 C 
ATOM     33  C   UNL     1      -6.593  15.400  23.832  0.00  0.00    +0.000 C 
ENDBRANCH  30  32
ENDBRANCH  24  30
ENDBRANCH  21  27
ENDBRANCH   1  21
TORSDOF 10
ENDMDL
