MODEL 1
REMARK VINA RESULT:      -9.3      0.000      0.000
REMARK  Name = 
REMARK  4 active torsions:
REMARK  status: ('A' for Active; 'I' for Inactive)
REMARK    1  A    between atoms: C_2  and  C_3
REMARK    2  A    between atoms: C_3  and  C_4
REMARK    3  A    between atoms: N_6  and  C_7
REMARK    4  A    between atoms: C_7  and  C_8
REMARK                            x       y       z     vdW  Elec       q    Type
REMARK                         _______ _______ _______ _____ _____    ______ ____
ROOT
ATOM      1  C   UNL     1       2.166   6.346  19.573  0.00  0.00    +0.000 A 
ATOM      2  C   UNL     1       3.176   6.615  18.673  0.00  0.00    +0.000 A 
ATOM      3  N   UNL     1       3.472   5.462  17.992  0.00  0.00    +0.000 N 
ATOM      4  C   UNL     1       2.667   4.431  18.431  0.00  0.00    +0.000 A 
ATOM      5  C   UNL     1       2.587   3.084  18.040  0.00  0.00    +0.000 A 
ATOM      6  C   UNL     1       1.657   2.263  18.685  0.00  0.00    +0.000 A 
ATOM      7  C   UNL     1       0.836   2.762  19.689  0.00  0.00    +0.000 A 
ATOM      8  C   UNL     1       0.916   4.105  20.069  0.00  0.00    +0.000 A 
ATOM      9  C   UNL     1       1.840   4.960  19.430  0.00  0.00    +0.000 A 
ENDROOT
BRANCH   1  10
ATOM     10  C   UNL     1       1.583   7.319  20.543  0.00  0.00    +0.000 C 
BRANCH  10  12
ATOM     11  O   UNL     1       1.329   8.969  18.781  0.00  0.00    +0.000 OA
ATOM     12  C   UNL     1       1.320   8.718  19.988  0.00  0.00    +0.000 C 
ATOM     13  N   UNL     1       1.094   9.725  20.944  0.00  0.00    +0.000 N 
ATOM     14  C   UNL     1       1.181   9.515  22.391  0.00  0.00    +0.000 C 
ATOM     15  C   UNL     1      -0.194   9.287  23.014  0.00  0.00    +0.000 C 
ATOM     16  C   UNL     1      -1.023  10.559  23.174  0.00  0.00    +0.000 C 
ATOM     17  C   UNL     1      -1.240  11.354  21.885  0.00  0.00    +0.000 C 
ATOM     18  C   UNL     1       0.043  11.995  21.359  0.00  0.00    +0.000 C 
ATOM     19  C   UNL     1       0.866  11.080  20.453  0.00  0.00    +0.000 C 
ENDBRANCH  10  12
ENDBRANCH   1  10
BRANCH   3  20
ATOM     20  C   UNL     1       4.515   5.370  16.974  0.00  0.00    +0.000 C 
BRANCH  20  21
ATOM     21  C   UNL     1       5.848   5.813  17.522  0.00  0.00    +0.000 A 
ATOM     22  C   UNL     1       6.588   4.976  18.374  0.00  0.00    +0.000 A 
ATOM     23  C   UNL     1       7.769   5.425  18.964  0.00  0.00    +0.000 A 
ATOM     24  C   UNL     1       8.236   6.709  18.696  0.00  0.00    +0.000 A 
ATOM     25  C   UNL     1       7.531   7.531  17.820  0.00  0.00    +0.000 A 
ATOM     26 CL   UNL     1       8.110   9.116  17.482  0.00  0.00    +0.000 Cl
ATOM     27  C   UNL     1       6.348   7.089  17.227  0.00  0.00    +0.000 A 
ENDBRANCH  20  21
ENDBRANCH   3  20
TORSDOF 4
ENDMDL
MODEL 2
REMARK VINA RESULT:      -8.9      1.045      1.383
REMARK  Name = 
REMARK  4 active torsions:
REMARK  status: ('A' for Active; 'I' for Inactive)
REMARK    1  A    between atoms: C_2  and  C_3
REMARK    2  A    between atoms: C_3  and  C_4
REMARK    3  A    between atoms: N_6  and  C_7
REMARK    4  A    between atoms: C_7  and  C_8
REMARK                            x       y       z     vdW  Elec       q    Type
REMARK                         _______ _______ _______ _____ _____    ______ ____
ROOT
ATOM      1  C   UNL     1       2.015   6.394  19.850  0.00  0.00    +0.000 A 
ATOM      2  C   UNL     1       2.963   6.687  18.892  0.00  0.00    +0.000 A 
ATOM      3  N   UNL     1       3.387   5.513  18.323  0.00  0.00    +0.000 N 
ATOM      4  C   UNL     1       2.726   4.444  18.895  0.00  0.00    +0.000 A 
ATOM      5  C   UNL     1       2.807   3.064  18.647  0.00  0.00    +0.000 A 
ATOM      6  C   UNL     1       2.002   2.208  19.406  0.00  0.00    +0.000 A 
ATOM      7  C   UNL     1       1.148   2.708  20.382  0.00  0.00    +0.000 A 
ATOM      8  C   UNL     1       1.068   4.084  20.618  0.00  0.00    +0.000 A 
ATOM      9  C   UNL     1       1.863   4.972  19.862  0.00  0.00    +0.000 A 
ENDROOT
BRANCH   1  10
ATOM     10  C   UNL     1       1.337   7.386  20.735  0.00  0.00    +0.000 C 
BRANCH  10  12
ATOM     11  O   UNL     1       1.356   9.051  18.968  0.00  0.00    +0.000 OA
ATOM     12  C   UNL     1       1.229   8.802  20.169  0.00  0.00    +0.000 C 
ATOM     13  N   UNL     1       1.005   9.823  21.110  0.00  0.00    +0.000 N 
ATOM     14  C   UNL     1       0.956   9.608  22.557  0.00  0.00    +0.000 C 
ATOM     15  C   UNL     1      -0.479   9.488  23.064  0.00  0.00    +0.000 C 
ATOM     16  C   UNL     1      -1.217  10.821  23.164  0.00  0.00    +0.000 C 
ATOM     17  C   UNL     1      -1.265  11.630  21.867  0.00  0.00    +0.000 C 
ATOM     18  C   UNL     1       0.103  12.168  21.451  0.00  0.00    +0.000 C 
ATOM     19  C   UNL     1       0.924  11.192  20.610  0.00  0.00    +0.000 C 
ENDBRANCH  10  12
ENDBRANCH   1  10
BRANCH   3  20
ATOM     20  C   UNL     1       4.409   5.442  17.284  0.00  0.00    +0.000 C 
BRANCH  20  21
ATOM     21  C   UNL     1       5.713   6.029  17.764  0.00  0.00    +0.000 A 
ATOM     22  C   UNL     1       6.290   7.128  17.106  0.00  0.00    +0.000 A 
ATOM     23  C   UNL     1       7.546   7.604  17.484  0.00  0.00    +0.000 A 
ATOM     24  C   UNL     1       8.231   7.002  18.536  0.00  0.00    +0.000 A 
ATOM     25  C   UNL     1       7.647   5.939  19.221  0.00  0.00    +0.000 A 
ATOM     26 CL   UNL     1       8.490   5.198  20.525  0.00  0.00    +0.000 Cl
ATOM     27  C   UNL     1       6.393   5.456  18.848  0.00  0.00    +0.000 A 
ENDBRANCH  20  21
ENDBRANCH   3  20
TORSDOF 4
ENDMDL
MODEL 3
REMARK VINA RESULT:      -8.5      3.758      8.220
REMARK  Name = 
REMARK  4 active torsions:
REMARK  status: ('A' for Active; 'I' for Inactive)
REMARK    1  A    between atoms: C_2  and  C_3
REMARK    2  A    between atoms: C_3  and  C_4
REMARK    3  A    between atoms: N_6  and  C_7
REMARK    4  A    between atoms: C_7  and  C_8
REMARK                            x       y       z     vdW  Elec       q    Type
REMARK                         _______ _______ _______ _____ _____    ______ ____
ROOT
ATOM      1  C   UNL     1       1.499   8.553  20.187  0.00  0.00    +0.000 A 
ATOM      2  C   UNL     1       1.248   9.293  19.050  0.00  0.00    +0.000 A 
ATOM      3  N   UNL     1       0.390  10.312  19.374  0.00  0.00    +0.000 N 
ATOM      4  C   UNL     1       0.070  10.255  20.715  0.00  0.00    +0.000 A 
ATOM      5  C   UNL     1      -0.751  11.074  21.509  0.00  0.00    +0.000 A 
ATOM      6  C   UNL     1      -0.887  10.757  22.864  0.00  0.00    +0.000 A 
ATOM      7  C   UNL     1      -0.233   9.660  23.412  0.00  0.00    +0.000 A 
ATOM      8  C   UNL     1       0.588   8.854  22.617  0.00  0.00    +0.000 A 
ATOM      9  C   UNL     1       0.751   9.154  21.248  0.00  0.00    +0.000 A 
ENDROOT
BRANCH   1  10
ATOM     10  C   UNL     1       2.347   7.326  20.258  0.00  0.00    +0.000 C 
BRANCH  10  12
ATOM     11  O   UNL     1       2.722   6.797  17.918  0.00  0.00    +0.000 OA
ATOM     12  C   UNL     1       2.305   6.430  19.020  0.00  0.00    +0.000 C 
ATOM     13  N   UNL     1       1.729   5.160  19.201  0.00  0.00    +0.000 N 
ATOM     14  C   UNL     1       1.116   4.708  20.451  0.00  0.00    +0.000 C 
ATOM     15  C   UNL     1       2.077   3.858  21.278  0.00  0.00    +0.000 C 
ATOM     16  C   UNL     1       2.248   2.432  20.762  0.00  0.00    +0.000 C 
ATOM     17  C   UNL     1       2.694   2.323  19.303  0.00  0.00    +0.000 C 
ATOM     18  C   UNL     1       1.622   2.785  18.317  0.00  0.00    +0.000 C 
ATOM     19  C   UNL     1       1.647   4.287  18.034  0.00  0.00    +0.000 C 
ENDBRANCH  10  12
ENDBRANCH   1  10
BRANCH   3  20
ATOM     20  C   UNL     1      -0.114  11.282  18.406  0.00  0.00    +0.000 C 
BRANCH  20  21
ATOM     21  C   UNL     1      -1.538  10.971  18.017  0.00  0.00    +0.000 A 
ATOM     22  C   UNL     1      -1.821   9.986  17.057  0.00  0.00    +0.000 A 
ATOM     23  C   UNL     1      -3.128   9.772  16.621  0.00  0.00    +0.000 A 
ATOM     24  C   UNL     1      -4.171  10.526  17.152  0.00  0.00    +0.000 A 
ATOM     25  C   UNL     1      -3.905  11.477  18.135  0.00  0.00    +0.000 A 
ATOM     26 CL   UNL     1      -5.194  12.405  18.798  0.00  0.00    +0.000 Cl
ATOM     27  C   UNL     1      -2.600  11.697  18.575  0.00  0.00    +0.000 A 
ENDBRANCH  20  21
ENDBRANCH   3  20
TORSDOF 4
ENDMDL
MODEL 4
REMARK VINA RESULT:      -8.5      2.900      3.783
REMARK  Name = 
REMARK  4 active torsions:
REMARK  status: ('A' for Active; 'I' for Inactive)
REMARK    1  A    between atoms: C_2  and  C_3
REMARK    2  A    between atoms: C_3  and  C_4
REMARK    3  A    between atoms: N_6  and  C_7
REMARK    4  A    between atoms: C_7  and  C_8
REMARK                            x       y       z     vdW  Elec       q    Type
REMARK                         _______ _______ _______ _____ _____    ______ ____
ROOT
ATOM      1  C   UNL     1       3.592   6.383  17.538  0.00  0.00    +0.000 A 
ATOM      2  C   UNL     1       4.907   6.222  17.154  0.00  0.00    +0.000 A 
ATOM      3  N   UNL     1       5.173   4.881  17.057  0.00  0.00    +0.000 N 
ATOM      4  C   UNL     1       4.045   4.150  17.372  0.00  0.00    +0.000 A 
ATOM      5  C   UNL     1       3.816   2.764  17.407  0.00  0.00    +0.000 A 
ATOM      6  C   UNL     1       2.545   2.314  17.776  0.00  0.00    +0.000 A 
ATOM      7  C   UNL     1       1.535   3.210  18.104  0.00  0.00    +0.000 A 
ATOM      8  C   UNL     1       1.768   4.588  18.060  0.00  0.00    +0.000 A 
ATOM      9  C   UNL     1       3.039   5.073  17.684  0.00  0.00    +0.000 A 
ENDROOT
BRANCH   1  10
ATOM     10  C   UNL     1       2.917   7.688  17.804  0.00  0.00    +0.000 C 
BRANCH  10  12
ATOM     11  O   UNL     1       2.511   7.045  20.109  0.00  0.00    +0.000 OA
ATOM     12  C   UNL     1       2.265   7.819  19.180  0.00  0.00    +0.000 C 
ATOM     13  N   UNL     1       1.337   8.865  19.322  0.00  0.00    +0.000 N 
ATOM     14  C   UNL     1       0.920   9.745  18.229  0.00  0.00    +0.000 C 
ATOM     15  C   UNL     1       1.683  11.067  18.244  0.00  0.00    +0.000 C 
ATOM     16  C   UNL     1       1.206  12.048  19.313  0.00  0.00    +0.000 C 
ATOM     17  C   UNL     1       1.223  11.503  20.742  0.00  0.00    +0.000 C 
ATOM     18  C   UNL     1       0.184  10.407  20.972  0.00  0.00    +0.000 C 
ATOM     19  C   UNL     1       0.673   9.004  20.615  0.00  0.00    +0.000 C 
ENDBRANCH  10  12
ENDBRANCH   1  10
BRANCH   3  20
ATOM     20  C   UNL     1       6.480   4.339  16.696  0.00  0.00    +0.000 C 
BRANCH  20  21
ATOM     21  C   UNL     1       6.687   4.374  15.203  0.00  0.00    +0.000 A 
ATOM     22  C   UNL     1       7.723   5.138  14.639  0.00  0.00    +0.000 A 
ATOM     23  C   UNL     1       7.850   5.254  13.255  0.00  0.00    +0.000 A 
ATOM     24  C   UNL     1       6.956   4.595  12.417  0.00  0.00    +0.000 A 
ATOM     25  C   UNL     1       5.951   3.802  12.966  0.00  0.00    +0.000 A 
ATOM     26 CL   UNL     1       4.848   2.981  11.930  0.00  0.00    +0.000 Cl
ATOM     27  C   UNL     1       5.816   3.682  14.349  0.00  0.00    +0.000 A 
ENDBRANCH  20  21
ENDBRANCH   3  20
TORSDOF 4
ENDMDL
MODEL 5
REMARK VINA RESULT:      -8.5      2.461      3.321
REMARK  Name = 
REMARK  4 active torsions:
REMARK  status: ('A' for Active; 'I' for Inactive)
REMARK    1  A    between atoms: C_2  and  C_3
REMARK    2  A    between atoms: C_3  and  C_4
REMARK    3  A    between atoms: N_6  and  C_7
REMARK    4  A    between atoms: C_7  and  C_8
REMARK                            x       y       z     vdW  Elec       q    Type
REMARK                         _______ _______ _______ _____ _____    ______ ____
ROOT
ATOM      1  C   UNL     1       3.165   6.414  17.719  0.00  0.00    +0.000 A 
ATOM      2  C   UNL     1       4.488   6.322  17.340  0.00  0.00    +0.000 A 
ATOM      3  N   UNL     1       4.830   4.996  17.268  0.00  0.00    +0.000 N 
ATOM      4  C   UNL     1       3.745   4.208  17.595  0.00  0.00    +0.000 A 
ATOM      5  C   UNL     1       3.597   2.812  17.655  0.00  0.00    +0.000 A 
ATOM      6  C   UNL     1       2.353   2.296  18.032  0.00  0.00    +0.000 A 
ATOM      7  C   UNL     1       1.292   3.139  18.342  0.00  0.00    +0.000 A 
ATOM      8  C   UNL     1       1.445   4.526  18.273  0.00  0.00    +0.000 A 
ATOM      9  C   UNL     1       2.687   5.076  17.889  0.00  0.00    +0.000 A 
ENDROOT
BRANCH   1  10
ATOM     10  C   UNL     1       2.414   7.682  17.960  0.00  0.00    +0.000 C 
BRANCH  10  12
ATOM     11  O   UNL     1       2.336   7.196  20.337  0.00  0.00    +0.000 OA
ATOM     12  C   UNL     1       1.977   7.919  19.405  0.00  0.00    +0.000 C 
ATOM     13  N   UNL     1       1.105   9.003  19.611  0.00  0.00    +0.000 N 
ATOM     14  C   UNL     1       0.554   9.829  18.535  0.00  0.00    +0.000 C 
ATOM     15  C   UNL     1       1.344  11.122  18.353  0.00  0.00    +0.000 C 
ATOM     16  C   UNL     1       1.055  12.182  19.413  0.00  0.00    +0.000 C 
ATOM     17  C   UNL     1       1.269  11.725  20.857  0.00  0.00    +0.000 C 
ATOM     18  C   UNL     1       0.248  10.682  21.308  0.00  0.00    +0.000 C 
ATOM     19  C   UNL     1       0.644   9.244  20.975  0.00  0.00    +0.000 C 
ENDBRANCH  10  12
ENDBRANCH   1  10
BRANCH   3  20
ATOM     20  C   UNL     1       6.166   4.524  16.918  0.00  0.00    +0.000 C 
BRANCH  20  21
ATOM     21  C   UNL     1       6.355   4.490  15.422  0.00  0.00    +0.000 A 
ATOM     22  C   UNL     1       5.537   3.683  14.614  0.00  0.00    +0.000 A 
ATOM     23  C   UNL     1       5.779   3.570  13.245  0.00  0.00    +0.000 A 
ATOM     24  C   UNL     1       6.829   4.276  12.663  0.00  0.00    +0.000 A 
ATOM     25  C   UNL     1       7.620   5.111  13.450  0.00  0.00    +0.000 A 
ATOM     26 CL   UNL     1       8.913   5.989  12.732  0.00  0.00    +0.000 Cl
ATOM     27  C   UNL     1       7.385   5.227  14.820  0.00  0.00    +0.000 A 
ENDBRANCH  20  21
ENDBRANCH   3  20
TORSDOF 4
ENDMDL
MODEL 6
REMARK VINA RESULT:      -8.4      1.839      2.327
REMARK  Name = 
REMARK  4 active torsions:
REMARK  status: ('A' for Active; 'I' for Inactive)
REMARK    1  A    between atoms: C_2  and  C_3
REMARK    2  A    between atoms: C_3  and  C_4
REMARK    3  A    between atoms: N_6  and  C_7
REMARK    4  A    between atoms: C_7  and  C_8
REMARK                            x       y       z     vdW  Elec       q    Type
REMARK                         _______ _______ _______ _____ _____    ______ ____
ROOT
ATOM      1  C   UNL     1       2.293   5.906  20.185  0.00  0.00    +0.000 A 
ATOM      2  C   UNL     1       3.603   6.050  19.780  0.00  0.00    +0.000 A 
ATOM      3  N   UNL     1       4.019   4.870  19.219  0.00  0.00    +0.000 N 
ATOM      4  C   UNL     1       2.995   3.945  19.248  0.00  0.00    +0.000 A 
ATOM      5  C   UNL     1       2.930   2.617  18.791  0.00  0.00    +0.000 A 
ATOM      6  C   UNL     1       1.734   1.916  18.968  0.00  0.00    +0.000 A 
ATOM      7  C   UNL     1       0.639   2.511  19.583  0.00  0.00    +0.000 A 
ATOM      8  C   UNL     1       0.708   3.835  20.028  0.00  0.00    +0.000 A 
ATOM      9  C   UNL     1       1.900   4.570  19.856  0.00  0.00    +0.000 A 
ENDROOT
BRANCH   1  10
ATOM     10  C   UNL     1       1.480   6.943  20.888  0.00  0.00    +0.000 C 
BRANCH  10  12
ATOM     11  O   UNL     1       1.538   8.429  18.969  0.00  0.00    +0.000 OA
ATOM     12  C   UNL     1       1.405   8.300  20.188  0.00  0.00    +0.000 C 
ATOM     13  N   UNL     1       1.205   9.411  21.026  0.00  0.00    +0.000 N 
ATOM     14  C   UNL     1       1.152   9.337  22.488  0.00  0.00    +0.000 C 
ATOM     15  C   UNL     1      -0.285   9.299  23.001  0.00  0.00    +0.000 C 
ATOM     16  C   UNL     1      -0.992  10.652  22.971  0.00  0.00    +0.000 C 
ATOM     17  C   UNL     1      -1.022  11.334  21.602  0.00  0.00    +0.000 C 
ATOM     18  C   UNL     1       0.358  11.799  21.140  0.00  0.00    +0.000 C 
ATOM     19  C   UNL     1       1.156  10.727  20.397  0.00  0.00    +0.000 C 
ENDBRANCH  10  12
ENDBRANCH   1  10
BRANCH   3  20
ATOM     20  C   UNL     1       5.366   4.651  18.701  0.00  0.00    +0.000 C 
BRANCH  20  21
ATOM     21  C   UNL     1       5.470   5.087  17.260  0.00  0.00    +0.000 A 
ATOM     22  C   UNL     1       5.160   6.404  16.884  0.00  0.00    +0.000 A 
ATOM     23  C   UNL     1       5.154   6.779  15.541  0.00  0.00    +0.000 A 
ATOM     24  C   UNL     1       5.476   5.847  14.558  0.00  0.00    +0.000 A 
ATOM     25  C   UNL     1       5.826   4.549  14.924  0.00  0.00    +0.000 A 
ATOM     26 CL   UNL     1       6.231   3.398  13.711  0.00  0.00    +0.000 Cl
ATOM     27  C   UNL     1       5.832   4.167  16.266  0.00  0.00    +0.000 A 
ENDBRANCH  20  21
ENDBRANCH   3  20
TORSDOF 4
ENDMDL
MODEL 7
REMARK VINA RESULT:      -8.1      3.501      8.485
REMARK  Name = 
REMARK  4 active torsions:
REMARK  status: ('A' for Active; 'I' for Inactive)
REMARK    1  A    between atoms: C_2  and  C_3
REMARK    2  A    between atoms: C_3  and  C_4
REMARK    3  A    between atoms: N_6  and  C_7
REMARK    4  A    between atoms: C_7  and  C_8
REMARK                            x       y       z     vdW  Elec       q    Type
REMARK                         _______ _______ _______ _____ _____    ______ ____
ROOT
ATOM      1  C   UNL     1       1.051   9.097  19.559  0.00  0.00    +0.000 A 
ATOM      2  C   UNL     1       0.656  10.051  18.644  0.00  0.00    +0.000 A 
ATOM      3  N   UNL     1      -0.105  10.990  19.292  0.00  0.00    +0.000 N 
ATOM      4  C   UNL     1      -0.217  10.667  20.630  0.00  0.00    +0.000 A 
ATOM      5  C   UNL     1      -0.877  11.314  21.688  0.00  0.00    +0.000 A 
ATOM      6  C   UNL     1      -0.816  10.733  22.958  0.00  0.00    +0.000 A 
ATOM      7  C   UNL     1      -0.127   9.545  23.169  0.00  0.00    +0.000 A 
ATOM      8  C   UNL     1       0.533   8.910  22.113  0.00  0.00    +0.000 A 
ATOM      9  C   UNL     1       0.496   9.478  20.821  0.00  0.00    +0.000 A 
ENDROOT
BRANCH   1  10
ATOM     10  C   UNL     1       1.853   7.876  19.252  0.00  0.00    +0.000 C 
BRANCH  10  12
ATOM     11  O   UNL     1       2.873   9.018  17.369  0.00  0.00    +0.000 OA
ATOM     12  C   UNL     1       2.792   7.994  18.052  0.00  0.00    +0.000 C 
ATOM     13  N   UNL     1       3.547   6.847  17.749  0.00  0.00    +0.000 N 
ATOM     14  C   UNL     1       3.414   5.569  18.450  0.00  0.00    +0.000 C 
ATOM     15  C   UNL     1       4.485   5.399  19.525  0.00  0.00    +0.000 C 
ATOM     16  C   UNL     1       5.864   5.039  18.977  0.00  0.00    +0.000 C 
ATOM     17  C   UNL     1       6.420   6.014  17.938  0.00  0.00    +0.000 C 
ATOM     18  C   UNL     1       5.647   5.984  16.621  0.00  0.00    +0.000 C 
ATOM     19  C   UNL     1       4.435   6.914  16.592  0.00  0.00    +0.000 C 
ENDBRANCH  10  12
ENDBRANCH   1  10
BRANCH   3  20
ATOM     20  C   UNL     1      -0.714  12.137  18.626  0.00  0.00    +0.000 C 
BRANCH  20  21
ATOM     21  C   UNL     1      -2.081  11.790  18.092  0.00  0.00    +0.000 A 
ATOM     22  C   UNL     1      -3.226  11.951  18.890  0.00  0.00    +0.000 A 
ATOM     23  C   UNL     1      -4.476  11.533  18.435  0.00  0.00    +0.000 A 
ATOM     24  C   UNL     1      -4.601  10.966  17.169  0.00  0.00    +0.000 A 
ATOM     25  C   UNL     1      -3.478  10.841  16.354  0.00  0.00    +0.000 A 
ATOM     26 CL   UNL     1      -3.633  10.147  14.787  0.00  0.00    +0.000 Cl
ATOM     27  C   UNL     1      -2.225  11.256  16.804  0.00  0.00    +0.000 A 
ENDBRANCH  20  21
ENDBRANCH   3  20
TORSDOF 4
ENDMDL
MODEL 8
REMARK VINA RESULT:      -8.1      1.161      1.301
REMARK  Name = 
REMARK  4 active torsions:
REMARK  status: ('A' for Active; 'I' for Inactive)
REMARK    1  A    between atoms: C_2  and  C_3
REMARK    2  A    between atoms: C_3  and  C_4
REMARK    3  A    between atoms: N_6  and  C_7
REMARK    4  A    between atoms: C_7  and  C_8
REMARK                            x       y       z     vdW  Elec       q    Type
REMARK                         _______ _______ _______ _____ _____    ______ ____
ROOT
ATOM      1  C   UNL     1       2.452   6.790  18.425  0.00  0.00    +0.000 A 
ATOM      2  C   UNL     1       3.613   7.138  17.766  0.00  0.00    +0.000 A 
ATOM      3  N   UNL     1       4.154   6.008  17.210  0.00  0.00    +0.000 N 
ATOM      4  C   UNL     1       3.362   4.913  17.493  0.00  0.00    +0.000 A 
ATOM      5  C   UNL     1       3.489   3.559  17.141  0.00  0.00    +0.000 A 
ATOM      6  C   UNL     1       2.512   2.665  17.589  0.00  0.00    +0.000 A 
ATOM      7  C   UNL     1       1.445   3.102  18.366  0.00  0.00    +0.000 A 
ATOM      8  C   UNL     1       1.321   4.452  18.706  0.00  0.00    +0.000 A 
ATOM      9  C   UNL     1       2.288   5.379  18.262  0.00  0.00    +0.000 A 
ENDROOT
BRANCH   1  10
ATOM     10  C   UNL     1       1.582   7.720  19.205  0.00  0.00    +0.000 C 
BRANCH  10  12
ATOM     11  O   UNL     1       1.554   9.364  17.419  0.00  0.00    +0.000 OA
ATOM     12  C   UNL     1       1.441   9.126  18.624  0.00  0.00    +0.000 C 
ATOM     13  N   UNL     1       1.201  10.153  19.554  0.00  0.00    +0.000 N 
ATOM     14  C   UNL     1       1.166   9.954  21.004  0.00  0.00    +0.000 C 
ATOM     15  C   UNL     1      -0.262   9.809  21.522  0.00  0.00    +0.000 C 
ATOM     16  C   UNL     1      -1.028  11.127  21.612  0.00  0.00    +0.000 C 
ATOM     17  C   UNL     1      -1.102  11.920  20.306  0.00  0.00    +0.000 C 
ATOM     18  C   UNL     1       0.251  12.483  19.875  0.00  0.00    +0.000 C 
ATOM     19  C   UNL     1       1.087  11.514  19.039  0.00  0.00    +0.000 C 
ENDBRANCH  10  12
ENDBRANCH   1  10
BRANCH   3  20
ATOM     20  C   UNL     1       5.404   5.997  16.456  0.00  0.00    +0.000 C 
BRANCH  20  21
ATOM     21  C   UNL     1       6.564   6.417  17.323  0.00  0.00    +0.000 A 
ATOM     22  C   UNL     1       7.116   5.530  18.263  0.00  0.00    +0.000 A 
ATOM     23  C   UNL     1       8.117   5.952  19.137  0.00  0.00    +0.000 A 
ATOM     24  C   UNL     1       8.594   7.259  19.071  0.00  0.00    +0.000 A 
ATOM     25  C   UNL     1       8.082   8.132  18.114  0.00  0.00    +0.000 A 
ATOM     26 CL   UNL     1       8.675   9.745  18.027  0.00  0.00    +0.000 Cl
ATOM     27  C   UNL     1       7.079   7.718  17.238  0.00  0.00    +0.000 A 
ENDBRANCH  20  21
ENDBRANCH   3  20
TORSDOF 4
ENDMDL
MODEL 9
REMARK VINA RESULT:      -8.0      6.080      9.059
REMARK  Name = 
REMARK  4 active torsions:
REMARK  status: ('A' for Active; 'I' for Inactive)
REMARK    1  A    between atoms: C_2  and  C_3
REMARK    2  A    between atoms: C_3  and  C_4
REMARK    3  A    between atoms: N_6  and  C_7
REMARK    4  A    between atoms: C_7  and  C_8
REMARK                            x       y       z     vdW  Elec       q    Type
REMARK                         _______ _______ _______ _____ _____    ______ ____
ROOT
ATOM      1  C   UNL     1      -4.817  12.190  19.190  0.00  0.00    +0.000 A 
ATOM      2  C   UNL     1      -3.845  12.629  20.066  0.00  0.00    +0.000 A 
ATOM      3  N   UNL     1      -2.618  12.262  19.577  0.00  0.00    +0.000 N 
ATOM      4  C   UNL     1      -2.767  11.584  18.383  0.00  0.00    +0.000 A 
ATOM      5  C   UNL     1      -1.819  11.026  17.509  0.00  0.00    +0.000 A 
ATOM      6  C   UNL     1      -2.282  10.383  16.356  0.00  0.00    +0.000 A 
ATOM      7  C   UNL     1      -3.641  10.295  16.084  0.00  0.00    +0.000 A 
ATOM      8  C   UNL     1      -4.578  10.859  16.954  0.00  0.00    +0.000 A 
ATOM      9  C   UNL     1      -4.141  11.520  18.122  0.00  0.00    +0.000 A 
ENDROOT
BRANCH   1  10
ATOM     10  C   UNL     1      -6.290  12.342  19.376  0.00  0.00    +0.000 C 
BRANCH  10  12
ATOM     11  O   UNL     1      -6.805  10.765  21.148  0.00  0.00    +0.000 OA
ATOM     12  C   UNL     1      -6.822  11.932  20.749  0.00  0.00    +0.000 C 
ATOM     13  N   UNL     1      -7.366  12.967  21.530  0.00  0.00    +0.000 N 
ATOM     14  C   UNL     1      -7.516  14.349  21.070  0.00  0.00    +0.000 C 
ATOM     15  C   UNL     1      -6.373  15.236  21.558  0.00  0.00    +0.000 C 
ATOM     16  C   UNL     1      -6.480  15.636  23.027  0.00  0.00    +0.000 C 
ATOM     17  C   UNL     1      -6.591  14.467  24.007  0.00  0.00    +0.000 C 
ATOM     18  C   UNL     1      -7.916  13.717  23.889  0.00  0.00    +0.000 C 
ATOM     19  C   UNL     1      -7.909  12.609  22.836  0.00  0.00    +0.000 C 
ENDBRANCH  10  12
ENDBRANCH   1  10
BRANCH   3  20
ATOM     20  C   UNL     1      -1.359  12.542  20.260  0.00  0.00    +0.000 C 
BRANCH  20  21
ATOM     21  C   UNL     1      -0.928  11.368  21.105  0.00  0.00    +0.000 A 
ATOM     22  C   UNL     1      -1.296  11.284  22.458  0.00  0.00    +0.000 A 
ATOM     23  C   UNL     1      -0.811  10.255  23.265  0.00  0.00    +0.000 A 
ATOM     24  C   UNL     1       0.032   9.287  22.726  0.00  0.00    +0.000 A 
ATOM     25  C   UNL     1       0.369   9.339  21.375  0.00  0.00    +0.000 A 
ATOM     26 CL   UNL     1       1.406   8.140  20.706  0.00  0.00    +0.000 Cl
ATOM     27  C   UNL     1      -0.111  10.366  20.562  0.00  0.00    +0.000 A 
ENDBRANCH  20  21
ENDBRANCH   3  20
TORSDOF 4
ENDMDL
