MODEL 1
REMARK VINA RESULT:      -6.7      0.000      0.000
REMARK  Name = 
REMARK  8 active torsions:
REMARK  status: ('A' for Active; 'I' for Inactive)
REMARK    1  A    between atoms: N_1  and  C_2
REMARK    2  A    between atoms: C_2  and  C_3
REMARK    3  A    between atoms: C_3  and  C_4
REMARK    4  A    between atoms: C_4  and  N_5
REMARK    5  A    between atoms: N_5  and  C_6
REMARK    6  A    between atoms: N_5  and  C_13
REMARK    7  A    between atoms: C_6  and  C_7
REMARK    8  A    between atoms: C_13  and  C_14
REMARK                            x       y       z     vdW  Elec       q    Type
REMARK                         _______ _______ _______ _____ _____    ______ ____
ROOT
ATOM      1  N   UNL     1       2.713   5.024  18.677  0.00  0.00    +0.000 NA
ENDROOT
BRANCH   1   2
ATOM      2  C   UNL     1       1.610   4.047  18.807  0.00  0.00    +0.000 C 
BRANCH   2   3
ATOM      3  C   UNL     1       0.968   3.964  20.200  0.00  0.00    +0.000 C 
BRANCH   3   4
ATOM      4  C   UNL     1       1.446   2.706  20.928  0.00  0.00    +0.000 C 
BRANCH   4   5
ATOM      5  N   UNL     1       2.184   3.055  22.136  0.00  0.00    +0.000 NA
ATOM      6  H   UNL     1       2.063   4.047  22.333  0.00  0.00    +0.000 HD
ATOM      7  H   UNL     1       3.182   2.914  21.981  0.00  0.00    +0.000 HD
ENDBRANCH   4   5
ENDBRANCH   3   4
ENDBRANCH   2   3
ENDBRANCH   1   2
BRANCH   1   8
ATOM      8  C   UNL     1       2.746   5.951  19.836  0.00  0.00    +0.000 C 
BRANCH   8   9
ATOM      9  C   UNL     1       2.224   7.337  19.511  0.00  0.00    +0.000 A 
ATOM     10  C   UNL     1       1.534   8.077  20.482  0.00  0.00    +0.000 A 
ATOM     11  C   UNL     1       0.941   9.294  20.152  0.00  0.00    +0.000 A 
ATOM     12  C   UNL     1       1.044   9.791  18.853  0.00  0.00    +0.000 A 
ATOM     13  C   UNL     1       1.758   9.082  17.889  0.00  0.00    +0.000 A 
ATOM     14  C   UNL     1       2.352   7.862  18.216  0.00  0.00    +0.000 A 
ENDBRANCH   8   9
ENDBRANCH   1   8
BRANCH   1  15
ATOM     15  C   UNL     1       4.013   4.317  18.569  0.00  0.00    +0.000 C 
BRANCH  15  16
ATOM     16  C   UNL     1       5.208   5.212  18.308  0.00  0.00    +0.000 A 
ATOM     17  C   UNL     1       6.322   5.188  19.162  0.00  0.00    +0.000 A 
ATOM     18  C   UNL     1       7.436   5.981  18.891  0.00  0.00    +0.000 A 
ATOM     19  C   UNL     1       7.449   6.805  17.767  0.00  0.00    +0.000 A 
ATOM     20  C   UNL     1       6.348   6.840  16.915  0.00  0.00    +0.000 A 
ATOM     21  C   UNL     1       5.234   6.045  17.182  0.00  0.00    +0.000 A 
ENDBRANCH  15  16
ENDBRANCH   1  15
TORSDOF 8
ENDMDL
MODEL 2
REMARK VINA RESULT:      -6.6      3.022      5.036
REMARK  Name = 
REMARK  8 active torsions:
REMARK  status: ('A' for Active; 'I' for Inactive)
REMARK    1  A    between atoms: N_1  and  C_2
REMARK    2  A    between atoms: C_2  and  C_3
REMARK    3  A    between atoms: C_3  and  C_4
REMARK    4  A    between atoms: C_4  and  N_5
REMARK    5  A    between atoms: N_5  and  C_6
REMARK    6  A    between atoms: N_5  and  C_13
REMARK    7  A    between atoms: C_6  and  C_7
REMARK    8  A    between atoms: C_13  and  C_14
REMARK                            x       y       z     vdW  Elec       q    Type
REMARK                         _______ _______ _______ _____ _____    ______ ____
ROOT
ATOM      1  N   UNL     1       5.301   5.014  16.920  0.00  0.00    +0.000 NA
ENDROOT
BRANCH   1   2
ATOM      2  C   UNL     1       6.052   4.530  18.099  0.00  0.00    +0.000 C 
BRANCH   2   3
ATOM      3  C   UNL     1       7.546   4.882  18.115  0.00  0.00    +0.000 C 
BRANCH   3   4
ATOM      4  C   UNL     1       7.824   5.961  19.165  0.00  0.00    +0.000 C 
BRANCH   4   5
ATOM      5  N   UNL     1       8.094   5.360  20.466  0.00  0.00    +0.000 NA
ATOM      6  H   UNL     1       8.310   6.094  21.139  0.00  0.00    +0.000 HD
ATOM      7  H   UNL     1       8.926   4.773  20.407  0.00  0.00    +0.000 HD
ENDBRANCH   4   5
ENDBRANCH   3   4
ENDBRANCH   2   3
ENDBRANCH   1   2
BRANCH   1   8
ATOM      8  C   UNL     1       4.241   5.974  17.318  0.00  0.00    +0.000 C 
BRANCH   8   9
ATOM      9  C   UNL     1       3.135   5.340  18.139  0.00  0.00    +0.000 A 
ATOM     10  C   UNL     1       2.870   5.798  19.437  0.00  0.00    +0.000 A 
ATOM     11  C   UNL     1       1.944   5.138  20.243  0.00  0.00    +0.000 A 
ATOM     12  C   UNL     1       1.266   4.022  19.755  0.00  0.00    +0.000 A 
ATOM     13  C   UNL     1       1.495   3.579  18.454  0.00  0.00    +0.000 A 
ATOM     14  C   UNL     1       2.421   4.238  17.644  0.00  0.00    +0.000 A 
ENDBRANCH   8   9
ENDBRANCH   1   8
BRANCH   1  15
ATOM     15  C   UNL     1       6.225   5.664  15.957  0.00  0.00    +0.000 C 
BRANCH  15  16
ATOM     16  C   UNL     1       6.360   4.957  14.623  0.00  0.00    +0.000 A 
ATOM     17  C   UNL     1       5.385   4.043  14.194  0.00  0.00    +0.000 A 
ATOM     18  C   UNL     1       5.493   3.429  12.946  0.00  0.00    +0.000 A 
ATOM     19  C   UNL     1       6.575   3.721  12.117  0.00  0.00    +0.000 A 
ATOM     20  C   UNL     1       7.551   4.622  12.535  0.00  0.00    +0.000 A 
ATOM     21  C   UNL     1       7.442   5.240  13.781  0.00  0.00    +0.000 A 
ENDBRANCH  15  16
ENDBRANCH   1  15
TORSDOF 8
ENDMDL
MODEL 3
REMARK VINA RESULT:      -6.6      3.028      6.039
REMARK  Name = 
REMARK  8 active torsions:
REMARK  status: ('A' for Active; 'I' for Inactive)
REMARK    1  A    between atoms: N_1  and  C_2
REMARK    2  A    between atoms: C_2  and  C_3
REMARK    3  A    between atoms: C_3  and  C_4
REMARK    4  A    between atoms: C_4  and  N_5
REMARK    5  A    between atoms: N_5  and  C_6
REMARK    6  A    between atoms: N_5  and  C_13
REMARK    7  A    between atoms: C_6  and  C_7
REMARK    8  A    between atoms: C_13  and  C_14
REMARK                            x       y       z     vdW  Elec       q    Type
REMARK                         _______ _______ _______ _____ _____    ______ ____
ROOT
ATOM      1  N   UNL     1       4.556   3.885  17.183  0.00  0.00    +0.000 NA
ENDROOT
BRANCH   1   2
ATOM      2  C   UNL     1       5.180   3.458  15.912  0.00  0.00    +0.000 C 
BRANCH   2   3
ATOM      3  C   UNL     1       5.342   4.563  14.858  0.00  0.00    +0.000 C 
BRANCH   3   4
ATOM      4  C   UNL     1       6.626   4.342  14.054  0.00  0.00    +0.000 C 
BRANCH   4   5
ATOM      5  N   UNL     1       7.558   5.445  14.251  0.00  0.00    +0.000 NA
ATOM      6  H   UNL     1       8.080   5.298  15.114  0.00  0.00    +0.000 HD
ATOM      7  H   UNL     1       7.040   6.315  14.375  0.00  0.00    +0.000 HD
ENDBRANCH   4   5
ENDBRANCH   3   4
ENDBRANCH   2   3
ENDBRANCH   1   2
BRANCH   1   8
ATOM      8  C   UNL     1       4.500   5.365  17.281  0.00  0.00    +0.000 C 
BRANCH   8   9
ATOM      9  C   UNL     1       5.771   5.978  17.836  0.00  0.00    +0.000 A 
ATOM     10  C   UNL     1       6.355   7.085  17.203  0.00  0.00    +0.000 A 
ATOM     11  C   UNL     1       7.589   7.572  17.629  0.00  0.00    +0.000 A 
ATOM     12  C   UNL     1       8.245   6.967  18.700  0.00  0.00    +0.000 A 
ATOM     13  C   UNL     1       7.658   5.888  19.360  0.00  0.00    +0.000 A 
ATOM     14  C   UNL     1       6.423   5.398  18.935  0.00  0.00    +0.000 A 
ENDBRANCH   8   9
ENDBRANCH   1   8
BRANCH   1  15
ATOM     15  C   UNL     1       3.185   3.328  17.293  0.00  0.00    +0.000 C 
BRANCH  15  16
ATOM     16  C   UNL     1       2.615   3.303  18.697  0.00  0.00    +0.000 A 
ATOM     17  C   UNL     1       3.273   2.611  19.726  0.00  0.00    +0.000 A 
ATOM     18  C   UNL     1       2.766   2.629  21.025  0.00  0.00    +0.000 A 
ATOM     19  C   UNL     1       1.598   3.336  21.308  0.00  0.00    +0.000 A 
ATOM     20  C   UNL     1       0.934   4.021  20.295  0.00  0.00    +0.000 A 
ATOM     21  C   UNL     1       1.442   4.008  18.996  0.00  0.00    +0.000 A 
ENDBRANCH  15  16
ENDBRANCH   1  15
TORSDOF 8
ENDMDL
MODEL 4
REMARK VINA RESULT:      -6.6      3.009      5.144
REMARK  Name = 
REMARK  8 active torsions:
REMARK  status: ('A' for Active; 'I' for Inactive)
REMARK    1  A    between atoms: N_1  and  C_2
REMARK    2  A    between atoms: C_2  and  C_3
REMARK    3  A    between atoms: C_3  and  C_4
REMARK    4  A    between atoms: C_4  and  N_5
REMARK    5  A    between atoms: N_5  and  C_6
REMARK    6  A    between atoms: N_5  and  C_13
REMARK    7  A    between atoms: C_6  and  C_7
REMARK    8  A    between atoms: C_13  and  C_14
REMARK                            x       y       z     vdW  Elec       q    Type
REMARK                         _______ _______ _______ _____ _____    ______ ____
ROOT
ATOM      1  N   UNL     1       5.292   4.943  16.928  0.00  0.00    +0.000 NA
ENDROOT
BRANCH   1   2
ATOM      2  C   UNL     1       6.136   4.408  18.018  0.00  0.00    +0.000 C 
BRANCH   2   3
ATOM      3  C   UNL     1       7.584   4.921  18.039  0.00  0.00    +0.000 C 
BRANCH   3   4
ATOM      4  C   UNL     1       7.755   5.977  19.134  0.00  0.00    +0.000 C 
BRANCH   4   5
ATOM      5  N   UNL     1       8.039   5.350  20.420  0.00  0.00    +0.000 NA
ATOM      6  H   UNL     1       7.900   6.030  21.166  0.00  0.00    +0.000 HD
ATOM      7  H   UNL     1       9.021   5.078  20.460  0.00  0.00    +0.000 HD
ENDBRANCH   4   5
ENDBRANCH   3   4
ENDBRANCH   2   3
ENDBRANCH   1   2
BRANCH   1   8
ATOM      8  C   UNL     1       4.236   5.840  17.459  0.00  0.00    +0.000 C 
BRANCH   8   9
ATOM      9  C   UNL     1       3.207   5.118  18.308  0.00  0.00    +0.000 A 
ATOM     10  C   UNL     1       2.429   4.093  17.751  0.00  0.00    +0.000 A 
ATOM     11  C   UNL     1       1.396   3.514  18.486  0.00  0.00    +0.000 A 
ATOM     12  C   UNL     1       1.139   3.944  19.787  0.00  0.00    +0.000 A 
ATOM     13  C   UNL     1       1.929   4.937  20.363  0.00  0.00    +0.000 A 
ATOM     14  C   UNL     1       2.964   5.519  19.630  0.00  0.00    +0.000 A 
ENDBRANCH   8   9
ENDBRANCH   1   8
BRANCH   1  15
ATOM     15  C   UNL     1       6.128   5.684  15.951  0.00  0.00    +0.000 C 
BRANCH  15  16
ATOM     16  C   UNL     1       6.335   4.983  14.623  0.00  0.00    +0.000 A 
ATOM     17  C   UNL     1       5.410   4.032  14.163  0.00  0.00    +0.000 A 
ATOM     18  C   UNL     1       5.584   3.423  12.920  0.00  0.00    +0.000 A 
ATOM     19  C   UNL     1       6.681   3.757  12.127  0.00  0.00    +0.000 A 
ATOM     20  C   UNL     1       7.607   4.694  12.577  0.00  0.00    +0.000 A 
ATOM     21  C   UNL     1       7.433   5.308  13.817  0.00  0.00    +0.000 A 
ENDBRANCH  15  16
ENDBRANCH   1  15
TORSDOF 8
ENDMDL
MODEL 5
REMARK VINA RESULT:      -6.6      1.614      4.581
REMARK  Name = 
REMARK  8 active torsions:
REMARK  status: ('A' for Active; 'I' for Inactive)
REMARK    1  A    between atoms: N_1  and  C_2
REMARK    2  A    between atoms: C_2  and  C_3
REMARK    3  A    between atoms: C_3  and  C_4
REMARK    4  A    between atoms: C_4  and  N_5
REMARK    5  A    between atoms: N_5  and  C_6
REMARK    6  A    between atoms: N_5  and  C_13
REMARK    7  A    between atoms: C_6  and  C_7
REMARK    8  A    between atoms: C_13  and  C_14
REMARK                            x       y       z     vdW  Elec       q    Type
REMARK                         _______ _______ _______ _____ _____    ______ ____
ROOT
ATOM      1  N   UNL     1       4.813   4.854  18.033  0.00  0.00    +0.000 NA
ENDROOT
BRANCH   1   2
ATOM      2  C   UNL     1       6.218   4.803  17.576  0.00  0.00    +0.000 C 
BRANCH   2   3
ATOM      3  C   UNL     1       6.979   6.136  17.644  0.00  0.00    +0.000 C 
BRANCH   3   4
ATOM      4  C   UNL     1       7.862   6.176  18.893  0.00  0.00    +0.000 C 
BRANCH   4   5
ATOM      5  N   UNL     1       7.275   5.387  19.970  0.00  0.00    +0.000 NA
ATOM      6  H   UNL     1       7.604   5.740  20.867  0.00  0.00    +0.000 HD
ATOM      7  H   UNL     1       7.601   4.423  19.906  0.00  0.00    +0.000 HD
ENDBRANCH   4   5
ENDBRANCH   3   4
ENDBRANCH   2   3
ENDBRANCH   1   2
BRANCH   1   8
ATOM      8  C   UNL     1       4.018   5.805  17.216  0.00  0.00    +0.000 C 
BRANCH   8   9
ATOM      9  C   UNL     1       3.254   6.817  18.049  0.00  0.00    +0.000 A 
ATOM     10  C   UNL     1       2.878   6.508  19.364  0.00  0.00    +0.000 A 
ATOM     11  C   UNL     1       2.066   7.379  20.088  0.00  0.00    +0.000 A 
ATOM     12  C   UNL     1       1.634   8.573  19.511  0.00  0.00    +0.000 A 
ATOM     13  C   UNL     1       2.031   8.907  18.218  0.00  0.00    +0.000 A 
ATOM     14  C   UNL     1       2.843   8.037  17.489  0.00  0.00    +0.000 A 
ENDBRANCH   8   9
ENDBRANCH   1   8
BRANCH   1  15
ATOM     15  C   UNL     1       4.201   3.504  17.959  0.00  0.00    +0.000 C 
BRANCH  15  16
ATOM     16  C   UNL     1       3.163   3.212  19.024  0.00  0.00    +0.000 A 
ATOM     17  C   UNL     1       3.549   2.941  20.346  0.00  0.00    +0.000 A 
ATOM     18  C   UNL     1       2.586   2.716  21.330  0.00  0.00    +0.000 A 
ATOM     19  C   UNL     1       1.232   2.759  21.003  0.00  0.00    +0.000 A 
ATOM     20  C   UNL     1       0.838   3.022  19.694  0.00  0.00    +0.000 A 
ATOM     21  C   UNL     1       1.798   3.251  18.709  0.00  0.00    +0.000 A 
ENDBRANCH  15  16
ENDBRANCH   1  15
TORSDOF 8
ENDMDL
MODEL 6
REMARK VINA RESULT:      -6.6      0.253      1.137
REMARK  Name = 
REMARK  8 active torsions:
REMARK  status: ('A' for Active; 'I' for Inactive)
REMARK    1  A    between atoms: N_1  and  C_2
REMARK    2  A    between atoms: C_2  and  C_3
REMARK    3  A    between atoms: C_3  and  C_4
REMARK    4  A    between atoms: C_4  and  N_5
REMARK    5  A    between atoms: N_5  and  C_6
REMARK    6  A    between atoms: N_5  and  C_13
REMARK    7  A    between atoms: C_6  and  C_7
REMARK    8  A    between atoms: C_13  and  C_14
REMARK                            x       y       z     vdW  Elec       q    Type
REMARK                         _______ _______ _______ _____ _____    ______ ____
ROOT
ATOM      1  N   UNL     1       3.000   4.916  18.615  0.00  0.00    +0.000 NA
ENDROOT
BRANCH   1   2
ATOM      2  C   UNL     1       1.964   3.881  18.824  0.00  0.00    +0.000 C 
BRANCH   2   3
ATOM      3  C   UNL     1       1.157   4.013  20.124  0.00  0.00    +0.000 C 
BRANCH   3   4
ATOM      4  C   UNL     1       1.312   2.749  20.973  0.00  0.00    +0.000 C 
BRANCH   4   5
ATOM      5  N   UNL     1       2.096   3.022  22.172  0.00  0.00    +0.000 NA
ATOM      6  H   UNL     1       2.919   3.567  21.921  0.00  0.00    +0.000 HD
ATOM      7  H   UNL     1       2.440   2.146  22.564  0.00  0.00    +0.000 HD
ENDBRANCH   4   5
ENDBRANCH   3   4
ENDBRANCH   2   3
ENDBRANCH   1   2
BRANCH   1   8
ATOM      8  C   UNL     1       3.024   5.883  19.741  0.00  0.00    +0.000 C 
BRANCH   8   9
ATOM      9  C   UNL     1       2.296   7.177  19.434  0.00  0.00    +0.000 A 
ATOM     10  C   UNL     1       2.390   7.755  18.160  0.00  0.00    +0.000 A 
ATOM     11  C   UNL     1       1.831   9.007  17.910  0.00  0.00    +0.000 A 
ATOM     12  C   UNL     1       1.161   9.687  18.926  0.00  0.00    +0.000 A 
ATOM     13  C   UNL     1       1.029   9.107  20.187  0.00  0.00    +0.000 A 
ATOM     14  C   UNL     1       1.589   7.854  20.440  0.00  0.00    +0.000 A 
ENDBRANCH   8   9
ENDBRANCH   1   8
BRANCH   1  15
ATOM     15  C   UNL     1       4.334   4.283  18.475  0.00  0.00    +0.000 C 
BRANCH  15  16
ATOM     16  C   UNL     1       5.485   5.251  18.282  0.00  0.00    +0.000 A 
ATOM     17  C   UNL     1       6.622   5.186  19.103  0.00  0.00    +0.000 A 
ATOM     18  C   UNL     1       7.695   6.051  18.891  0.00  0.00    +0.000 A 
ATOM     19  C   UNL     1       7.643   6.988  17.861  0.00  0.00    +0.000 A 
ATOM     20  C   UNL     1       6.518   7.065  17.044  0.00  0.00    +0.000 A 
ATOM     21  C   UNL     1       5.446   6.198  17.251  0.00  0.00    +0.000 A 
ENDBRANCH  15  16
ENDBRANCH   1  15
TORSDOF 8
ENDMDL
MODEL 7
REMARK VINA RESULT:      -6.6      1.613      4.548
REMARK  Name = 
REMARK  8 active torsions:
REMARK  status: ('A' for Active; 'I' for Inactive)
REMARK    1  A    between atoms: N_1  and  C_2
REMARK    2  A    between atoms: C_2  and  C_3
REMARK    3  A    between atoms: C_3  and  C_4
REMARK    4  A    between atoms: C_4  and  N_5
REMARK    5  A    between atoms: N_5  and  C_6
REMARK    6  A    between atoms: N_5  and  C_13
REMARK    7  A    between atoms: C_6  and  C_7
REMARK    8  A    between atoms: C_13  and  C_14
REMARK                            x       y       z     vdW  Elec       q    Type
REMARK                         _______ _______ _______ _____ _____    ______ ____
ROOT
ATOM      1  N   UNL     1       4.315   5.828  18.048  0.00  0.00    +0.000 NA
ENDROOT
BRANCH   1   2
ATOM      2  C   UNL     1       5.735   5.884  17.642  0.00  0.00    +0.000 C 
BRANCH   2   3
ATOM      3  C   UNL     1       6.695   5.042  18.495  0.00  0.00    +0.000 C 
BRANCH   3   4
ATOM      4  C   UNL     1       7.751   5.939  19.145  0.00  0.00    +0.000 C 
BRANCH   4   5
ATOM      5  N   UNL     1       8.108   5.445  20.469  0.00  0.00    +0.000 NA
ATOM      6  H   UNL     1       7.709   6.058  21.179  0.00  0.00    +0.000 HD
ATOM      7  H   UNL     1       9.120   5.489  20.591  0.00  0.00    +0.000 HD
ENDBRANCH   4   5
ENDBRANCH   3   4
ENDBRANCH   2   3
ENDBRANCH   1   2
BRANCH   1   8
ATOM      8  C   UNL     1       3.517   6.867  17.351  0.00  0.00    +0.000 C 
BRANCH   8   9
ATOM      9  C   UNL     1       2.692   7.723  18.293  0.00  0.00    +0.000 A 
ATOM     10  C   UNL     1       2.414   7.274  19.592  0.00  0.00    +0.000 A 
ATOM     11  C   UNL     1       1.552   7.994  20.417  0.00  0.00    +0.000 A 
ATOM     12  C   UNL     1       0.971   9.175  19.958  0.00  0.00    +0.000 A 
ATOM     13  C   UNL     1       1.268   9.650  18.682  0.00  0.00    +0.000 A 
ATOM     14  C   UNL     1       2.131   8.931  17.853  0.00  0.00    +0.000 A 
ENDBRANCH   8   9
ENDBRANCH   1   8
BRANCH   1  15
ATOM     15  C   UNL     1       3.751   4.488  17.753  0.00  0.00    +0.000 C 
BRANCH  15  16
ATOM     16  C   UNL     1       2.870   3.909  18.843  0.00  0.00    +0.000 A 
ATOM     17  C   UNL     1       1.508   3.664  18.609  0.00  0.00    +0.000 A 
ATOM     18  C   UNL     1       0.713   3.091  19.602  0.00  0.00    +0.000 A 
ATOM     19  C   UNL     1       1.270   2.759  20.836  0.00  0.00    +0.000 A 
ATOM     20  C   UNL     1       2.619   3.003  21.080  0.00  0.00    +0.000 A 
ATOM     21  C   UNL     1       3.416   3.572  20.088  0.00  0.00    +0.000 A 
ENDBRANCH  15  16
ENDBRANCH   1  15
TORSDOF 8
ENDMDL
MODEL 8
REMARK VINA RESULT:      -6.5      1.964      5.469
REMARK  Name = 
REMARK  8 active torsions:
REMARK  status: ('A' for Active; 'I' for Inactive)
REMARK    1  A    between atoms: N_1  and  C_2
REMARK    2  A    between atoms: C_2  and  C_3
REMARK    3  A    between atoms: C_3  and  C_4
REMARK    4  A    between atoms: C_4  and  N_5
REMARK    5  A    between atoms: N_5  and  C_6
REMARK    6  A    between atoms: N_5  and  C_13
REMARK    7  A    between atoms: C_6  and  C_7
REMARK    8  A    between atoms: C_13  and  C_14
REMARK                            x       y       z     vdW  Elec       q    Type
REMARK                         _______ _______ _______ _____ _____    ______ ____
ROOT
ATOM      1  N   UNL     1       4.174   3.859  17.297  0.00  0.00    +0.000 NA
ENDROOT
BRANCH   1   2
ATOM      2  C   UNL     1       5.248   3.745  16.287  0.00  0.00    +0.000 C 
BRANCH   2   3
ATOM      3  C   UNL     1       6.585   4.394  16.676  0.00  0.00    +0.000 C 
BRANCH   3   4
ATOM      4  C   UNL     1       6.885   5.579  15.755  0.00  0.00    +0.000 C 
BRANCH   4   5
ATOM      5  N   UNL     1       7.506   6.670  16.498  0.00  0.00    +0.000 NA
ATOM      6  H   UNL     1       7.847   6.319  17.392  0.00  0.00    +0.000 HD
ATOM      7  H   UNL     1       6.806   7.379  16.716  0.00  0.00    +0.000 HD
ENDBRANCH   4   5
ENDBRANCH   3   4
ENDBRANCH   2   3
ENDBRANCH   1   2
BRANCH   1   8
ATOM      8  C   UNL     1       3.831   2.532  17.866  0.00  0.00    +0.000 C 
BRANCH   8   9
ATOM      9  C   UNL     1       2.895   2.614  19.057  0.00  0.00    +0.000 A 
ATOM     10  C   UNL     1       1.532   2.881  18.865  0.00  0.00    +0.000 A 
ATOM     11  C   UNL     1       0.692   3.085  19.959  0.00  0.00    +0.000 A 
ATOM     12  C   UNL     1       1.203   3.010  21.253  0.00  0.00    +0.000 A 
ATOM     13  C   UNL     1       2.549   2.710  21.457  0.00  0.00    +0.000 A 
ATOM     14  C   UNL     1       3.392   2.506  20.364  0.00  0.00    +0.000 A 
ENDBRANCH   8   9
ENDBRANCH   1   8
BRANCH   1  15
ATOM     15  C   UNL     1       4.592   4.774  18.388  0.00  0.00    +0.000 C 
BRANCH  15  16
ATOM     16  C   UNL     1       3.736   6.015  18.546  0.00  0.00    +0.000 A 
ATOM     17  C   UNL     1       3.702   6.996  17.542  0.00  0.00    +0.000 A 
ATOM     18  C   UNL     1       2.878   8.113  17.674  0.00  0.00    +0.000 A 
ATOM     19  C   UNL     1       2.083   8.263  18.809  0.00  0.00    +0.000 A 
ATOM     20  C   UNL     1       2.113   7.299  19.814  0.00  0.00    +0.000 A 
ATOM     21  C   UNL     1       2.932   6.178  19.681  0.00  0.00    +0.000 A 
ENDBRANCH  15  16
ENDBRANCH   1  15
TORSDOF 8
ENDMDL
MODEL 9
REMARK VINA RESULT:      -6.5      1.647      4.521
REMARK  Name = 
REMARK  8 active torsions:
REMARK  status: ('A' for Active; 'I' for Inactive)
REMARK    1  A    between atoms: N_1  and  C_2
REMARK    2  A    between atoms: C_2  and  C_3
REMARK    3  A    between atoms: C_3  and  C_4
REMARK    4  A    between atoms: C_4  and  N_5
REMARK    5  A    between atoms: N_5  and  C_6
REMARK    6  A    between atoms: N_5  and  C_13
REMARK    7  A    between atoms: C_6  and  C_7
REMARK    8  A    between atoms: C_13  and  C_14
REMARK                            x       y       z     vdW  Elec       q    Type
REMARK                         _______ _______ _______ _____ _____    ______ ____
ROOT
ATOM      1  N   UNL     1       3.149   6.316  18.096  0.00  0.00    +0.000 NA
ENDROOT
BRANCH   1   2
ATOM      2  C   UNL     1       2.774   7.701  17.736  0.00  0.00    +0.000 C 
BRANCH   2   3
ATOM      3  C   UNL     1       1.910   8.436  18.771  0.00  0.00    +0.000 C 
BRANCH   3   4
ATOM      4  C   UNL     1       1.098   9.542  18.092  0.00  0.00    +0.000 C 
BRANCH   4   5
ATOM      5  N   UNL     1       1.977  10.566  17.540  0.00  0.00    +0.000 NA
ATOM      6  H   UNL     1       2.767  10.120  17.076  0.00  0.00    +0.000 HD
ATOM      7  H   UNL     1       2.369  11.126  18.296  0.00  0.00    +0.000 HD
ENDBRANCH   4   5
ENDBRANCH   3   4
ENDBRANCH   2   3
ENDBRANCH   1   2
BRANCH   1   8
ATOM      8  C   UNL     1       1.989   5.399  17.975  0.00  0.00    +0.000 C 
BRANCH   8   9
ATOM      9  C   UNL     1       1.792   4.516  19.192  0.00  0.00    +0.000 A 
ATOM     10  C   UNL     1       2.331   4.893  20.431  0.00  0.00    +0.000 A 
ATOM     11  C   UNL     1       2.265   4.028  21.521  0.00  0.00    +0.000 A 
ATOM     12  C   UNL     1       1.649   2.785  21.389  0.00  0.00    +0.000 A 
ATOM     13  C   UNL     1       1.077   2.414  20.173  0.00  0.00    +0.000 A 
ATOM     14  C   UNL     1       1.142   3.278  19.079  0.00  0.00    +0.000 A 
ENDBRANCH   8   9
ENDBRANCH   1   8
BRANCH   1  15
ATOM     15  C   UNL     1       4.251   5.841  17.224  0.00  0.00    +0.000 C 
BRANCH  15  16
ATOM     16  C   UNL     1       5.647   6.131  17.740  0.00  0.00    +0.000 A 
ATOM     17  C   UNL     1       6.423   7.154  17.172  0.00  0.00    +0.000 A 
ATOM     18  C   UNL     1       7.689   7.444  17.681  0.00  0.00    +0.000 A 
ATOM     19  C   UNL     1       8.191   6.717  18.759  0.00  0.00    +0.000 A 
ATOM     20  C   UNL     1       7.431   5.697  19.327  0.00  0.00    +0.000 A 
ATOM     21  C   UNL     1       6.164   5.408  18.823  0.00  0.00    +0.000 A 
ENDBRANCH  15  16
ENDBRANCH   1  15
TORSDOF 8
ENDMDL
