MODEL 1
REMARK VINA RESULT:      -8.2      0.000      0.000
REMARK  Name = 
REMARK  7 active torsions:
REMARK  status: ('A' for Active; 'I' for Inactive)
REMARK    1  A    between atoms: C_1  and  O_2
REMARK    2  A    between atoms: O_2  and  C_3
REMARK    3  A    between atoms: C_6  and  C_7
REMARK    4  A    between atoms: C_9  and  C_10
REMARK    5  A    between atoms: N_11  and  S_12
REMARK    6  A    between atoms: S_12  and  O_15
REMARK    7  A    between atoms: O_15  and  C_16
REMARK                            x       y       z     vdW  Elec       q    Type
REMARK                         _______ _______ _______ _____ _____    ______ ____
ROOT
ATOM      1  C   UNL     1       2.244   6.300  19.816  0.00  0.00    +0.000 A 
ATOM      2  C   UNL     1       1.782   5.479  20.875  0.00  0.00    +0.000 A 
ATOM      3  C   UNL     1       2.368   4.240  20.701  0.00  0.00    +0.000 A 
ATOM      4  C   UNL     1       2.207   3.012  21.513  0.00  0.00    +0.000 C 
ATOM      5  N   UNL     1       3.123   4.359  19.541  0.00  0.00    +0.000 N 
ATOM      6  N   UNL     1       3.103   5.627  19.037  0.00  0.00    +0.000 NA
ENDROOT
BRANCH   1  10
ATOM      7  C   UNL     1       1.179  10.375  19.037  0.00  0.00    +0.000 A 
ATOM      8  C   UNL     1       1.844   9.621  18.070  0.00  0.00    +0.000 A 
ATOM      9  C   UNL     1       2.193   8.291  18.321  0.00  0.00    +0.000 A 
ATOM     10  C   UNL     1       1.891   7.696  19.552  0.00  0.00    +0.000 A 
ATOM     11  C   UNL     1       1.249   8.470  20.531  0.00  0.00    +0.000 A 
ATOM     12  C   UNL     1       0.899   9.803  20.277  0.00  0.00    +0.000 A 
BRANCH   7  14
ATOM     13  C   UNL     1       2.005  12.513  18.477  0.00  0.00    +0.000 C 
ATOM     14  O   UNL     1       0.883  11.659  18.672  0.00  0.00    +0.000 OA
ENDBRANCH   7  14
ENDBRANCH   1  10
BRANCH   5  15
ATOM     15  S   UNL     1       4.079   3.045  18.862  0.00  0.00    +0.000 S 
ATOM     16  O   UNL     1       5.086   2.770  19.874  0.00  0.00    +0.000 OA
ATOM     17  O   UNL     1       3.110   2.027  18.489  0.00  0.00    +0.000 OA
BRANCH  15  18
ATOM     18  O   UNL     1       4.806   3.614  17.507  0.00  0.00    +0.000 OA
BRANCH  18  19
ATOM     19  C   UNL     1       5.661   4.692  17.581  0.00  0.00    +0.000 A 
ATOM     20  C   UNL     1       5.318   5.830  16.847  0.00  0.00    +0.000 A 
ATOM     21  C   UNL     1       6.142   6.963  16.876  0.00  0.00    +0.000 A 
ATOM     22  C   UNL     1       7.302   6.967  17.650  0.00  0.00    +0.000 A 
ATOM     23  C   UNL     1       7.633   5.843  18.400  0.00  0.00    +0.000 A 
ATOM     24  C   UNL     1       6.813   4.713  18.370  0.00  0.00    +0.000 A 
ENDBRANCH  18  19
ENDBRANCH  15  18
ENDBRANCH   5  15
TORSDOF 5
ENDMDL
MODEL 2
REMARK VINA RESULT:      -8.1      0.978      1.549
REMARK  Name = 
REMARK  7 active torsions:
REMARK  status: ('A' for Active; 'I' for Inactive)
REMARK    1  A    between atoms: C_1  and  O_2
REMARK    2  A    between atoms: O_2  and  C_3
REMARK    3  A    between atoms: C_6  and  C_7
REMARK    4  A    between atoms: C_9  and  C_10
REMARK    5  A    between atoms: N_11  and  S_12
REMARK    6  A    between atoms: S_12  and  O_15
REMARK    7  A    between atoms: O_15  and  C_16
REMARK                            x       y       z     vdW  Elec       q    Type
REMARK                         _______ _______ _______ _____ _____    ______ ____
ROOT
ATOM      1  C   UNL     1       2.260   6.286  19.938  0.00  0.00    +0.000 A 
ATOM      2  C   UNL     1       1.638   5.351  20.803  0.00  0.00    +0.000 A 
ATOM      3  C   UNL     1       2.340   4.167  20.677  0.00  0.00    +0.000 A 
ATOM      4  C   UNL     1       2.095   2.865  21.340  0.00  0.00    +0.000 C 
ATOM      5  N   UNL     1       3.321   4.429  19.730  0.00  0.00    +0.000 N 
ATOM      6  N   UNL     1       3.317   5.733  19.327  0.00  0.00    +0.000 NA
ENDROOT
BRANCH   1  10
ATOM      7  C   UNL     1       1.087  10.347  19.245  0.00  0.00    +0.000 A 
ATOM      8  C   UNL     1       1.697   9.605  18.234  0.00  0.00    +0.000 A 
ATOM      9  C   UNL     1       2.081   8.279  18.456  0.00  0.00    +0.000 A 
ATOM     10  C   UNL     1       1.870   7.677  19.703  0.00  0.00    +0.000 A 
ATOM     11  C   UNL     1       1.285   8.439  20.725  0.00  0.00    +0.000 A 
ATOM     12  C   UNL     1       0.899   9.768  20.499  0.00  0.00    +0.000 A 
BRANCH   7  14
ATOM     13  C   UNL     1       1.843  12.488  18.602  0.00  0.00    +0.000 C 
ATOM     14  O   UNL     1       0.750  11.627  18.905  0.00  0.00    +0.000 OA
ENDBRANCH   7  14
ENDBRANCH   1  10
BRANCH   5  15
ATOM     15  S   UNL     1       4.498   3.236  19.191  0.00  0.00    +0.000 S 
ATOM     16  O   UNL     1       4.913   2.561  20.411  0.00  0.00    +0.000 OA
ATOM     17  O   UNL     1       3.832   2.499  18.130  0.00  0.00    +0.000 OA
BRANCH  15  18
ATOM     18  O   UNL     1       5.772   4.051  18.558  0.00  0.00    +0.000 OA
BRANCH  18  19
ATOM     19  C   UNL     1       5.728   4.501  17.257  0.00  0.00    +0.000 A 
ATOM     20  C   UNL     1       6.074   3.591  16.254  0.00  0.00    +0.000 A 
ATOM     21  C   UNL     1       6.051   3.981  14.910  0.00  0.00    +0.000 A 
ATOM     22  C   UNL     1       5.669   5.276  14.560  0.00  0.00    +0.000 A 
ATOM     23  C   UNL     1       5.302   6.177  15.555  0.00  0.00    +0.000 A 
ATOM     24  C   UNL     1       5.326   5.789  16.896  0.00  0.00    +0.000 A 
ENDBRANCH  18  19
ENDBRANCH  15  18
ENDBRANCH   5  15
TORSDOF 5
ENDMDL
MODEL 3
REMARK VINA RESULT:      -8.1      0.579      1.167
REMARK  Name = 
REMARK  7 active torsions:
REMARK  status: ('A' for Active; 'I' for Inactive)
REMARK    1  A    between atoms: C_1  and  O_2
REMARK    2  A    between atoms: O_2  and  C_3
REMARK    3  A    between atoms: C_6  and  C_7
REMARK    4  A    between atoms: C_9  and  C_10
REMARK    5  A    between atoms: N_11  and  S_12
REMARK    6  A    between atoms: S_12  and  O_15
REMARK    7  A    between atoms: O_15  and  C_16
REMARK                            x       y       z     vdW  Elec       q    Type
REMARK                         _______ _______ _______ _____ _____    ______ ____
ROOT
ATOM      1  C   UNL     1       2.296   6.423  19.728  0.00  0.00    +0.000 A 
ATOM      2  C   UNL     1       1.840   5.591  20.781  0.00  0.00    +0.000 A 
ATOM      3  C   UNL     1       2.468   4.370  20.623  0.00  0.00    +0.000 A 
ATOM      4  C   UNL     1       2.329   3.141  21.437  0.00  0.00    +0.000 C 
ATOM      5  N   UNL     1       3.242   4.509  19.478  0.00  0.00    +0.000 N 
ATOM      6  N   UNL     1       3.191   5.774  18.969  0.00  0.00    +0.000 NA
ENDROOT
BRANCH   1  10
ATOM      7  C   UNL     1       1.183  10.480  18.928  0.00  0.00    +0.000 A 
ATOM      8  C   UNL     1       0.882   9.894  20.157  0.00  0.00    +0.000 A 
ATOM      9  C   UNL     1       1.244   8.570  20.422  0.00  0.00    +0.000 A 
ATOM     10  C   UNL     1       1.905   7.806  19.452  0.00  0.00    +0.000 A 
ATOM     11  C   UNL     1       2.175   8.392  18.207  0.00  0.00    +0.000 A 
ATOM     12  C   UNL     1       1.813   9.720  17.944  0.00  0.00    +0.000 A 
BRANCH   7  14
ATOM     13  C   UNL     1      -0.589  12.034  19.057  0.00  0.00    +0.000 C 
ATOM     14  O   UNL     1       0.787  11.782  18.791  0.00  0.00    +0.000 OA
ENDBRANCH   7  14
ENDBRANCH   1  10
BRANCH   5  15
ATOM     15  S   UNL     1       4.251   3.223  18.824  0.00  0.00    +0.000 S 
ATOM     16  O   UNL     1       5.175   2.905  19.901  0.00  0.00    +0.000 OA
ATOM     17  O   UNL     1       3.318   2.223  18.332  0.00  0.00    +0.000 OA
BRANCH  15  18
ATOM     18  O   UNL     1       5.083   3.848  17.557  0.00  0.00    +0.000 OA
BRANCH  18  19
ATOM     19  C   UNL     1       5.957   4.896  17.751  0.00  0.00    +0.000 A 
ATOM     20  C   UNL     1       5.767   6.039  16.970  0.00  0.00    +0.000 A 
ATOM     21  C   UNL     1       6.617   7.142  17.115  0.00  0.00    +0.000 A 
ATOM     22  C   UNL     1       7.652   7.112  18.051  0.00  0.00    +0.000 A 
ATOM     23  C   UNL     1       7.829   5.984  18.845  0.00  0.00    +0.000 A 
ATOM     24  C   UNL     1       6.981   4.884  18.700  0.00  0.00    +0.000 A 
ENDBRANCH  18  19
ENDBRANCH  15  18
ENDBRANCH   5  15
TORSDOF 5
ENDMDL
MODEL 4
REMARK VINA RESULT:      -8.1      1.060      1.759
REMARK  Name = 
REMARK  7 active torsions:
REMARK  status: ('A' for Active; 'I' for Inactive)
REMARK    1  A    between atoms: C_1  and  O_2
REMARK    2  A    between atoms: O_2  and  C_3
REMARK    3  A    between atoms: C_6  and  C_7
REMARK    4  A    between atoms: C_9  and  C_10
REMARK    5  A    between atoms: N_11  and  S_12
REMARK    6  A    between atoms: S_12  and  O_15
REMARK    7  A    between atoms: O_15  and  C_16
REMARK                            x       y       z     vdW  Elec       q    Type
REMARK                         _______ _______ _______ _____ _____    ______ ____
ROOT
ATOM      1  C   UNL     1       2.228   6.224  19.995  0.00  0.00    +0.000 A 
ATOM      2  C   UNL     1       1.596   5.270  20.830  0.00  0.00    +0.000 A 
ATOM      3  C   UNL     1       2.304   4.091  20.692  0.00  0.00    +0.000 A 
ATOM      4  C   UNL     1       2.054   2.776  21.325  0.00  0.00    +0.000 C 
ATOM      5  N   UNL     1       3.300   4.376  19.767  0.00  0.00    +0.000 N 
ATOM      6  N   UNL     1       3.298   5.688  19.391  0.00  0.00    +0.000 NA
ENDROOT
BRANCH   1  10
ATOM      7  C   UNL     1       1.116  10.314  19.377  0.00  0.00    +0.000 A 
ATOM      8  C   UNL     1       0.886   9.697  20.606  0.00  0.00    +0.000 A 
ATOM      9  C   UNL     1       1.247   8.363  20.812  0.00  0.00    +0.000 A 
ATOM     10  C   UNL     1       1.836   7.619  19.782  0.00  0.00    +0.000 A 
ATOM     11  C   UNL     1       2.036   8.236  18.539  0.00  0.00    +0.000 A 
ATOM     12  C   UNL     1       1.674   9.575  18.335  0.00  0.00    +0.000 A 
BRANCH   7  14
ATOM     13  C   UNL     1       1.234  12.472  20.325  0.00  0.00    +0.000 C 
ATOM     14  O   UNL     1       0.727  11.623  19.300  0.00  0.00    +0.000 OA
ENDBRANCH   7  14
ENDBRANCH   1  10
BRANCH   5  15
ATOM     15  S   UNL     1       4.491   3.198  19.225  0.00  0.00    +0.000 S 
ATOM     16  O   UNL     1       4.923   2.533  20.445  0.00  0.00    +0.000 OA
ATOM     17  O   UNL     1       3.828   2.449  18.170  0.00  0.00    +0.000 OA
BRANCH  15  18
ATOM     18  O   UNL     1       5.749   4.030  18.582  0.00  0.00    +0.000 OA
BRANCH  18  19
ATOM     19  C   UNL     1       5.710   4.436  17.265  0.00  0.00    +0.000 A 
ATOM     20  C   UNL     1       5.308   5.750  17.013  0.00  0.00    +0.000 A 
ATOM     21  C   UNL     1       5.247   6.228  15.699  0.00  0.00    +0.000 A 
ATOM     22  C   UNL     1       5.600   5.401  14.633  0.00  0.00    +0.000 A 
ATOM     23  C   UNL     1       6.021   4.099  14.883  0.00  0.00    +0.000 A 
ATOM     24  C   UNL     1       6.082   3.621  16.194  0.00  0.00    +0.000 A 
ENDBRANCH  18  19
ENDBRANCH  15  18
ENDBRANCH   5  15
TORSDOF 5
ENDMDL
MODEL 5
REMARK VINA RESULT:      -8.1      5.029      6.454
REMARK  Name = 
REMARK  7 active torsions:
REMARK  status: ('A' for Active; 'I' for Inactive)
REMARK    1  A    between atoms: C_1  and  O_2
REMARK    2  A    between atoms: O_2  and  C_3
REMARK    3  A    between atoms: C_6  and  C_7
REMARK    4  A    between atoms: C_9  and  C_10
REMARK    5  A    between atoms: N_11  and  S_12
REMARK    6  A    between atoms: S_12  and  O_15
REMARK    7  A    between atoms: O_15  and  C_16
REMARK                            x       y       z     vdW  Elec       q    Type
REMARK                         _______ _______ _______ _____ _____    ______ ____
ROOT
ATOM      1  C   UNL     1       7.924   8.416  18.018  0.00  0.00    +0.000 A 
ATOM      2  C   UNL     1       8.310   7.172  18.578  0.00  0.00    +0.000 A 
ATOM      3  C   UNL     1       7.466   6.217  18.042  0.00  0.00    +0.000 A 
ATOM      4  C   UNL     1       7.422   4.761  18.308  0.00  0.00    +0.000 C 
ATOM      5  N   UNL     1       6.599   6.924  17.219  0.00  0.00    +0.000 N 
ATOM      6  N   UNL     1       6.916   8.250  17.151  0.00  0.00    +0.000 NA
ENDROOT
BRANCH   1  10
ATOM      7  C   UNL     1       9.644  12.262  18.785  0.00  0.00    +0.000 A 
ATOM      8  C   UNL     1       9.963  11.172  19.594  0.00  0.00    +0.000 A 
ATOM      9  C   UNL     1       9.403   9.915  19.347  0.00  0.00    +0.000 A 
ATOM     10  C   UNL     1       8.504   9.732  18.289  0.00  0.00    +0.000 A 
ATOM     11  C   UNL     1       8.165  10.840  17.499  0.00  0.00    +0.000 A 
ATOM     12  C   UNL     1       8.728  12.099  17.747  0.00  0.00    +0.000 A 
BRANCH   7  14
ATOM     13  C   UNL     1      10.154  14.480  18.158  0.00  0.00    +0.000 C 
ATOM     14  O   UNL     1      10.261  13.436  19.121  0.00  0.00    +0.000 OA
ENDBRANCH   7  14
ENDBRANCH   1  10
BRANCH   5  15
ATOM     15  S   UNL     1       5.306   6.171  16.291  0.00  0.00    +0.000 S 
ATOM     16  O   UNL     1       4.229   5.990  17.252  0.00  0.00    +0.000 OA
ATOM     17  O   UNL     1       5.125   7.028  15.131  0.00  0.00    +0.000 OA
BRANCH  15  18
ATOM     18  O   UNL     1       5.847   4.705  15.794  0.00  0.00    +0.000 OA
BRANCH  18  19
ATOM     19  C   UNL     1       6.301   4.536  14.504  0.00  0.00    +0.000 A 
ATOM     20  C   UNL     1       5.554   3.703  13.667  0.00  0.00    +0.000 A 
ATOM     21  C   UNL     1       5.957   3.486  12.344  0.00  0.00    +0.000 A 
ATOM     22  C   UNL     1       7.100   4.112  11.847  0.00  0.00    +0.000 A 
ATOM     23  C   UNL     1       7.833   4.960  12.671  0.00  0.00    +0.000 A 
ATOM     24  C   UNL     1       7.432   5.175  13.991  0.00  0.00    +0.000 A 
ENDBRANCH  18  19
ENDBRANCH  15  18
ENDBRANCH   5  15
TORSDOF 5
ENDMDL
MODEL 6
REMARK VINA RESULT:      -8.1      0.148      1.396
REMARK  Name = 
REMARK  7 active torsions:
REMARK  status: ('A' for Active; 'I' for Inactive)
REMARK    1  A    between atoms: C_1  and  O_2
REMARK    2  A    between atoms: O_2  and  C_3
REMARK    3  A    between atoms: C_6  and  C_7
REMARK    4  A    between atoms: C_9  and  C_10
REMARK    5  A    between atoms: N_11  and  S_12
REMARK    6  A    between atoms: S_12  and  O_15
REMARK    7  A    between atoms: O_15  and  C_16
REMARK                            x       y       z     vdW  Elec       q    Type
REMARK                         _______ _______ _______ _____ _____    ______ ____
ROOT
ATOM      1  C   UNL     1       2.230   6.346  19.792  0.00  0.00    +0.000 A 
ATOM      2  C   UNL     1       1.781   5.509  20.843  0.00  0.00    +0.000 A 
ATOM      3  C   UNL     1       2.384   4.279  20.656  0.00  0.00    +0.000 A 
ATOM      4  C   UNL     1       2.240   3.041  21.456  0.00  0.00    +0.000 C 
ATOM      5  N   UNL     1       3.135   4.420  19.497  0.00  0.00    +0.000 N 
ATOM      6  N   UNL     1       3.097   5.693  19.006  0.00  0.00    +0.000 NA
ENDROOT
BRANCH   1  10
ATOM      7  C   UNL     1       1.174  10.434  19.071  0.00  0.00    +0.000 A 
ATOM      8  C   UNL     1       0.869   9.830  20.291  0.00  0.00    +0.000 A 
ATOM      9  C   UNL     1       1.212   8.496  20.530  0.00  0.00    +0.000 A 
ATOM     10  C   UNL     1       1.858   7.740  19.543  0.00  0.00    +0.000 A 
ATOM     11  C   UNL     1       2.134   8.345  18.309  0.00  0.00    +0.000 A 
ATOM     12  C   UNL     1       1.791   9.683  18.071  0.00  0.00    +0.000 A 
BRANCH   7  14
ATOM     13  C   UNL     1       1.804  12.632  18.485  0.00  0.00    +0.000 C 
ATOM     14  O   UNL     1       0.797  11.743  18.960  0.00  0.00    +0.000 OA
ENDBRANCH   7  14
ENDBRANCH   1  10
BRANCH   5  15
ATOM     15  S   UNL     1       4.107   3.125  18.804  0.00  0.00    +0.000 S 
ATOM     16  O   UNL     1       5.105   2.837  19.823  0.00  0.00    +0.000 OA
ATOM     17  O   UNL     1       3.150   2.109  18.399  0.00  0.00    +0.000 OA
BRANCH  15  18
ATOM     18  O   UNL     1       4.847   3.726  17.470  0.00  0.00    +0.000 OA
BRANCH  18  19
ATOM     19  C   UNL     1       5.679   4.819  17.572  0.00  0.00    +0.000 A 
ATOM     20  C   UNL     1       6.839   4.670  18.336  0.00  0.00    +0.000 A 
ATOM     21  C   UNL     1       7.731   5.740  18.481  0.00  0.00    +0.000 A 
ATOM     22  C   UNL     1       7.473   6.958  17.852  0.00  0.00    +0.000 A 
ATOM     23  C   UNL     1       6.331   7.102  17.072  0.00  0.00    +0.000 A 
ATOM     24  C   UNL     1       5.441   6.035  16.928  0.00  0.00    +0.000 A 
ENDBRANCH  18  19
ENDBRANCH  15  18
ENDBRANCH   5  15
TORSDOF 5
ENDMDL
MODEL 7
REMARK VINA RESULT:      -8.0      0.518      1.106
REMARK  Name = 
REMARK  7 active torsions:
REMARK  status: ('A' for Active; 'I' for Inactive)
REMARK    1  A    between atoms: C_1  and  O_2
REMARK    2  A    between atoms: O_2  and  C_3
REMARK    3  A    between atoms: C_6  and  C_7
REMARK    4  A    between atoms: C_9  and  C_10
REMARK    5  A    between atoms: N_11  and  S_12
REMARK    6  A    between atoms: S_12  and  O_15
REMARK    7  A    between atoms: O_15  and  C_16
REMARK                            x       y       z     vdW  Elec       q    Type
REMARK                         _______ _______ _______ _____ _____    ______ ____
ROOT
ATOM      1  C   UNL     1       2.254   6.406  19.761  0.00  0.00    +0.000 A 
ATOM      2  C   UNL     1       1.804   5.549  20.796  0.00  0.00    +0.000 A 
ATOM      3  C   UNL     1       2.428   4.331  20.602  0.00  0.00    +0.000 A 
ATOM      4  C   UNL     1       2.293   3.081  21.384  0.00  0.00    +0.000 C 
ATOM      5  N   UNL     1       3.191   4.497  19.453  0.00  0.00    +0.000 N 
ATOM      6  N   UNL     1       3.140   5.775  18.978  0.00  0.00    +0.000 NA
ENDROOT
BRANCH   1  10
ATOM      7  C   UNL     1       1.081  10.465  19.062  0.00  0.00    +0.000 A 
ATOM      8  C   UNL     1       1.724   9.734  18.064  0.00  0.00    +0.000 A 
ATOM      9  C   UNL     1       2.108   8.409  18.288  0.00  0.00    +0.000 A 
ATOM     10  C   UNL     1       1.864   7.797  19.525  0.00  0.00    +0.000 A 
ATOM     11  C   UNL     1       1.245   8.549  20.534  0.00  0.00    +0.000 A 
ATOM     12  C   UNL     1       0.859   9.877  20.306  0.00  0.00    +0.000 A 
BRANCH   7  14
ATOM     13  C   UNL     1       0.259  12.556  19.786  0.00  0.00    +0.000 C 
ATOM     14  O   UNL     1       0.746  11.747  18.720  0.00  0.00    +0.000 OA
ENDBRANCH   7  14
ENDBRANCH   1  10
BRANCH   5  15
ATOM     15  S   UNL     1       4.191   3.226  18.757  0.00  0.00    +0.000 S 
ATOM     16  O   UNL     1       5.153   2.909  19.801  0.00  0.00    +0.000 OA
ATOM     17  O   UNL     1       3.251   2.220  18.288  0.00  0.00    +0.000 OA
BRANCH  15  18
ATOM     18  O   UNL     1       4.975   3.868  17.468  0.00  0.00    +0.000 OA
BRANCH  18  19
ATOM     19  C   UNL     1       5.825   4.938  17.637  0.00  0.00    +0.000 A 
ATOM     20  C   UNL     1       6.898   4.770  18.516  0.00  0.00    +0.000 A 
ATOM     21  C   UNL     1       7.802   5.816  18.735  0.00  0.00    +0.000 A 
ATOM     22  C   UNL     1       7.646   7.030  18.065  0.00  0.00    +0.000 A 
ATOM     23  C   UNL     1       6.592   7.193  17.172  0.00  0.00    +0.000 A 
ATOM     24  C   UNL     1       5.690   6.149  16.955  0.00  0.00    +0.000 A 
ENDBRANCH  18  19
ENDBRANCH  15  18
ENDBRANCH   5  15
TORSDOF 5
ENDMDL
MODEL 8
REMARK VINA RESULT:      -8.0      1.093      1.351
REMARK  Name = 
REMARK  7 active torsions:
REMARK  status: ('A' for Active; 'I' for Inactive)
REMARK    1  A    between atoms: C_1  and  O_2
REMARK    2  A    between atoms: O_2  and  C_3
REMARK    3  A    between atoms: C_6  and  C_7
REMARK    4  A    between atoms: C_9  and  C_10
REMARK    5  A    between atoms: N_11  and  S_12
REMARK    6  A    between atoms: S_12  and  O_15
REMARK    7  A    between atoms: O_15  and  C_16
REMARK                            x       y       z     vdW  Elec       q    Type
REMARK                         _______ _______ _______ _____ _____    ______ ____
ROOT
ATOM      1  C   UNL     1       2.096   6.167  20.139  0.00  0.00    +0.000 A 
ATOM      2  C   UNL     1       1.357   5.085  20.679  0.00  0.00    +0.000 A 
ATOM      3  C   UNL     1       2.102   3.943  20.449  0.00  0.00    +0.000 A 
ATOM      4  C   UNL     1       1.779   2.539  20.790  0.00  0.00    +0.000 C 
ATOM      5  N   UNL     1       3.227   4.379  19.762  0.00  0.00    +0.000 N 
ATOM      6  N   UNL     1       3.259   5.737  19.630  0.00  0.00    +0.000 NA
ENDROOT
BRANCH   1  10
ATOM      7  C   UNL     1       0.954  10.295  20.068  0.00  0.00    +0.000 A 
ATOM      8  C   UNL     1       1.466   9.684  18.924  0.00  0.00    +0.000 A 
ATOM      9  C   UNL     1       1.841   8.337  18.944  0.00  0.00    +0.000 A 
ATOM     10  C   UNL     1       1.717   7.581  20.117  0.00  0.00    +0.000 A 
ATOM     11  C   UNL     1       1.230   8.211  21.271  0.00  0.00    +0.000 A 
ATOM     12  C   UNL     1       0.854   9.561  21.249  0.00  0.00    +0.000 A 
BRANCH   7  14
ATOM     13  C   UNL     1       1.389  12.341  18.976  0.00  0.00    +0.000 C 
ATOM     14  O   UNL     1       0.616  11.612  19.923  0.00  0.00    +0.000 OA
ENDBRANCH   7  14
ENDBRANCH   1  10
BRANCH   5  15
ATOM     15  S   UNL     1       4.513   3.306  19.219  0.00  0.00    +0.000 S 
ATOM     16  O   UNL     1       4.867   2.538  20.402  0.00  0.00    +0.000 OA
ATOM     17  O   UNL     1       3.978   2.643  18.040  0.00  0.00    +0.000 OA
BRANCH  15  18
ATOM     18  O   UNL     1       5.782   4.243  18.776  0.00  0.00    +0.000 OA
BRANCH  18  19
ATOM     19  C   UNL     1       5.919   4.651  17.466  0.00  0.00    +0.000 A 
ATOM     20  C   UNL     1       5.071   5.669  17.022  0.00  0.00    +0.000 A 
ATOM     21  C   UNL     1       5.156   6.133  15.704  0.00  0.00    +0.000 A 
ATOM     22  C   UNL     1       6.097   5.591  14.828  0.00  0.00    +0.000 A 
ATOM     23  C   UNL     1       6.957   4.593  15.274  0.00  0.00    +0.000 A 
ATOM     24  C   UNL     1       6.872   4.130  16.589  0.00  0.00    +0.000 A 
ENDBRANCH  18  19
ENDBRANCH  15  18
ENDBRANCH   5  15
TORSDOF 5
ENDMDL
MODEL 9
REMARK VINA RESULT:      -8.0      1.932      4.346
REMARK  Name = 
REMARK  7 active torsions:
REMARK  status: ('A' for Active; 'I' for Inactive)
REMARK    1  A    between atoms: C_1  and  O_2
REMARK    2  A    between atoms: O_2  and  C_3
REMARK    3  A    between atoms: C_6  and  C_7
REMARK    4  A    between atoms: C_9  and  C_10
REMARK    5  A    between atoms: N_11  and  S_12
REMARK    6  A    between atoms: S_12  and  O_15
REMARK    7  A    between atoms: O_15  and  C_16
REMARK                            x       y       z     vdW  Elec       q    Type
REMARK                         _______ _______ _______ _____ _____    ______ ____
ROOT
ATOM      1  C   UNL     1       2.932   7.310  18.692  0.00  0.00    +0.000 A 
ATOM      2  C   UNL     1       3.473   7.581  17.411  0.00  0.00    +0.000 A 
ATOM      3  C   UNL     1       4.352   6.553  17.125  0.00  0.00    +0.000 A 
ATOM      4  C   UNL     1       5.200   6.359  15.926  0.00  0.00    +0.000 C 
ATOM      5  N   UNL     1       4.325   5.734  18.247  0.00  0.00    +0.000 N 
ATOM      6  N   UNL     1       3.415   6.155  19.173  0.00  0.00    +0.000 NA
ENDROOT
BRANCH   1  10
ATOM      7  C   UNL     1       0.139   9.697  20.892  0.00  0.00    +0.000 A 
ATOM      8  C   UNL     1       0.702   8.558  21.467  0.00  0.00    +0.000 A 
ATOM      9  C   UNL     1       1.614   7.776  20.752  0.00  0.00    +0.000 A 
ATOM     10  C   UNL     1       1.969   8.118  19.441  0.00  0.00    +0.000 A 
ATOM     11  C   UNL     1       1.375   9.247  18.859  0.00  0.00    +0.000 A 
ATOM     12  C   UNL     1       0.462  10.030  19.578  0.00  0.00    +0.000 A 
BRANCH   7  14
ATOM     13  C   UNL     1      -0.663  10.070  23.080  0.00  0.00    +0.000 C 
ATOM     14  O   UNL     1      -0.731  10.384  21.693  0.00  0.00    +0.000 OA
ENDBRANCH   7  14
ENDBRANCH   1  10
BRANCH   5  15
ATOM     15  S   UNL     1       5.283   4.265  18.403  0.00  0.00    +0.000 S 
ATOM     16  O   UNL     1       5.118   3.588  17.127  0.00  0.00    +0.000 OA
ATOM     17  O   UNL     1       6.596   4.715  18.837  0.00  0.00    +0.000 OA
BRANCH  15  18
ATOM     18  O   UNL     1       4.607   3.362  19.593  0.00  0.00    +0.000 OA
BRANCH  18  19
ATOM     19  C   UNL     1       3.245   3.154  19.617  0.00  0.00    +0.000 A 
ATOM     20  C   UNL     1       2.563   3.517  20.781  0.00  0.00    +0.000 A 
ATOM     21  C   UNL     1       1.178   3.334  20.874  0.00  0.00    +0.000 A 
ATOM     22  C   UNL     1       0.467   2.802  19.798  0.00  0.00    +0.000 A 
ATOM     23  C   UNL     1       1.140   2.462  18.629  0.00  0.00    +0.000 A 
ATOM     24  C   UNL     1       2.522   2.643  18.537  0.00  0.00    +0.000 A 
ENDBRANCH  18  19
ENDBRANCH  15  18
ENDBRANCH   5  15
TORSDOF 5
ENDMDL
