MODEL 1
REMARK VINA RESULT:      -6.7      0.000      0.000
REMARK  Name = 
REMARK  1 active torsions:
REMARK  status: ('A' for Active; 'I' for Inactive)
REMARK    1  A    between atoms: C_1  and  C_2
REMARK                            x       y       z     vdW  Elec       q    Type
REMARK                         _______ _______ _______ _____ _____    ______ ____
ROOT
ATOM      1  C   UNL     1       4.368   2.631  19.526  0.00  0.00    +0.000 C 
ATOM      2  C   UNL     1       3.603   3.917  19.631  0.00  0.00    +0.000 A 
ATOM      3  C   UNL     1       2.590   4.099  20.603  0.00  0.00    +0.000 A 
ATOM      4 CL   UNL     1       2.186   2.874  21.760  0.00  0.00    +0.000 Cl
ATOM      5  C   UNL     1       1.841   5.287  20.680  0.00  0.00    +0.000 A 
ATOM      6  C   UNL     1       2.075   6.332  19.796  0.00  0.00    +0.000 A 
ATOM      7  C   UNL     1       3.074   6.162  18.856  0.00  0.00    +0.000 A 
ATOM      8  C   UNL     1       3.846   4.983  18.753  0.00  0.00    +0.000 A 
ATOM      9  N   UNL     1       4.730   5.076  17.676  0.00  0.00    +0.000 N 
ATOM     10  C   UNL     1       5.989   4.357  17.531  0.00  0.00    +0.000 C 
ATOM     11  C   UNL     1       6.787   4.888  16.302  0.00  0.00    +0.000 C 
ATOM     12  N   UNL     1       6.031   5.645  15.281  0.00  0.00    +0.000 NA
ATOM     13  C   UNL     1       5.184   6.704  15.876  0.00  0.00    +0.000 C 
ATOM     14  C   UNL     1       4.814   6.518  17.366  0.00  0.00    +0.000 C 
ATOM     15  C   UNL     1       3.474   7.133  17.784  0.00  0.00    +0.000 C 
ATOM     16  H   UNL     1       5.383   4.972  14.868  0.00  0.00    +0.000 HD
ENDROOT
TORSDOF 0
ENDMDL
MODEL 2
REMARK VINA RESULT:      -6.3      1.720      2.776
REMARK  Name = 
REMARK  1 active torsions:
REMARK  status: ('A' for Active; 'I' for Inactive)
REMARK    1  A    between atoms: C_1  and  C_2
REMARK                            x       y       z     vdW  Elec       q    Type
REMARK                         _______ _______ _______ _____ _____    ______ ____
ROOT
ATOM      1  C   UNL     1       2.960   6.010  19.832  0.00  0.00    +0.000 C 
ATOM      2  C   UNL     1       2.887   4.807  18.938  0.00  0.00    +0.000 A 
ATOM      3  C   UNL     1       1.883   3.822  19.103  0.00  0.00    +0.000 A 
ATOM      4 CL   UNL     1       0.651   3.950  20.315  0.00  0.00    +0.000 Cl
ATOM      5  C   UNL     1       1.834   2.672  18.296  0.00  0.00    +0.000 A 
ATOM      6  C   UNL     1       2.778   2.464  17.299  0.00  0.00    +0.000 A 
ATOM      7  C   UNL     1       3.750   3.432  17.126  0.00  0.00    +0.000 A 
ATOM      8  C   UNL     1       3.827   4.599  17.918  0.00  0.00    +0.000 A 
ATOM      9  N   UNL     1       4.943   5.356  17.557  0.00  0.00    +0.000 N 
ATOM     10  C   UNL     1       5.105   6.793  17.741  0.00  0.00    +0.000 C 
ATOM     11  C   UNL     1       6.391   7.298  17.019  0.00  0.00    +0.000 C 
ATOM     12  N   UNL     1       7.416   6.286  16.680  0.00  0.00    +0.000 NA
ATOM     13  C   UNL     1       6.839   5.106  15.996  0.00  0.00    +0.000 C 
ATOM     14  C   UNL     1       5.328   4.866  16.218  0.00  0.00    +0.000 C 
ATOM     15  C   UNL     1       4.885   3.401  16.145  0.00  0.00    +0.000 C 
ATOM     16  H   UNL     1       7.767   5.944  17.575  0.00  0.00    +0.000 HD
ENDROOT
TORSDOF 0
ENDMDL
MODEL 3
REMARK VINA RESULT:      -6.1      2.834      4.279
REMARK  Name = 
REMARK  1 active torsions:
REMARK  status: ('A' for Active; 'I' for Inactive)
REMARK    1  A    between atoms: C_1  and  C_2
REMARK                            x       y       z     vdW  Elec       q    Type
REMARK                         _______ _______ _______ _____ _____    ______ ____
ROOT
ATOM      1  C   UNL     1       3.613   7.050  17.086  0.00  0.00    +0.000 C 
ATOM      2  C   UNL     1       2.826   7.076  18.363  0.00  0.00    +0.000 A 
ATOM      3  C   UNL     1       2.193   8.257  18.819  0.00  0.00    +0.000 A 
ATOM      4 CL   UNL     1       2.246   9.741  17.924  0.00  0.00    +0.000 Cl
ATOM      5  C   UNL     1       1.489   8.299  20.036  0.00  0.00    +0.000 A 
ATOM      6  C   UNL     1       1.391   7.169  20.838  0.00  0.00    +0.000 A 
ATOM      7  C   UNL     1       1.996   6.010  20.387  0.00  0.00    +0.000 A 
ATOM      8  C   UNL     1       2.708   5.934  19.169  0.00  0.00    +0.000 A 
ATOM      9  N   UNL     1       3.259   4.661  19.010  0.00  0.00    +0.000 N 
ATOM     10  C   UNL     1       3.604   4.025  17.745  0.00  0.00    +0.000 C 
ATOM     11  C   UNL     1       3.990   2.531  17.968  0.00  0.00    +0.000 C 
ATOM     12  N   UNL     1       4.369   2.129  19.341  0.00  0.00    +0.000 NA
ATOM     13  C   UNL     1       3.394   2.595  20.354  0.00  0.00    +0.000 C 
ATOM     14  C   UNL     1       2.509   3.795  19.942  0.00  0.00    +0.000 C 
ATOM     15  C   UNL     1       2.051   4.690  21.098  0.00  0.00    +0.000 C 
ATOM     16  H   UNL     1       5.236   2.630  19.541  0.00  0.00    +0.000 HD
ENDROOT
TORSDOF 0
ENDMDL
MODEL 4
REMARK VINA RESULT:      -6.0      2.828      4.809
REMARK  Name = 
REMARK  1 active torsions:
REMARK  status: ('A' for Active; 'I' for Inactive)
REMARK    1  A    between atoms: C_1  and  C_2
REMARK                            x       y       z     vdW  Elec       q    Type
REMARK                         _______ _______ _______ _____ _____    ______ ____
ROOT
ATOM      1  C   UNL     1       4.515   2.785  16.748  0.00  0.00    +0.000 C 
ATOM      2  C   UNL     1       4.397   4.270  16.923  0.00  0.00    +0.000 A 
ATOM      3  C   UNL     1       5.043   5.173  16.044  0.00  0.00    +0.000 A 
ATOM      4 CL   UNL     1       5.979   4.635  14.688  0.00  0.00    +0.000 Cl
ATOM      5  C   UNL     1       4.971   6.566  16.228  0.00  0.00    +0.000 A 
ATOM      6  C   UNL     1       4.255   7.106  17.287  0.00  0.00    +0.000 A 
ATOM      7  C   UNL     1       3.611   6.226  18.138  0.00  0.00    +0.000 A 
ATOM      8  C   UNL     1       3.661   4.823  17.981  0.00  0.00    +0.000 A 
ATOM      9  N   UNL     1       2.973   4.195  19.021  0.00  0.00    +0.000 N 
ATOM     10  C   UNL     1       2.366   2.871  18.975  0.00  0.00    +0.000 C 
ATOM     11  C   UNL     1       1.509   2.614  20.252  0.00  0.00    +0.000 C 
ATOM     12  N   UNL     1       1.778   3.470  21.429  0.00  0.00    +0.000 NA
ATOM     13  C   UNL     1       1.818   4.909  21.083  0.00  0.00    +0.000 C 
ATOM     14  C   UNL     1       2.106   5.242  19.600  0.00  0.00    +0.000 C 
ATOM     15  C   UNL     1       2.817   6.578  19.361  0.00  0.00    +0.000 C 
ATOM     16  H   UNL     1       2.725   3.231  21.728  0.00  0.00    +0.000 HD
ENDROOT
TORSDOF 0
ENDMDL
MODEL 5
REMARK VINA RESULT:      -5.9      1.431      2.808
REMARK  Name = 
REMARK  1 active torsions:
REMARK  status: ('A' for Active; 'I' for Inactive)
REMARK    1  A    between atoms: C_1  and  C_2
REMARK                            x       y       z     vdW  Elec       q    Type
REMARK                         _______ _______ _______ _____ _____    ______ ____
ROOT
ATOM      1  C   UNL     1       2.382   5.488  20.207  0.00  0.00    +0.000 C 
ATOM      2  C   UNL     1       2.694   4.233  19.447  0.00  0.00    +0.000 A 
ATOM      3  C   UNL     1       2.144   2.984  19.823  0.00  0.00    +0.000 A 
ATOM      4 CL   UNL     1       1.047   2.818  21.155  0.00  0.00    +0.000 Cl
ATOM      5  C   UNL     1       2.465   1.797  19.140  0.00  0.00    +0.000 A 
ATOM      6  C   UNL     1       3.340   1.813  18.062  0.00  0.00    +0.000 A 
ATOM      7  C   UNL     1       3.867   3.035  17.684  0.00  0.00    +0.000 A 
ATOM      8  C   UNL     1       3.563   4.245  18.347  0.00  0.00    +0.000 A 
ATOM      9  N   UNL     1       4.288   5.298  17.786  0.00  0.00    +0.000 N 
ATOM     10  C   UNL     1       3.917   6.708  17.811  0.00  0.00    +0.000 C 
ATOM     11  C   UNL     1       4.865   7.542  16.898  0.00  0.00    +0.000 C 
ATOM     12  N   UNL     1       6.164   6.932  16.536  0.00  0.00    +0.000 NA
ATOM     13  C   UNL     1       6.017   5.544  16.041  0.00  0.00    +0.000 C 
ATOM     14  C   UNL     1       4.724   4.808  16.463  0.00  0.00    +0.000 C 
ATOM     15  C   UNL     1       4.854   3.286  16.582  0.00  0.00    +0.000 C 
ATOM     16  H   UNL     1       6.684   6.861  17.412  0.00  0.00    +0.000 HD
ENDROOT
TORSDOF 0
ENDMDL
MODEL 6
REMARK VINA RESULT:      -5.9      2.650      4.701
REMARK  Name = 
REMARK  1 active torsions:
REMARK  status: ('A' for Active; 'I' for Inactive)
REMARK    1  A    between atoms: C_1  and  C_2
REMARK                            x       y       z     vdW  Elec       q    Type
REMARK                         _______ _______ _______ _____ _____    ______ ____
ROOT
ATOM      1  C   UNL     1       4.353   2.995  17.541  0.00  0.00    +0.000 C 
ATOM      2  C   UNL     1       4.493   4.384  16.993  0.00  0.00    +0.000 A 
ATOM      3  C   UNL     1       5.289   4.653  15.852  0.00  0.00    +0.000 A 
ATOM      4 CL   UNL     1       6.122   3.402  14.989  0.00  0.00    +0.000 Cl
ATOM      5  C   UNL     1       5.457   5.959  15.358  0.00  0.00    +0.000 A 
ATOM      6  C   UNL     1       4.841   7.038  15.978  0.00  0.00    +0.000 A 
ATOM      7  C   UNL     1       4.052   6.775  17.082  0.00  0.00    +0.000 A 
ATOM      8  C   UNL     1       3.860   5.476  17.603  0.00  0.00    +0.000 A 
ATOM      9  N   UNL     1       3.070   5.528  18.753  0.00  0.00    +0.000 N 
ATOM     10  C   UNL     1       2.244   4.449  19.280  0.00  0.00    +0.000 C 
ATOM     11  C   UNL     1       1.351   4.961  20.451  0.00  0.00    +0.000 C 
ATOM     12  N   UNL     1       1.760   6.221  21.110  0.00  0.00    +0.000 NA
ATOM     13  C   UNL     1       2.048   7.299  20.137  0.00  0.00    +0.000 C 
ATOM     14  C   UNL     1       2.395   6.841  18.701  0.00  0.00    +0.000 C 
ATOM     15  C   UNL     1       3.326   7.780  17.927  0.00  0.00    +0.000 C 
ATOM     16  H   UNL     1       2.650   6.013  21.566  0.00  0.00    +0.000 HD
ENDROOT
TORSDOF 0
ENDMDL
MODEL 7
REMARK VINA RESULT:      -5.9      1.751      1.816
REMARK  Name = 
REMARK  1 active torsions:
REMARK  status: ('A' for Active; 'I' for Inactive)
REMARK    1  A    between atoms: C_1  and  C_2
REMARK                            x       y       z     vdW  Elec       q    Type
REMARK                         _______ _______ _______ _____ _____    ______ ____
ROOT
ATOM      1  C   UNL     1       4.646   2.654  19.934  0.00  0.00    +0.000 C 
ATOM      2  C   UNL     1       3.688   3.551  19.206  0.00  0.00    +0.000 A 
ATOM      3  C   UNL     1       2.305   3.255  19.135  0.00  0.00    +0.000 A 
ATOM      4 CL   UNL     1       1.614   1.867  19.909  0.00  0.00    +0.000 Cl
ATOM      5  C   UNL     1       1.409   4.070  18.420  0.00  0.00    +0.000 A 
ATOM      6  C   UNL     1       1.857   5.203  17.754  0.00  0.00    +0.000 A 
ATOM      7  C   UNL     1       3.205   5.502  17.835  0.00  0.00    +0.000 A 
ATOM      8  C   UNL     1       4.131   4.706  18.547  0.00  0.00    +0.000 A 
ATOM      9  N   UNL     1       5.421   5.218  18.398  0.00  0.00    +0.000 N 
ATOM     10  C   UNL     1       6.533   5.031  19.323  0.00  0.00    +0.000 C 
ATOM     11  C   UNL     1       7.740   5.930  18.919  0.00  0.00    +0.000 C 
ATOM     12  N   UNL     1       7.766   6.443  17.532  0.00  0.00    +0.000 NA
ATOM     13  C   UNL     1       6.478   7.055  17.133  0.00  0.00    +0.000 C 
ATOM     14  C   UNL     1       5.237   6.610  17.941  0.00  0.00    +0.000 C 
ATOM     15  C   UNL     1       3.913   6.645  17.171  0.00  0.00    +0.000 C 
ATOM     16  H   UNL     1       7.877   5.619  16.939  0.00  0.00    +0.000 HD
ENDROOT
TORSDOF 0
ENDMDL
MODEL 8
REMARK VINA RESULT:      -5.9      2.943      5.432
REMARK  Name = 
REMARK  1 active torsions:
REMARK  status: ('A' for Active; 'I' for Inactive)
REMARK    1  A    between atoms: C_1  and  C_2
REMARK                            x       y       z     vdW  Elec       q    Type
REMARK                         _______ _______ _______ _____ _____    ______ ____
ROOT
ATOM      1  C   UNL     1       3.411   7.016  17.877  0.00  0.00    +0.000 C 
ATOM      2  C   UNL     1       3.992   5.736  17.352  0.00  0.00    +0.000 A 
ATOM      3  C   UNL     1       4.951   5.730  16.311  0.00  0.00    +0.000 A 
ATOM      4 CL   UNL     1       5.550   7.191  15.596  0.00  0.00    +0.000 Cl
ATOM      5  C   UNL     1       5.469   4.533  15.787  0.00  0.00    +0.000 A 
ATOM      6  C   UNL     1       5.052   3.303  16.280  0.00  0.00    +0.000 A 
ATOM      7  C   UNL     1       4.127   3.307  17.307  0.00  0.00    +0.000 A 
ATOM      8  C   UNL     1       3.589   4.492  17.858  0.00  0.00    +0.000 A 
ATOM      9  N   UNL     1       2.636   4.183  18.831  0.00  0.00    +0.000 N 
ATOM     10  C   UNL     1       2.238   5.033  19.946  0.00  0.00    +0.000 C 
ATOM     11  C   UNL     1       1.311   4.254  20.928  0.00  0.00    +0.000 C 
ATOM     12  N   UNL     1       0.650   3.037  20.409  0.00  0.00    +0.000 NA
ATOM     13  C   UNL     1       1.597   2.129  19.722  0.00  0.00    +0.000 C 
ATOM     14  C   UNL     1       2.900   2.778  19.201  0.00  0.00    +0.000 C 
ATOM     15  C   UNL     1       3.510   2.108  17.965  0.00  0.00    +0.000 C 
ATOM     16  H   UNL     1       0.006   3.364  19.687  0.00  0.00    +0.000 HD
ENDROOT
TORSDOF 0
ENDMDL
MODEL 9
REMARK VINA RESULT:      -5.9      2.739      4.721
REMARK  Name = 
REMARK  1 active torsions:
REMARK  status: ('A' for Active; 'I' for Inactive)
REMARK    1  A    between atoms: C_1  and  C_2
REMARK                            x       y       z     vdW  Elec       q    Type
REMARK                         _______ _______ _______ _____ _____    ______ ____
ROOT
ATOM      1  C   UNL     1       5.085   4.159  17.204  0.00  0.00    +0.000 C 
ATOM      2  C   UNL     1       4.210   5.287  17.665  0.00  0.00    +0.000 A 
ATOM      3  C   UNL     1       4.202   6.537  17.001  0.00  0.00    +0.000 A 
ATOM      4 CL   UNL     1       5.166   6.843  15.593  0.00  0.00    +0.000 Cl
ATOM      5  C   UNL     1       3.415   7.611  17.452  0.00  0.00    +0.000 A 
ATOM      6  C   UNL     1       2.611   7.479  18.576  0.00  0.00    +0.000 A 
ATOM      7  C   UNL     1       2.606   6.254  19.218  0.00  0.00    +0.000 A 
ATOM      8  C   UNL     1       3.382   5.154  18.789  0.00  0.00    +0.000 A 
ATOM      9  N   UNL     1       3.221   4.078  19.664  0.00  0.00    +0.000 N 
ATOM     10  C   UNL     1       3.411   2.670  19.341  0.00  0.00    +0.000 C 
ATOM     11  C   UNL     1       2.930   1.766  20.517  0.00  0.00    +0.000 C 
ATOM     12  N   UNL     1       2.798   2.401  21.847  0.00  0.00    +0.000 NA
ATOM     13  C   UNL     1       2.037   3.671  21.792  0.00  0.00    +0.000 C 
ATOM     14  C   UNL     1       1.982   4.369  20.413  0.00  0.00    +0.000 C 
ATOM     15  C   UNL     1       1.849   5.895  20.463  0.00  0.00    +0.000 C 
ATOM     16  H   UNL     1       3.748   2.659  22.120  0.00  0.00    +0.000 HD
ENDROOT
TORSDOF 0
ENDMDL
