MODEL 1
REMARK VINA RESULT:      -7.4      0.000      0.000
REMARK  Name = 
REMARK  6 active torsions:
REMARK  status: ('A' for Active; 'I' for Inactive)
REMARK    1  A    between atoms: C_1  and  C_2
REMARK    2  A    between atoms: C_2  and  C_3
REMARK    3  A    between atoms: C_2  and  O_4
REMARK    4  A    between atoms: O_4  and  C_5
REMARK    5  A    between atoms: C_10  and  C_11
REMARK    6  A    between atoms: N_13  and  C_14
REMARK                            x       y       z     vdW  Elec       q    Type
REMARK                         _______ _______ _______ _____ _____    ______ ____
ROOT
ATOM      1  C   UNL     1       0.180  11.565  20.677  0.00  0.00    +0.000 C 
ATOM      2  O   UNL     1       0.199  11.811  21.880  0.00  0.00    +0.000 OA
ATOM      3  N   UNL     1       0.451  10.313  20.160  0.00  0.00    +0.000 N 
ATOM      4  C   UNL     1       0.646   9.226  21.100  0.00  0.00    +0.000 C 
ATOM      5  C   UNL     1       1.521   8.154  20.529  0.00  0.00    +0.000 C 
ATOM      6  C   UNL     1       1.968   8.109  19.258  0.00  0.00    +0.000 C 
ATOM      7  C   UNL     1       1.549   9.175  18.269  0.00  0.00    +0.000 C 
ATOM      8  C   UNL     1       0.316   9.949  18.753  0.00  0.00    +0.000 C 
ENDROOT
BRANCH   6   9
ATOM      9  C   UNL     1       2.846   7.105  18.750  0.00  0.00    +0.000 A 
ATOM     10  C   UNL     1       3.683   7.195  17.663  0.00  0.00    +0.000 A 
ATOM     11  N   UNL     1       4.300   5.971  17.576  0.00  0.00    +0.000 N 
ATOM     12  N   UNL     1       3.849   5.180  18.587  0.00  0.00    +0.000 NA
ATOM     13  N   UNL     1       2.963   5.865  19.301  0.00  0.00    +0.000 NA
BRANCH  11  14
ATOM     14  C   UNL     1       5.245   5.500  16.641  0.00  0.00    +0.000 A 
ATOM     15  C   UNL     1       4.940   4.414  15.808  0.00  0.00    +0.000 A 
ATOM     16  C   UNL     1       5.884   3.974  14.883  0.00  0.00    +0.000 A 
ATOM     17  C   UNL     1       7.099   4.631  14.818  0.00  0.00    +0.000 A 
ATOM     18  N   UNL     1       7.426   5.673  15.608  0.00  0.00    +0.000 NA
ATOM     19  C   UNL     1       6.496   6.086  16.500  0.00  0.00    +0.000 A 
ATOM     20  F   UNL     1       6.866   7.121  17.267  0.00  0.00    +0.000 F 
ENDBRANCH  11  14
ENDBRANCH   6   9
BRANCH   1  21
ATOM     21  O   UNL     1      -0.096  12.501  19.724  0.00  0.00    +0.000 OA
BRANCH  21  23
ATOM     22  C   UNL     1       1.755  13.269  18.362  0.00  0.00    +0.000 C 
ATOM     23  C   UNL     1       0.893  13.543  19.591  0.00  0.00    +0.000 C 
ATOM     24  C   UNL     1       0.174  14.879  19.447  0.00  0.00    +0.000 C 
ENDBRANCH  21  23
ENDBRANCH   1  21
TORSDOF 4
ENDMDL
MODEL 2
REMARK VINA RESULT:      -7.1      3.888      8.686
REMARK  Name = 
REMARK  6 active torsions:
REMARK  status: ('A' for Active; 'I' for Inactive)
REMARK    1  A    between atoms: C_1  and  C_2
REMARK    2  A    between atoms: C_2  and  C_3
REMARK    3  A    between atoms: C_2  and  O_4
REMARK    4  A    between atoms: O_4  and  C_5
REMARK    5  A    between atoms: C_10  and  C_11
REMARK    6  A    between atoms: N_13  and  C_14
REMARK                            x       y       z     vdW  Elec       q    Type
REMARK                         _______ _______ _______ _____ _____    ______ ____
ROOT
ATOM      1  C   UNL     1       4.282   4.002  17.123  0.00  0.00    +0.000 C 
ATOM      2  O   UNL     1       4.122   2.831  17.456  0.00  0.00    +0.000 OA
ATOM      3  N   UNL     1       4.019   5.066  17.965  0.00  0.00    +0.000 N 
ATOM      4  C   UNL     1       3.656   4.764  19.336  0.00  0.00    +0.000 C 
ATOM      5  C   UNL     1       2.811   5.846  19.933  0.00  0.00    +0.000 C 
ATOM      6  C   UNL     1       2.527   7.025  19.345  0.00  0.00    +0.000 C 
ATOM      7  C   UNL     1       3.118   7.360  17.993  0.00  0.00    +0.000 C 
ATOM      8  C   UNL     1       4.314   6.461  17.655  0.00  0.00    +0.000 C 
ENDROOT
BRANCH   6   9
ATOM      9  C   UNL     1       1.675   8.020  19.910  0.00  0.00    +0.000 A 
ATOM     10  C   UNL     1       1.262   9.198  19.333  0.00  0.00    +0.000 A 
ATOM     11  N   UNL     1       0.474   9.810  20.277  0.00  0.00    +0.000 N 
ATOM     12  N   UNL     1       0.412   9.014  21.378  0.00  0.00    +0.000 NA
ATOM     13  N   UNL     1       1.143   7.927  21.161  0.00  0.00    +0.000 NA
BRANCH  11  14
ATOM     14  C   UNL     1      -0.199  11.049  20.226  0.00  0.00    +0.000 A 
ATOM     15  C   UNL     1       0.273  12.143  20.963  0.00  0.00    +0.000 A 
ATOM     16  C   UNL     1      -0.400  13.361  20.889  0.00  0.00    +0.000 A 
ATOM     17  C   UNL     1      -1.520  13.447  20.081  0.00  0.00    +0.000 A 
ATOM     18  N   UNL     1      -2.003  12.412  19.365  0.00  0.00    +0.000 NA
ATOM     19  C   UNL     1      -1.335  11.238  19.451  0.00  0.00    +0.000 A 
ATOM     20  F   UNL     1      -1.854  10.236  18.726  0.00  0.00    +0.000 F 
ENDBRANCH  11  14
ENDBRANCH   6   9
BRANCH   1  21
ATOM     21  O   UNL     1       4.720   4.378  15.888  0.00  0.00    +0.000 OA
BRANCH  21  23
ATOM     22  C   UNL     1       6.161   3.953  13.986  0.00  0.00    +0.000 C 
ATOM     23  C   UNL     1       5.989   3.814  15.496  0.00  0.00    +0.000 C 
ATOM     24  C   UNL     1       7.099   4.560  16.227  0.00  0.00    +0.000 C 
ENDBRANCH  21  23
ENDBRANCH   1  21
TORSDOF 4
ENDMDL
MODEL 3
REMARK VINA RESULT:      -7.0      1.088      1.250
REMARK  Name = 
REMARK  6 active torsions:
REMARK  status: ('A' for Active; 'I' for Inactive)
REMARK    1  A    between atoms: C_1  and  C_2
REMARK    2  A    between atoms: C_2  and  C_3
REMARK    3  A    between atoms: C_2  and  O_4
REMARK    4  A    between atoms: O_4  and  C_5
REMARK    5  A    between atoms: C_10  and  C_11
REMARK    6  A    between atoms: N_13  and  C_14
REMARK                            x       y       z     vdW  Elec       q    Type
REMARK                         _______ _______ _______ _____ _____    ______ ____
ROOT
ATOM      1  C   UNL     1       0.253  10.955  21.353  0.00  0.00    +0.000 C 
ATOM      2  O   UNL     1       0.064  10.929  22.566  0.00  0.00    +0.000 OA
ATOM      3  N   UNL     1       0.573   9.830  20.616  0.00  0.00    +0.000 N 
ATOM      4  C   UNL     1       0.560   8.552  21.302  0.00  0.00    +0.000 C 
ATOM      5  C   UNL     1       1.489   7.572  20.656  0.00  0.00    +0.000 C 
ATOM      6  C   UNL     1       2.155   7.775  19.502  0.00  0.00    +0.000 C 
ATOM      7  C   UNL     1       1.955   9.059  18.727  0.00  0.00    +0.000 C 
ATOM      8  C   UNL     1       0.681   9.794  19.161  0.00  0.00    +0.000 C 
ENDROOT
BRANCH   6   9
ATOM      9  C   UNL     1       3.077   6.847  18.934  0.00  0.00    +0.000 A 
ATOM     10  C   UNL     1       3.732   6.946  17.728  0.00  0.00    +0.000 A 
ATOM     11  N   UNL     1       4.487   5.803  17.627  0.00  0.00    +0.000 N 
ATOM     12  N   UNL     1       4.295   5.052  18.745  0.00  0.00    +0.000 NA
ATOM     13  N   UNL     1       3.436   5.681  19.540  0.00  0.00    +0.000 NA
BRANCH  11  14
ATOM     14  C   UNL     1       5.343   5.374  16.592  0.00  0.00    +0.000 A 
ATOM     15  C   UNL     1       4.881   4.485  15.612  0.00  0.00    +0.000 A 
ATOM     16  C   UNL     1       5.740   4.084  14.591  0.00  0.00    +0.000 A 
ATOM     17  C   UNL     1       7.030   4.584  14.581  0.00  0.00    +0.000 A 
ATOM     18  N   UNL     1       7.507   5.434  15.511  0.00  0.00    +0.000 NA
ATOM     19  C   UNL     1       6.657   5.812  16.495  0.00  0.00    +0.000 A 
ATOM     20  F   UNL     1       7.175   6.654  17.400  0.00  0.00    +0.000 F 
ENDBRANCH  11  14
ENDBRANCH   6   9
BRANCH   1  21
ATOM     21  O   UNL     1       0.183  12.094  20.607  0.00  0.00    +0.000 OA
BRANCH  21  23
ATOM     22  C   UNL     1      -1.461  13.792  21.147  0.00  0.00    +0.000 C 
ATOM     23  C   UNL     1      -1.156  12.548  20.316  0.00  0.00    +0.000 C 
ATOM     24  C   UNL     1      -1.248  12.869  18.829  0.00  0.00    +0.000 C 
ENDBRANCH  21  23
ENDBRANCH   1  21
TORSDOF 4
ENDMDL
MODEL 4
REMARK VINA RESULT:      -6.9      3.780      8.858
REMARK  Name = 
REMARK  6 active torsions:
REMARK  status: ('A' for Active; 'I' for Inactive)
REMARK    1  A    between atoms: C_1  and  C_2
REMARK    2  A    between atoms: C_2  and  C_3
REMARK    3  A    between atoms: C_2  and  O_4
REMARK    4  A    between atoms: O_4  and  C_5
REMARK    5  A    between atoms: C_10  and  C_11
REMARK    6  A    between atoms: N_13  and  C_14
REMARK                            x       y       z     vdW  Elec       q    Type
REMARK                         _______ _______ _______ _____ _____    ______ ____
ROOT
ATOM      1  C   UNL     1       4.077   4.565  17.110  0.00  0.00    +0.000 C 
ATOM      2  O   UNL     1       3.747   3.437  17.462  0.00  0.00    +0.000 OA
ATOM      3  N   UNL     1       3.779   5.700  17.841  0.00  0.00    +0.000 N 
ATOM      4  C   UNL     1       3.156   5.518  19.138  0.00  0.00    +0.000 C 
ATOM      5  C   UNL     1       2.332   6.707  19.523  0.00  0.00    +0.000 C 
ATOM      6  C   UNL     1       2.272   7.867  18.840  0.00  0.00    +0.000 C 
ATOM      7  C   UNL     1       3.118   8.062  17.601  0.00  0.00    +0.000 C 
ATOM      8  C   UNL     1       4.260   7.041  17.524  0.00  0.00    +0.000 C 
ENDROOT
BRANCH   6   9
ATOM      9  C   UNL     1       1.437   8.967  19.197  0.00  0.00    +0.000 A 
ATOM     10  C   UNL     1       1.272   9.525  20.444  0.00  0.00    +0.000 A 
ATOM     11  N   UNL     1       0.359  10.537  20.273  0.00  0.00    +0.000 N 
ATOM     12  N   UNL     1      -0.001  10.585  18.962  0.00  0.00    +0.000 NA
ATOM     13  N   UNL     1       0.649   9.630  18.306  0.00  0.00    +0.000 NA
BRANCH  11  14
ATOM     14  C   UNL     1      -0.189  11.429  21.218  0.00  0.00    +0.000 A 
ATOM     15  C   UNL     1      -1.098  10.972  22.182  0.00  0.00    +0.000 A 
ATOM     16  C   UNL     1      -1.616  11.869  23.114  0.00  0.00    +0.000 A 
ATOM     17  C   UNL     1      -1.210  13.190  23.055  0.00  0.00    +0.000 A 
ATOM     18  N   UNL     1      -0.343  13.662  22.137  0.00  0.00    +0.000 NA
ATOM     19  C   UNL     1       0.149  12.775  21.240  0.00  0.00    +0.000 A 
ATOM     20  F   UNL     1       1.003  13.290  20.345  0.00  0.00    +0.000 F 
ENDBRANCH  11  14
ENDBRANCH   6   9
BRANCH   1  21
ATOM     21  O   UNL     1       4.758   4.823  15.957  0.00  0.00    +0.000 OA
BRANCH  21  23
ATOM     22  C   UNL     1       6.188   3.930  14.215  0.00  0.00    +0.000 C 
ATOM     23  C   UNL     1       5.885   3.956  15.710  0.00  0.00    +0.000 C 
ATOM     24  C   UNL     1       7.085   4.487  16.485  0.00  0.00    +0.000 C 
ENDBRANCH  21  23
ENDBRANCH   1  21
TORSDOF 4
ENDMDL
MODEL 5
REMARK VINA RESULT:      -6.8      1.575      2.392
REMARK  Name = 
REMARK  6 active torsions:
REMARK  status: ('A' for Active; 'I' for Inactive)
REMARK    1  A    between atoms: C_1  and  C_2
REMARK    2  A    between atoms: C_2  and  C_3
REMARK    3  A    between atoms: C_2  and  O_4
REMARK    4  A    between atoms: O_4  and  C_5
REMARK    5  A    between atoms: C_10  and  C_11
REMARK    6  A    between atoms: N_13  and  C_14
REMARK                            x       y       z     vdW  Elec       q    Type
REMARK                         _______ _______ _______ _____ _____    ______ ____
ROOT
ATOM      1  C   UNL     1      -1.406  11.444  20.314  0.00  0.00    +0.000 C 
ATOM      2  O   UNL     1      -2.188  11.879  19.473  0.00  0.00    +0.000 OA
ATOM      3  N   UNL     1      -0.191  10.874  19.987  0.00  0.00    +0.000 N 
ATOM      4  C   UNL     1       0.216  10.910  18.595  0.00  0.00    +0.000 C 
ATOM      5  C   UNL     1       1.139   9.780  18.262  0.00  0.00    +0.000 C 
ATOM      6  C   UNL     1       1.656   8.909  19.152  0.00  0.00    +0.000 C 
ATOM      7  C   UNL     1       1.353   9.062  20.626  0.00  0.00    +0.000 C 
ATOM      8  C   UNL     1       0.820  10.462  20.957  0.00  0.00    +0.000 C 
ENDROOT
BRANCH   6   9
ATOM      9  C   UNL     1       2.491   7.806  18.804  0.00  0.00    +0.000 A 
ATOM     10  C   UNL     1       3.416   7.742  17.788  0.00  0.00    +0.000 A 
ATOM     11  N   UNL     1       3.941   6.475  17.852  0.00  0.00    +0.000 N 
ATOM     12  N   UNL     1       3.352   5.808  18.882  0.00  0.00    +0.000 NA
ATOM     13  N   UNL     1       2.468   6.613  19.460  0.00  0.00    +0.000 NA
BRANCH  11  14
ATOM     14  C   UNL     1       4.919   5.859  17.042  0.00  0.00    +0.000 A 
ATOM     15  C   UNL     1       4.646   4.642  16.403  0.00  0.00    +0.000 A 
ATOM     16  C   UNL     1       5.622   4.058  15.597  0.00  0.00    +0.000 A 
ATOM     17  C   UNL     1       6.835   4.708  15.454  0.00  0.00    +0.000 A 
ATOM     18  N   UNL     1       7.130   5.876  16.060  0.00  0.00    +0.000 NA
ATOM     19  C   UNL     1       6.169   6.427  16.839  0.00  0.00    +0.000 A 
ATOM     20  F   UNL     1       6.508   7.584  17.424  0.00  0.00    +0.000 F 
ENDBRANCH  11  14
ENDBRANCH   6   9
BRANCH   1  21
ATOM     21  O   UNL     1      -1.657  11.464  21.654  0.00  0.00    +0.000 OA
BRANCH  21  23
ATOM     22  C   UNL     1      -3.243  12.429  23.213  0.00  0.00    +0.000 C 
ATOM     23  C   UNL     1      -2.178  12.712  22.156  0.00  0.00    +0.000 C 
ATOM     24  C   UNL     1      -1.029  13.509  22.762  0.00  0.00    +0.000 C 
ENDBRANCH  21  23
ENDBRANCH   1  21
TORSDOF 4
ENDMDL
MODEL 6
REMARK VINA RESULT:      -6.8      6.032      8.339
REMARK  Name = 
REMARK  6 active torsions:
REMARK  status: ('A' for Active; 'I' for Inactive)
REMARK    1  A    between atoms: C_1  and  C_2
REMARK    2  A    between atoms: C_2  and  C_3
REMARK    3  A    between atoms: C_2  and  O_4
REMARK    4  A    between atoms: O_4  and  C_5
REMARK    5  A    between atoms: C_10  and  C_11
REMARK    6  A    between atoms: N_13  and  C_14
REMARK                            x       y       z     vdW  Elec       q    Type
REMARK                         _______ _______ _______ _____ _____    ______ ____
ROOT
ATOM      1  C   UNL     1       5.244   4.749  18.084  0.00  0.00    +0.000 C 
ATOM      2  O   UNL     1       5.394   3.818  18.870  0.00  0.00    +0.000 OA
ATOM      3  N   UNL     1       6.227   5.688  17.835  0.00  0.00    +0.000 N 
ATOM      4  C   UNL     1       7.526   5.480  18.445  0.00  0.00    +0.000 C 
ATOM      5  C   UNL     1       8.251   6.773  18.651  0.00  0.00    +0.000 C 
ATOM      6  C   UNL     1       7.836   7.977  18.209  0.00  0.00    +0.000 C 
ATOM      7  C   UNL     1       6.568   8.089  17.392  0.00  0.00    +0.000 C 
ATOM      8  C   UNL     1       6.137   6.733  16.819  0.00  0.00    +0.000 C 
ENDROOT
BRANCH   6   9
ATOM      9  C   UNL     1       8.517   9.205  18.465  0.00  0.00    +0.000 A 
ATOM     10  C   UNL     1       8.655  10.279  17.618  0.00  0.00    +0.000 A 
ATOM     11  N   UNL     1       9.402  11.199  18.315  0.00  0.00    +0.000 N 
ATOM     12  N   UNL     1       9.689  10.689  19.543  0.00  0.00    +0.000 NA
ATOM     13  N   UNL     1       9.156   9.476  19.636  0.00  0.00    +0.000 NA
BRANCH  11  14
ATOM     14  C   UNL     1       9.856  12.476  17.925  0.00  0.00    +0.000 A 
ATOM     15  C   UNL     1      11.019  12.611  17.154  0.00  0.00    +0.000 A 
ATOM     16  C   UNL     1      11.442  13.881  16.769  0.00  0.00    +0.000 A 
ATOM     17  C   UNL     1      10.691  14.974  17.165  0.00  0.00    +0.000 A 
ATOM     18  N   UNL     1       9.573  14.879  17.911  0.00  0.00    +0.000 NA
ATOM     19  C   UNL     1       9.179  13.636  18.275  0.00  0.00    +0.000 A 
ATOM     20  F   UNL     1       8.065  13.590  19.020  0.00  0.00    +0.000 F 
ENDBRANCH  11  14
ENDBRANCH   6   9
BRANCH   1  21
ATOM     21  O   UNL     1       4.093   4.964  17.386  0.00  0.00    +0.000 OA
BRANCH  21  23
ATOM     22  C   UNL     1       2.605   6.703  18.185  0.00  0.00    +0.000 C 
ATOM     23  C   UNL     1       2.926   5.211  18.198  0.00  0.00    +0.000 C 
ATOM     24  C   UNL     1       1.760   4.412  17.629  0.00  0.00    +0.000 C 
ENDBRANCH  21  23
ENDBRANCH   1  21
TORSDOF 4
ENDMDL
MODEL 7
REMARK VINA RESULT:      -6.7      6.081      8.504
REMARK  Name = 
REMARK  6 active torsions:
REMARK  status: ('A' for Active; 'I' for Inactive)
REMARK    1  A    between atoms: C_1  and  C_2
REMARK    2  A    between atoms: C_2  and  C_3
REMARK    3  A    between atoms: C_2  and  O_4
REMARK    4  A    between atoms: O_4  and  C_5
REMARK    5  A    between atoms: C_10  and  C_11
REMARK    6  A    between atoms: N_13  and  C_14
REMARK                            x       y       z     vdW  Elec       q    Type
REMARK                         _______ _______ _______ _____ _____    ______ ____
ROOT
ATOM      1  C   UNL     1       5.531   5.115  18.337  0.00  0.00    +0.000 C 
ATOM      2  O   UNL     1       5.659   4.243  19.191  0.00  0.00    +0.000 OA
ATOM      3  N   UNL     1       6.507   6.055  18.068  0.00  0.00    +0.000 N 
ATOM      4  C   UNL     1       7.779   5.916  18.750  0.00  0.00    +0.000 C 
ATOM      5  C   UNL     1       8.470   7.235  18.900  0.00  0.00    +0.000 C 
ATOM      6  C   UNL     1       8.057   8.397  18.355  0.00  0.00    +0.000 C 
ATOM      7  C   UNL     1       6.827   8.426  17.475  0.00  0.00    +0.000 C 
ATOM      8  C   UNL     1       6.448   7.025  16.979  0.00  0.00    +0.000 C 
ENDROOT
BRANCH   6   9
ATOM      9  C   UNL     1       8.703   9.653  18.557  0.00  0.00    +0.000 A 
ATOM     10  C   UNL     1       8.608  10.780  17.774  0.00  0.00    +0.000 A 
ATOM     11  N   UNL     1       9.424  11.709  18.372  0.00  0.00    +0.000 N 
ATOM     12  N   UNL     1       9.978  11.154  19.484  0.00  0.00    +0.000 NA
ATOM     13  N   UNL     1       9.545   9.903  19.597  0.00  0.00    +0.000 NA
BRANCH  11  14
ATOM     14  C   UNL     1       9.717  13.035  17.989  0.00  0.00    +0.000 A 
ATOM     15  C   UNL     1       8.819  14.071  18.275  0.00  0.00    +0.000 A 
ATOM     16  C   UNL     1       9.135  15.375  17.899  0.00  0.00    +0.000 A 
ATOM     17  C   UNL     1      10.336  15.601  17.250  0.00  0.00    +0.000 A 
ATOM     18  N   UNL     1      11.218  14.626  16.955  0.00  0.00    +0.000 NA
ATOM     19  C   UNL     1      10.893  13.366  17.329  0.00  0.00    +0.000 A 
ATOM     20  F   UNL     1      11.796  12.429  17.010  0.00  0.00    +0.000 F 
ENDBRANCH  11  14
ENDBRANCH   6   9
BRANCH   1  21
ATOM     21  O   UNL     1       4.410   5.258  17.572  0.00  0.00    +0.000 OA
BRANCH  21  23
ATOM     22  C   UNL     1       2.857   7.050  18.072  0.00  0.00    +0.000 C 
ATOM     23  C   UNL     1       3.211   5.584  18.306  0.00  0.00    +0.000 C 
ATOM     24  C   UNL     1       2.083   4.682  17.820  0.00  0.00    +0.000 C 
ENDBRANCH  21  23
ENDBRANCH   1  21
TORSDOF 4
ENDMDL
MODEL 8
REMARK VINA RESULT:      -6.6      4.069      8.756
REMARK  Name = 
REMARK  6 active torsions:
REMARK  status: ('A' for Active; 'I' for Inactive)
REMARK    1  A    between atoms: C_1  and  C_2
REMARK    2  A    between atoms: C_2  and  C_3
REMARK    3  A    between atoms: C_2  and  O_4
REMARK    4  A    between atoms: O_4  and  C_5
REMARK    5  A    between atoms: C_10  and  C_11
REMARK    6  A    between atoms: N_13  and  C_14
REMARK                            x       y       z     vdW  Elec       q    Type
REMARK                         _______ _______ _______ _____ _____    ______ ____
ROOT
ATOM      1  C   UNL     1       5.674   4.169  15.464  0.00  0.00    +0.000 C 
ATOM      2  O   UNL     1       5.641   2.964  15.694  0.00  0.00    +0.000 OA
ATOM      3  N   UNL     1       5.300   5.123  16.391  0.00  0.00    +0.000 N 
ATOM      4  C   UNL     1       4.971   4.667  17.728  0.00  0.00    +0.000 C 
ATOM      5  C   UNL     1       4.016   5.598  18.407  0.00  0.00    +0.000 C 
ATOM      6  C   UNL     1       3.607   6.787  17.920  0.00  0.00    +0.000 C 
ATOM      7  C   UNL     1       4.158   7.297  16.606  0.00  0.00    +0.000 C 
ATOM      8  C   UNL     1       5.444   6.564  16.204  0.00  0.00    +0.000 C 
ENDROOT
BRANCH   6   9
ATOM      9  C   UNL     1       2.653   7.632  18.560  0.00  0.00    +0.000 A 
ATOM     10  C   UNL     1       2.042   8.750  18.043  0.00  0.00    +0.000 A 
ATOM     11  N   UNL     1       1.229   9.218  19.045  0.00  0.00    +0.000 N 
ATOM     12  N   UNL     1       1.345   8.397  20.123  0.00  0.00    +0.000 NA
ATOM     13  N   UNL     1       2.213   7.433  19.833  0.00  0.00    +0.000 NA
BRANCH  11  14
ATOM     14  C   UNL     1       0.382  10.346  19.070  0.00  0.00    +0.000 A 
ATOM     15  C   UNL     1       0.618  11.391  19.973  0.00  0.00    +0.000 A 
ATOM     16  C   UNL     1      -0.224  12.502  19.971  0.00  0.00    +0.000 A 
ATOM     17  C   UNL     1      -1.271  12.534  19.068  0.00  0.00    +0.000 A 
ATOM     18  N   UNL     1      -1.529  11.543  18.191  0.00  0.00    +0.000 NA
ATOM     19  C   UNL     1      -0.699  10.473  18.208  0.00  0.00    +0.000 A 
ATOM     20  F   UNL     1      -0.996   9.511  17.323  0.00  0.00    +0.000 F 
ENDBRANCH  11  14
ENDBRANCH   6   9
BRANCH   1  21
ATOM     21  O   UNL     1       6.070   4.695  14.269  0.00  0.00    +0.000 OA
BRANCH  21  23
ATOM     22  C   UNL     1       4.893   3.577  12.469  0.00  0.00    +0.000 C 
ATOM     23  C   UNL     1       6.222   3.735  13.203  0.00  0.00    +0.000 C 
ATOM     24  C   UNL     1       7.299   4.235  12.248  0.00  0.00    +0.000 C 
ENDBRANCH  21  23
ENDBRANCH   1  21
TORSDOF 4
ENDMDL
MODEL 9
REMARK VINA RESULT:      -6.6      2.660      3.591
REMARK  Name = 
REMARK  6 active torsions:
REMARK  status: ('A' for Active; 'I' for Inactive)
REMARK    1  A    between atoms: C_1  and  C_2
REMARK    2  A    between atoms: C_2  and  C_3
REMARK    3  A    between atoms: C_2  and  O_4
REMARK    4  A    between atoms: O_4  and  C_5
REMARK    5  A    between atoms: C_10  and  C_11
REMARK    6  A    between atoms: N_13  and  C_14
REMARK                            x       y       z     vdW  Elec       q    Type
REMARK                         _______ _______ _______ _____ _____    ______ ____
ROOT
ATOM      1  C   UNL     1      -1.413  11.878  20.757  0.00  0.00    +0.000 C 
ATOM      2  O   UNL     1      -2.152  12.445  19.956  0.00  0.00    +0.000 OA
ATOM      3  N   UNL     1      -0.261  11.215  20.380  0.00  0.00    +0.000 N 
ATOM      4  C   UNL     1       0.142  11.306  18.990  0.00  0.00    +0.000 C 
ATOM      5  C   UNL     1       0.948  10.116  18.572  0.00  0.00    +0.000 C 
ATOM      6  C   UNL     1       1.380   9.140  19.395  0.00  0.00    +0.000 C 
ATOM      7  C   UNL     1       1.098   9.221  20.879  0.00  0.00    +0.000 C 
ATOM      8  C   UNL     1       0.707  10.640  21.309  0.00  0.00    +0.000 C 
ENDROOT
BRANCH   6   9
ATOM      9  C   UNL     1       2.101   7.987  18.964  0.00  0.00    +0.000 A 
ATOM     10  C   UNL     1       2.093   6.733  19.530  0.00  0.00    +0.000 A 
ATOM     11  N   UNL     1       2.955   5.983  18.766  0.00  0.00    +0.000 N 
ATOM     12  N   UNL     1       3.451   6.766  17.770  0.00  0.00    +0.000 NA
ATOM     13  N   UNL     1       2.937   7.985  17.890  0.00  0.00    +0.000 NA
BRANCH  11  14
ATOM     14  C   UNL     1       3.339   4.633  18.900  0.00  0.00    +0.000 A 
ATOM     15  C   UNL     1       2.466   3.606  18.518  0.00  0.00    +0.000 A 
ATOM     16  C   UNL     1       2.871   2.278  18.647  0.00  0.00    +0.000 A 
ATOM     17  C   UNL     1       4.133   2.021  19.151  0.00  0.00    +0.000 A 
ATOM     18  N   UNL     1       4.994   2.985  19.533  0.00  0.00    +0.000 NA
ATOM     19  C   UNL     1       4.581   4.268  19.400  0.00  0.00    +0.000 A 
ATOM     20  F   UNL     1       5.467   5.192  19.797  0.00  0.00    +0.000 F 
ENDBRANCH  11  14
ENDBRANCH   6   9
BRANCH   1  21
ATOM     21  O   UNL     1      -1.657  11.830  22.098  0.00  0.00    +0.000 OA
BRANCH  21  23
ATOM     22  C   UNL     1      -3.489  12.576  23.499  0.00  0.00    +0.000 C 
ATOM     23  C   UNL     1      -2.301  13.002  22.641  0.00  0.00    +0.000 C 
ATOM     24  C   UNL     1      -1.286  13.768  23.482  0.00  0.00    +0.000 C 
ENDBRANCH  21  23
ENDBRANCH   1  21
TORSDOF 4
ENDMDL
