MODEL 1
REMARK VINA RESULT:      -8.6      0.000      0.000
REMARK  Name = 
REMARK  6 active torsions:
REMARK  status: ('A' for Active; 'I' for Inactive)
REMARK    1  A    between atoms: C_1  and  C_2
REMARK    2  A    between atoms: C_2  and  O_3
REMARK    3  A    between atoms: O_3  and  C_4
REMARK    4  A    between atoms: C_4  and  C_6
REMARK    5  A    between atoms: C_12  and  N_13
REMARK    6  A    between atoms: C_14  and  C_16
REMARK                            x       y       z     vdW  Elec       q    Type
REMARK                         _______ _______ _______ _____ _____    ______ ____
ROOT
ATOM      1  C   UNL     1       6.352   3.864  12.945  0.00  0.00    +0.000 A 
ATOM      2  C   UNL     1       7.464   4.638  12.573  0.00  0.00    +0.000 A 
ATOM      3  N   UNL     1       7.995   5.326  13.586  0.00  0.00    +0.000 NA
ATOM      4  N   UNL     1       7.228   5.002  14.656  0.00  0.00    +0.000 N 
ATOM      5  C   UNL     1       7.364   5.473  15.961  0.00  0.00    +0.000 A 
ATOM      6  C   UNL     1       6.540   5.046  16.931  0.00  0.00    +0.000 A 
ATOM      7  C   UNL     1       5.491   4.069  16.619  0.00  0.00    +0.000 A 
ATOM      8  C   UNL     1       5.361   3.643  15.340  0.00  0.00    +0.000 A 
ATOM      9  C   UNL     1       6.230   4.096  14.305  0.00  0.00    +0.000 A 
ENDROOT
BRANCH   7  10
ATOM     10  N   UNL     1       4.691   3.625  17.666  0.00  0.00    +0.000 N 
ATOM     11  C   UNL     1       3.599   4.297  18.211  0.00  0.00    +0.000 C 
ATOM     12  O   UNL     1       3.189   5.397  17.839  0.00  0.00    +0.000 OA
ATOM     13  H   UNL     1       4.935   2.733  18.081  0.00  0.00    +0.000 HD
BRANCH  11  14
ATOM     14  C   UNL     1       2.814   3.668  19.305  0.00  0.00    +0.000 A 
ATOM     15  C   UNL     1       1.486   4.133  19.437  0.00  0.00    +0.000 A 
ATOM     16  C   UNL     1       0.679   3.734  20.501  0.00  0.00    +0.000 A 
ATOM     17  C   UNL     1       1.188   2.855  21.450  0.00  0.00    +0.000 A 
ATOM     18  C   UNL     1       2.494   2.377  21.326  0.00  0.00    +0.000 A 
ATOM     19  C   UNL     1       3.311   2.778  20.257  0.00  0.00    +0.000 A 
ATOM     20 CL   UNL     1       4.930   2.177  20.240  0.00  0.00    +0.000 Cl
ENDBRANCH  11  14
ENDBRANCH   7  10
BRANCH   1  21
ATOM     21  C   UNL     1       5.529   3.082  12.050  0.00  0.00    +0.000 C 
ATOM     22  O   UNL     1       5.942   2.073  11.490  0.00  0.00    +0.000 OA
BRANCH  21  23
ATOM     23  O   UNL     1       4.321   3.657  11.796  0.00  0.00    +0.000 OA
BRANCH  23  25
ATOM     24  C   UNL     1       3.083   4.083   9.806  0.00  0.00    +0.000 C 
ATOM     25  C   UNL     1       3.552   3.012  10.776  0.00  0.00    +0.000 C 
ENDBRANCH  23  25
ENDBRANCH  21  23
ENDBRANCH   1  21
TORSDOF 5
ENDMDL
MODEL 2
REMARK VINA RESULT:      -8.3      1.332      1.616
REMARK  Name = 
REMARK  6 active torsions:
REMARK  status: ('A' for Active; 'I' for Inactive)
REMARK    1  A    between atoms: C_1  and  C_2
REMARK    2  A    between atoms: C_2  and  O_3
REMARK    3  A    between atoms: O_3  and  C_4
REMARK    4  A    between atoms: C_4  and  C_6
REMARK    5  A    between atoms: C_12  and  N_13
REMARK    6  A    between atoms: C_14  and  C_16
REMARK                            x       y       z     vdW  Elec       q    Type
REMARK                         _______ _______ _______ _____ _____    ______ ____
ROOT
ATOM      1  C   UNL     1       6.301   3.941  12.884  0.00  0.00    +0.000 A 
ATOM      2  C   UNL     1       7.518   4.552  12.535  0.00  0.00    +0.000 A 
ATOM      3  N   UNL     1       8.048   5.279  13.521  0.00  0.00    +0.000 NA
ATOM      4  N   UNL     1       7.173   5.149  14.548  0.00  0.00    +0.000 N 
ATOM      5  C   UNL     1       7.266   5.733  15.811  0.00  0.00    +0.000 A 
ATOM      6  C   UNL     1       6.330   5.497  16.744  0.00  0.00    +0.000 A 
ATOM      7  C   UNL     1       5.203   4.609  16.437  0.00  0.00    +0.000 A 
ATOM      8  C   UNL     1       5.119   4.072  15.197  0.00  0.00    +0.000 A 
ATOM      9  C   UNL     1       6.107   4.323  14.201  0.00  0.00    +0.000 A 
ENDROOT
BRANCH   7  10
ATOM     10  N   UNL     1       4.284   4.361  17.450  0.00  0.00    +0.000 N 
ATOM     11  C   UNL     1       4.579   4.098  18.786  0.00  0.00    +0.000 C 
ATOM     12  O   UNL     1       5.715   4.041  19.260  0.00  0.00    +0.000 OA
ATOM     13  H   UNL     1       3.305   4.358  17.188  0.00  0.00    +0.000 HD
BRANCH  11  14
ATOM     14  C   UNL     1       3.478   3.894  19.762  0.00  0.00    +0.000 A 
ATOM     15  C   UNL     1       3.433   2.616  20.362  0.00  0.00    +0.000 A 
ATOM     16  C   UNL     1       2.378   2.239  21.191  0.00  0.00    +0.000 A 
ATOM     17  C   UNL     1       1.349   3.140  21.438  0.00  0.00    +0.000 A 
ATOM     18  C   UNL     1       1.385   4.412  20.863  0.00  0.00    +0.000 A 
ATOM     19  C   UNL     1       2.446   4.795  20.026  0.00  0.00    +0.000 A 
ATOM     20 CL   UNL     1       2.354   6.367  19.316  0.00  0.00    +0.000 Cl
ENDBRANCH  11  14
ENDBRANCH   7  10
BRANCH   1  21
ATOM     21  C   UNL     1       5.462   3.164  11.999  0.00  0.00    +0.000 C 
ATOM     22  O   UNL     1       5.755   2.026  11.647  0.00  0.00    +0.000 OA
BRANCH  21  23
ATOM     23  O   UNL     1       4.410   3.871  11.502  0.00  0.00    +0.000 OA
BRANCH  23  25
ATOM     24  C   UNL     1       2.917   4.071   9.657  0.00  0.00    +0.000 C 
ATOM     25  C   UNL     1       3.518   3.117  10.677  0.00  0.00    +0.000 C 
ENDBRANCH  23  25
ENDBRANCH  21  23
ENDBRANCH   1  21
TORSDOF 5
ENDMDL
MODEL 3
REMARK VINA RESULT:      -7.8      1.629      2.166
REMARK  Name = 
REMARK  6 active torsions:
REMARK  status: ('A' for Active; 'I' for Inactive)
REMARK    1  A    between atoms: C_1  and  C_2
REMARK    2  A    between atoms: C_2  and  O_3
REMARK    3  A    between atoms: O_3  and  C_4
REMARK    4  A    between atoms: C_4  and  C_6
REMARK    5  A    between atoms: C_12  and  N_13
REMARK    6  A    between atoms: C_14  and  C_16
REMARK                            x       y       z     vdW  Elec       q    Type
REMARK                         _______ _______ _______ _____ _____    ______ ____
ROOT
ATOM      1  C   UNL     1       6.507   3.924  12.893  0.00  0.00    +0.000 A 
ATOM      2  C   UNL     1       7.677   4.628  12.560  0.00  0.00    +0.000 A 
ATOM      3  N   UNL     1       8.080   5.469  13.514  0.00  0.00    +0.000 NA
ATOM      4  N   UNL     1       7.167   5.321  14.506  0.00  0.00    +0.000 N 
ATOM      5  C   UNL     1       7.135   5.996  15.726  0.00  0.00    +0.000 A 
ATOM      6  C   UNL     1       6.177   5.730  16.628  0.00  0.00    +0.000 A 
ATOM      7  C   UNL     1       5.159   4.716  16.333  0.00  0.00    +0.000 A 
ATOM      8  C   UNL     1       5.194   4.091  15.132  0.00  0.00    +0.000 A 
ATOM      9  C   UNL     1       6.206   4.372  14.169  0.00  0.00    +0.000 A 
ENDROOT
BRANCH   7  10
ATOM     10  N   UNL     1       4.214   4.446  17.316  0.00  0.00    +0.000 N 
ATOM     11  C   UNL     1       4.477   4.085  18.636  0.00  0.00    +0.000 C 
ATOM     12  O   UNL     1       5.601   3.946  19.120  0.00  0.00    +0.000 OA
ATOM     13  H   UNL     1       3.240   4.505  17.043  0.00  0.00    +0.000 HD
BRANCH  11  14
ATOM     14  C   UNL     1       3.352   3.870  19.583  0.00  0.00    +0.000 A 
ATOM     15  C   UNL     1       3.116   2.524  19.942  0.00  0.00    +0.000 A 
ATOM     16  C   UNL     1       2.012   2.161  20.712  0.00  0.00    +0.000 A 
ATOM     17  C   UNL     1       1.127   3.142  21.142  0.00  0.00    +0.000 A 
ATOM     18  C   UNL     1       1.354   4.479  20.806  0.00  0.00    +0.000 A 
ATOM     19  C   UNL     1       2.464   4.849  20.029  0.00  0.00    +0.000 A 
ATOM     20 CL   UNL     1       2.610   6.520  19.619  0.00  0.00    +0.000 Cl
ENDBRANCH  11  14
ENDBRANCH   7  10
BRANCH   1  21
ATOM     21  C   UNL     1       5.796   3.009  12.028  0.00  0.00    +0.000 C 
ATOM     22  O   UNL     1       4.594   3.111  11.809  0.00  0.00    +0.000 OA
BRANCH  21  23
ATOM     23  O   UNL     1       6.563   1.966  11.608  0.00  0.00    +0.000 OA
BRANCH  23  25
ATOM     24  C   UNL     1       6.195  -0.379  11.405  0.00  0.00    +0.000 C 
ATOM     25  C   UNL     1       5.871   0.989  10.826  0.00  0.00    +0.000 C 
ENDBRANCH  23  25
ENDBRANCH  21  23
ENDBRANCH   1  21
TORSDOF 5
ENDMDL
MODEL 4
REMARK VINA RESULT:      -7.8      1.204      1.669
REMARK  Name = 
REMARK  6 active torsions:
REMARK  status: ('A' for Active; 'I' for Inactive)
REMARK    1  A    between atoms: C_1  and  C_2
REMARK    2  A    between atoms: C_2  and  O_3
REMARK    3  A    between atoms: O_3  and  C_4
REMARK    4  A    between atoms: C_4  and  C_6
REMARK    5  A    between atoms: C_12  and  N_13
REMARK    6  A    between atoms: C_14  and  C_16
REMARK                            x       y       z     vdW  Elec       q    Type
REMARK                         _______ _______ _______ _____ _____    ______ ____
ROOT
ATOM      1  C   UNL     1       6.451   3.947  12.931  0.00  0.00    +0.000 A 
ATOM      2  C   UNL     1       7.590   4.716  12.633  0.00  0.00    +0.000 A 
ATOM      3  N   UNL     1       7.994   5.480  13.650  0.00  0.00    +0.000 NA
ATOM      4  N   UNL     1       7.115   5.213  14.647  0.00  0.00    +0.000 N 
ATOM      5  C   UNL     1       7.097   5.772  15.925  0.00  0.00    +0.000 A 
ATOM      6  C   UNL     1       6.174   5.395  16.823  0.00  0.00    +0.000 A 
ATOM      7  C   UNL     1       5.179   4.378  16.463  0.00  0.00    +0.000 A 
ATOM      8  C   UNL     1       5.199   3.867  15.209  0.00  0.00    +0.000 A 
ATOM      9  C   UNL     1       6.173   4.267  14.250  0.00  0.00    +0.000 A 
ENDROOT
BRANCH   7  10
ATOM     10  N   UNL     1       4.271   3.989  17.441  0.00  0.00    +0.000 N 
ATOM     11  C   UNL     1       4.504   3.953  18.815  0.00  0.00    +0.000 C 
ATOM     12  O   UNL     1       5.565   4.259  19.359  0.00  0.00    +0.000 OA
ATOM     13  H   UNL     1       3.356   3.691  17.123  0.00  0.00    +0.000 HD
BRANCH  11  14
ATOM     14  C   UNL     1       3.413   3.552  19.740  0.00  0.00    +0.000 A 
ATOM     15  C   UNL     1       2.262   4.373  19.704  0.00  0.00    +0.000 A 
ATOM     16  C   UNL     1       1.218   4.198  20.611  0.00  0.00    +0.000 A 
ATOM     17  C   UNL     1       1.306   3.194  21.568  0.00  0.00    +0.000 A 
ATOM     18  C   UNL     1       2.431   2.367  21.608  0.00  0.00    +0.000 A 
ATOM     19  C   UNL     1       3.486   2.540  20.697  0.00  0.00    +0.000 A 
ATOM     20 CL   UNL     1       4.856   1.505  20.880  0.00  0.00    +0.000 Cl
ENDBRANCH  11  14
ENDBRANCH   7  10
BRANCH   1  21
ATOM     21  C   UNL     1       5.744   3.091  12.004  0.00  0.00    +0.000 C 
ATOM     22  O   UNL     1       4.576   3.287  11.690  0.00  0.00    +0.000 OA
BRANCH  21  23
ATOM     23  O   UNL     1       6.461   1.993  11.638  0.00  0.00    +0.000 OA
BRANCH  23  25
ATOM     24  C   UNL     1       6.238  -0.366  11.396  0.00  0.00    +0.000 C 
ATOM     25  C   UNL     1       5.709   0.988  10.953  0.00  0.00    +0.000 C 
ENDBRANCH  23  25
ENDBRANCH  21  23
ENDBRANCH   1  21
TORSDOF 5
ENDMDL
MODEL 5
REMARK VINA RESULT:      -7.6      4.487      6.587
REMARK  Name = 
REMARK  6 active torsions:
REMARK  status: ('A' for Active; 'I' for Inactive)
REMARK    1  A    between atoms: C_1  and  C_2
REMARK    2  A    between atoms: C_2  and  O_3
REMARK    3  A    between atoms: O_3  and  C_4
REMARK    4  A    between atoms: C_4  and  C_6
REMARK    5  A    between atoms: C_12  and  N_13
REMARK    6  A    between atoms: C_14  and  C_16
REMARK                            x       y       z     vdW  Elec       q    Type
REMARK                         _______ _______ _______ _____ _____    ______ ____
ROOT
ATOM      1  C   UNL     1       4.986   5.046  17.099  0.00  0.00    +0.000 A 
ATOM      2  C   UNL     1       4.975   3.673  16.795  0.00  0.00    +0.000 A 
ATOM      3  N   UNL     1       4.098   2.976  17.519  0.00  0.00    +0.000 NA
ATOM      4  N   UNL     1       3.506   3.899  18.318  0.00  0.00    +0.000 N 
ATOM      5  C   UNL     1       2.520   3.671  19.277  0.00  0.00    +0.000 A 
ATOM      6  C   UNL     1       2.007   4.690  19.984  0.00  0.00    +0.000 A 
ATOM      7  C   UNL     1       2.482   6.058  19.743  0.00  0.00    +0.000 A 
ATOM      8  C   UNL     1       3.459   6.252  18.825  0.00  0.00    +0.000 A 
ATOM      9  C   UNL     1       4.010   5.174  18.074  0.00  0.00    +0.000 A 
ENDROOT
BRANCH   7  10
ATOM     10  N   UNL     1       1.890   7.084  20.470  0.00  0.00    +0.000 N 
ATOM     11  C   UNL     1       1.497   8.326  19.974  0.00  0.00    +0.000 C 
ATOM     12  O   UNL     1       1.629   8.693  18.806  0.00  0.00    +0.000 OA
ATOM     13  H   UNL     1       1.742   6.917  21.458  0.00  0.00    +0.000 HD
BRANCH  11  14
ATOM     14  C   UNL     1       0.836   9.306  20.873  0.00  0.00    +0.000 A 
ATOM     15  C   UNL     1       0.695   8.891  22.216  0.00  0.00    +0.000 A 
ATOM     16  C   UNL     1      -0.026   9.648  23.138  0.00  0.00    +0.000 A 
ATOM     17  C   UNL     1      -0.615  10.839  22.732  0.00  0.00    +0.000 A 
ATOM     18  C   UNL     1      -0.474  11.269  21.410  0.00  0.00    +0.000 A 
ATOM     19  C   UNL     1       0.250  10.509  20.477  0.00  0.00    +0.000 A 
ATOM     20 CL   UNL     1       0.304  11.102  18.857  0.00  0.00    +0.000 Cl
ENDBRANCH  11  14
ENDBRANCH   7  10
BRANCH   1  21
ATOM     21  C   UNL     1       5.884   6.029  16.536  0.00  0.00    +0.000 C 
ATOM     22  O   UNL     1       5.512   6.873  15.729  0.00  0.00    +0.000 OA
BRANCH  21  23
ATOM     23  O   UNL     1       7.184   5.828  16.888  0.00  0.00    +0.000 OA
BRANCH  23  25
ATOM     24  C   UNL     1       7.824   7.935  17.798  0.00  0.00    +0.000 C 
ATOM     25  C   UNL     1       7.581   6.466  18.105  0.00  0.00    +0.000 C 
ENDBRANCH  23  25
ENDBRANCH  21  23
ENDBRANCH   1  21
TORSDOF 5
ENDMDL
MODEL 6
REMARK VINA RESULT:      -7.6      5.153      7.134
REMARK  Name = 
REMARK  6 active torsions:
REMARK  status: ('A' for Active; 'I' for Inactive)
REMARK    1  A    between atoms: C_1  and  C_2
REMARK    2  A    between atoms: C_2  and  O_3
REMARK    3  A    between atoms: O_3  and  C_4
REMARK    4  A    between atoms: C_4  and  C_6
REMARK    5  A    between atoms: C_12  and  N_13
REMARK    6  A    between atoms: C_14  and  C_16
REMARK                            x       y       z     vdW  Elec       q    Type
REMARK                         _______ _______ _______ _____ _____    ______ ____
ROOT
ATOM      1  C   UNL     1       4.985   5.527  17.176  0.00  0.00    +0.000 A 
ATOM      2  C   UNL     1       5.190   4.172  17.491  0.00  0.00    +0.000 A 
ATOM      3  N   UNL     1       4.424   3.738  18.493  0.00  0.00    +0.000 NA
ATOM      4  N   UNL     1       3.689   4.819  18.853  0.00  0.00    +0.000 N 
ATOM      5  C   UNL     1       2.740   4.890  19.872  0.00  0.00    +0.000 A 
ATOM      6  C   UNL     1       2.069   6.029  20.103  0.00  0.00    +0.000 A 
ATOM      7  C   UNL     1       2.328   7.210  19.271  0.00  0.00    +0.000 A 
ATOM      8  C   UNL     1       3.272   7.127  18.303  0.00  0.00    +0.000 A 
ATOM      9  C   UNL     1       3.991   5.922  18.056  0.00  0.00    +0.000 A 
ENDROOT
BRANCH   7  10
ATOM     10  N   UNL     1       1.577   8.352  19.521  0.00  0.00    +0.000 N 
ATOM     11  C   UNL     1       1.350   9.401  18.631  0.00  0.00    +0.000 C 
ATOM     12  O   UNL     1       1.795   9.463  17.485  0.00  0.00    +0.000 OA
ATOM     13  H   UNL     1       1.167   8.437  20.444  0.00  0.00    +0.000 HD
BRANCH  11  14
ATOM     14  C   UNL     1       0.484  10.539  19.035  0.00  0.00    +0.000 A 
ATOM     15  C   UNL     1       0.980  11.324  20.100  0.00  0.00    +0.000 A 
ATOM     16  C   UNL     1       0.214  12.338  20.672  0.00  0.00    +0.000 A 
ATOM     17  C   UNL     1      -1.062  12.588  20.183  0.00  0.00    +0.000 A 
ATOM     18  C   UNL     1      -1.561  11.829  19.122  0.00  0.00    +0.000 A 
ATOM     19  C   UNL     1      -0.794  10.806  18.543  0.00  0.00    +0.000 A 
ATOM     20 CL   UNL     1      -1.535   9.888  17.282  0.00  0.00    +0.000 Cl
ENDBRANCH  11  14
ENDBRANCH   7  10
BRANCH   1  21
ATOM     21  C   UNL     1       5.726   6.288  16.195  0.00  0.00    +0.000 C 
ATOM     22  O   UNL     1       5.209   6.716  15.170  0.00  0.00    +0.000 OA
BRANCH  21  23
ATOM     23  O   UNL     1       7.059   6.351  16.464  0.00  0.00    +0.000 OA
BRANCH  23  25
ATOM     24  C   UNL     1       7.981   6.602  18.646  0.00  0.00    +0.000 C 
ATOM     25  C   UNL     1       7.429   7.335  17.434  0.00  0.00    +0.000 C 
ENDBRANCH  23  25
ENDBRANCH  21  23
ENDBRANCH   1  21
TORSDOF 5
ENDMDL
MODEL 7
REMARK VINA RESULT:      -7.5      4.784      6.687
REMARK  Name = 
REMARK  6 active torsions:
REMARK  status: ('A' for Active; 'I' for Inactive)
REMARK    1  A    between atoms: C_1  and  C_2
REMARK    2  A    between atoms: C_2  and  O_3
REMARK    3  A    between atoms: O_3  and  C_4
REMARK    4  A    between atoms: C_4  and  C_6
REMARK    5  A    between atoms: C_12  and  N_13
REMARK    6  A    between atoms: C_14  and  C_16
REMARK                            x       y       z     vdW  Elec       q    Type
REMARK                         _______ _______ _______ _____ _____    ______ ____
ROOT
ATOM      1  C   UNL     1       4.778   5.219  16.766  0.00  0.00    +0.000 A 
ATOM      2  C   UNL     1       4.762   3.813  16.752  0.00  0.00    +0.000 A 
ATOM      3  N   UNL     1       3.960   3.283  17.678  0.00  0.00    +0.000 NA
ATOM      4  N   UNL     1       3.426   4.352  18.318  0.00  0.00    +0.000 N 
ATOM      5  C   UNL     1       2.528   4.330  19.385  0.00  0.00    +0.000 A 
ATOM      6  C   UNL     1       2.062   5.475  19.909  0.00  0.00    +0.000 A 
ATOM      7  C   UNL     1       2.494   6.762  19.351  0.00  0.00    +0.000 A 
ATOM      8  C   UNL     1       3.385   6.760  18.331  0.00  0.00    +0.000 A 
ATOM      9  C   UNL     1       3.886   5.548  17.774  0.00  0.00    +0.000 A 
ENDROOT
BRANCH   7  10
ATOM     10  N   UNL     1       1.950   7.917  19.900  0.00  0.00    +0.000 N 
ATOM     11  C   UNL     1       1.349   8.960  19.197  0.00  0.00    +0.000 C 
ATOM     12  O   UNL     1       1.221   9.005  17.973  0.00  0.00    +0.000 OA
ATOM     13  H   UNL     1       2.009   8.017  20.907  0.00  0.00    +0.000 HD
BRANCH  11  14
ATOM     14  C   UNL     1       0.775  10.115  19.935  0.00  0.00    +0.000 A 
ATOM     15  C   UNL     1       1.177  11.387  19.468  0.00  0.00    +0.000 A 
ATOM     16  C   UNL     1       0.826  12.553  20.148  0.00  0.00    +0.000 A 
ATOM     17  C   UNL     1       0.061  12.465  21.304  0.00  0.00    +0.000 A 
ATOM     18  C   UNL     1      -0.355  11.216  21.770  0.00  0.00    +0.000 A 
ATOM     19  C   UNL     1      -0.002  10.039  21.091  0.00  0.00    +0.000 A 
ATOM     20 CL   UNL     1      -0.514   8.546  21.793  0.00  0.00    +0.000 Cl
ENDBRANCH  11  14
ENDBRANCH   7  10
BRANCH   1  21
ATOM     21  C   UNL     1       5.609   6.063  15.936  0.00  0.00    +0.000 C 
ATOM     22  O   UNL     1       5.892   5.772  14.780  0.00  0.00    +0.000 OA
BRANCH  21  23
ATOM     23  O   UNL     1       6.142   7.117  16.612  0.00  0.00    +0.000 OA
BRANCH  23  25
ATOM     24  C   UNL     1       7.953   8.141  17.774  0.00  0.00    +0.000 C 
ATOM     25  C   UNL     1       7.339   6.820  17.339  0.00  0.00    +0.000 C 
ENDBRANCH  23  25
ENDBRANCH  21  23
ENDBRANCH   1  21
TORSDOF 5
ENDMDL
MODEL 8
REMARK VINA RESULT:      -7.5      4.338      6.313
REMARK  Name = 
REMARK  6 active torsions:
REMARK  status: ('A' for Active; 'I' for Inactive)
REMARK    1  A    between atoms: C_1  and  C_2
REMARK    2  A    between atoms: C_2  and  O_3
REMARK    3  A    between atoms: O_3  and  C_4
REMARK    4  A    between atoms: C_4  and  C_6
REMARK    5  A    between atoms: C_12  and  N_13
REMARK    6  A    between atoms: C_14  and  C_16
REMARK                            x       y       z     vdW  Elec       q    Type
REMARK                         _______ _______ _______ _____ _____    ______ ____
ROOT
ATOM      1  C   UNL     1       6.048   4.847  17.264  0.00  0.00    +0.000 A 
ATOM      2  C   UNL     1       5.918   3.775  16.364  0.00  0.00    +0.000 A 
ATOM      3  N   UNL     1       4.666   3.328  16.248  0.00  0.00    +0.000 NA
ATOM      4  N   UNL     1       3.944   4.118  17.081  0.00  0.00    +0.000 N 
ATOM      5  C   UNL     1       2.574   4.045  17.330  0.00  0.00    +0.000 A 
ATOM      6  C   UNL     1       1.986   4.912  18.169  0.00  0.00    +0.000 A 
ATOM      7  C   UNL     1       2.788   5.952  18.824  0.00  0.00    +0.000 A 
ATOM      8  C   UNL     1       4.121   5.989  18.587  0.00  0.00    +0.000 A 
ATOM      9  C   UNL     1       4.752   5.068  17.701  0.00  0.00    +0.000 A 
ENDROOT
BRANCH   7  10
ATOM     10  N   UNL     1       2.126   6.853  19.650  0.00  0.00    +0.000 N 
ATOM     11  C   UNL     1       1.858   8.191  19.364  0.00  0.00    +0.000 C 
ATOM     12  O   UNL     1       2.182   8.770  18.327  0.00  0.00    +0.000 OA
ATOM     13  H   UNL     1       1.821   6.507  20.552  0.00  0.00    +0.000 HD
BRANCH  11  14
ATOM     14  C   UNL     1       1.099   9.018  20.337  0.00  0.00    +0.000 A 
ATOM     15  C   UNL     1       1.349   8.728  21.698  0.00  0.00    +0.000 A 
ATOM     16  C   UNL     1       0.610   9.328  22.716  0.00  0.00    +0.000 A 
ATOM     17  C   UNL     1      -0.391  10.235  22.389  0.00  0.00    +0.000 A 
ATOM     18  C   UNL     1      -0.642  10.541  21.049  0.00  0.00    +0.000 A 
ATOM     19  C   UNL     1       0.099   9.938  20.020  0.00  0.00    +0.000 A 
ATOM     20 CL   UNL     1      -0.340  10.340  18.399  0.00  0.00    +0.000 Cl
ENDBRANCH  11  14
ENDBRANCH   7  10
BRANCH   1  21
ATOM     21  C   UNL     1       7.289   5.479  17.651  0.00  0.00    +0.000 C 
ATOM     22  O   UNL     1       7.913   5.144  18.652  0.00  0.00    +0.000 OA
BRANCH  21  23
ATOM     23  O   UNL     1       7.604   6.554  16.878  0.00  0.00    +0.000 OA
BRANCH  23  25
ATOM     24  C   UNL     1       8.180   8.600  17.954  0.00  0.00    +0.000 C 
ATOM     25  C   UNL     1       7.054   7.796  17.325  0.00  0.00    +0.000 C 
ENDBRANCH  23  25
ENDBRANCH  21  23
ENDBRANCH   1  21
TORSDOF 5
ENDMDL
MODEL 9
REMARK VINA RESULT:      -7.5      4.886      7.199
REMARK  Name = 
REMARK  6 active torsions:
REMARK  status: ('A' for Active; 'I' for Inactive)
REMARK    1  A    between atoms: C_1  and  C_2
REMARK    2  A    between atoms: C_2  and  O_3
REMARK    3  A    between atoms: O_3  and  C_4
REMARK    4  A    between atoms: C_4  and  C_6
REMARK    5  A    between atoms: C_12  and  N_13
REMARK    6  A    between atoms: C_14  and  C_16
REMARK                            x       y       z     vdW  Elec       q    Type
REMARK                         _______ _______ _______ _____ _____    ______ ____
ROOT
ATOM      1  C   UNL     1       2.847   3.643  17.980  0.00  0.00    +0.000 A 
ATOM      2  C   UNL     1       3.854   3.338  17.047  0.00  0.00    +0.000 A 
ATOM      3  N   UNL     1       4.504   4.413  16.598  0.00  0.00    +0.000 NA
ATOM      4  N   UNL     1       3.926   5.456  17.244  0.00  0.00    +0.000 N 
ATOM      5  C   UNL     1       4.241   6.807  17.110  0.00  0.00    +0.000 A 
ATOM      6  C   UNL     1       3.595   7.734  17.835  0.00  0.00    +0.000 A 
ATOM      7  C   UNL     1       2.554   7.324  18.784  0.00  0.00    +0.000 A 
ATOM      8  C   UNL     1       2.247   6.008  18.880  0.00  0.00    +0.000 A 
ATOM      9  C   UNL     1       2.926   5.020  18.110  0.00  0.00    +0.000 A 
ENDROOT
BRANCH   7  10
ATOM     10  N   UNL     1       1.945   8.316  19.543  0.00  0.00    +0.000 N 
ATOM     11  C   UNL     1       1.103   9.319  19.066  0.00  0.00    +0.000 C 
ATOM     12  O   UNL     1       0.783   9.470  17.886  0.00  0.00    +0.000 OA
ATOM     13  H   UNL     1       2.144   8.318  20.537  0.00  0.00    +0.000 HD
BRANCH  11  14
ATOM     14  C   UNL     1       0.493  10.286  20.014  0.00  0.00    +0.000 A 
ATOM     15  C   UNL     1       0.750  11.648  19.734  0.00  0.00    +0.000 A 
ATOM     16  C   UNL     1       0.357  12.656  20.613  0.00  0.00    +0.000 A 
ATOM     17  C   UNL     1      -0.308  12.318  21.786  0.00  0.00    +0.000 A 
ATOM     18  C   UNL     1      -0.580  10.978  22.070  0.00  0.00    +0.000 A 
ATOM     19  C   UNL     1      -0.184   9.959  21.189  0.00  0.00    +0.000 A 
ATOM     20 CL   UNL     1      -0.514   8.334  21.672  0.00  0.00    +0.000 Cl
ENDBRANCH  11  14
ENDBRANCH   7  10
BRANCH   1  21
ATOM     21  C   UNL     1       1.931   2.695  18.573  0.00  0.00    +0.000 C 
ATOM     22  O   UNL     1       0.744   2.650  18.270  0.00  0.00    +0.000 OA
BRANCH  21  23
ATOM     23  O   UNL     1       2.490   1.972  19.582  0.00  0.00    +0.000 OA
BRANCH  23  25
ATOM     24  C   UNL     1       1.500   2.756  21.603  0.00  0.00    +0.000 C 
ATOM     25  C   UNL     1       2.771   2.718  20.770  0.00  0.00    +0.000 C 
ENDBRANCH  23  25
ENDBRANCH  21  23
ENDBRANCH   1  21
TORSDOF 5
ENDMDL
