MODEL 1
REMARK VINA RESULT:      -7.6      0.000      0.000
REMARK  Name = 
REMARK  3 active torsions:
REMARK  status: ('A' for Active; 'I' for Inactive)
REMARK    1  A    between atoms: C_1  and  C_2
REMARK    2  A    between atoms: C_10  and  C_11
REMARK    3  A    between atoms: C_11  and  N_12
REMARK                            x       y       z     vdW  Elec       q    Type
REMARK                         _______ _______ _______ _____ _____    ______ ____
ROOT
ATOM      1  C   UNL     1      -0.599  11.236  22.232  0.00  0.00    +0.000 C 
ATOM      2  C   UNL     1       0.261  10.047  21.926  0.00  0.00    +0.000 C 
ATOM      3  O   UNL     1       0.567   9.245  22.795  0.00  0.00    +0.000 OA
ATOM      4  N   UNL     1       0.716   9.866  20.559  0.00  0.00    +0.000 N 
ATOM      5  C   UNL     1       0.398  10.844  19.487  0.00  0.00    +0.000 C 
ATOM      6  C   UNL     1       1.520  10.882  18.446  0.00  0.00    +0.000 C 
ATOM      7  C   UNL     1       1.793   9.494  17.866  0.00  0.00    +0.000 C 
ATOM      8  N   UNL     1       1.891   8.505  18.920  0.00  0.00    +0.000 N 
ATOM      9  N   UNL     1       2.400   7.282  18.707  0.00  0.00    +0.000 NA
ATOM     10  C   UNL     1       2.278   6.683  19.908  0.00  0.00    +0.000 A 
ATOM     11  C   UNL     1       1.692   7.555  20.866  0.00  0.00    +0.000 A 
ATOM     12  C   UNL     1       1.397   8.704  20.179  0.00  0.00    +0.000 A 
ENDROOT
BRANCH  10  13
ATOM     13  C   UNL     1       2.648   5.235  20.127  0.00  0.00    +0.000 C 
BRANCH  13  14
ATOM     14  N   UNL     1       3.275   4.484  19.045  0.00  0.00    +0.000 N 
ATOM     15  C   UNL     1       2.490   4.112  17.862  0.00  0.00    +0.000 C 
ATOM     16  C   UNL     1       3.486   3.580  16.814  0.00  0.00    +0.000 C 
ATOM     17  C   UNL     1       4.753   4.211  17.289  0.00  0.00    +0.000 A 
ATOM     18  C   UNL     1       5.975   4.274  16.635  0.00  0.00    +0.000 A 
ATOM     19  C   UNL     1       7.042   4.878  17.297  0.00  0.00    +0.000 A 
ATOM     20  C   UNL     1       6.873   5.385  18.593  0.00  0.00    +0.000 A 
ATOM     21  C   UNL     1       5.635   5.297  19.243  0.00  0.00    +0.000 A 
ATOM     22  C   UNL     1       4.566   4.717  18.581  0.00  0.00    +0.000 A 
ENDBRANCH  13  14
ENDBRANCH  10  13
TORSDOF 2
ENDMDL
MODEL 2
REMARK VINA RESULT:      -7.5      2.696      7.753
REMARK  Name = 
REMARK  3 active torsions:
REMARK  status: ('A' for Active; 'I' for Inactive)
REMARK    1  A    between atoms: C_1  and  C_2
REMARK    2  A    between atoms: C_10  and  C_11
REMARK    3  A    between atoms: C_11  and  N_12
REMARK                            x       y       z     vdW  Elec       q    Type
REMARK                         _______ _______ _______ _____ _____    ______ ____
ROOT
ATOM      1  C   UNL     1       5.380   3.926  16.196  0.00  0.00    +0.000 C 
ATOM      2  C   UNL     1       4.822   5.243  16.646  0.00  0.00    +0.000 C 
ATOM      3  O   UNL     1       5.076   6.276  16.047  0.00  0.00    +0.000 OA
ATOM      4  N   UNL     1       3.957   5.255  17.813  0.00  0.00    +0.000 N 
ATOM      5  C   UNL     1       3.662   4.024  18.588  0.00  0.00    +0.000 C 
ATOM      6  C   UNL     1       3.429   4.362  20.063  0.00  0.00    +0.000 C 
ATOM      7  C   UNL     1       2.321   5.402  20.231  0.00  0.00    +0.000 C 
ATOM      8  N   UNL     1       2.506   6.506  19.313  0.00  0.00    +0.000 N 
ATOM      9  N   UNL     1       1.846   7.666  19.448  0.00  0.00    +0.000 NA
ATOM     10  C   UNL     1       2.273   8.389  18.393  0.00  0.00    +0.000 A 
ATOM     11  C   UNL     1       3.208   7.661  17.608  0.00  0.00    +0.000 A 
ATOM     12  C   UNL     1       3.289   6.425  18.195  0.00  0.00    +0.000 A 
ENDROOT
BRANCH  10  13
ATOM     13  C   UNL     1       1.722   9.761  18.082  0.00  0.00    +0.000 C 
BRANCH  13  14
ATOM     14  N   UNL     1       0.617  10.287  18.874  0.00  0.00    +0.000 N 
ATOM     15  C   UNL     1       0.843  11.409  19.792  0.00  0.00    +0.000 C 
ATOM     16  C   UNL     1      -0.544  11.890  20.261  0.00  0.00    +0.000 C 
ATOM     17  C   UNL     1      -1.406  11.370  19.159  0.00  0.00    +0.000 A 
ATOM     18  C   UNL     1      -2.739  11.659  18.907  0.00  0.00    +0.000 A 
ATOM     19  C   UNL     1      -3.359  11.014  17.838  0.00  0.00    +0.000 A 
ATOM     20  C   UNL     1      -2.646  10.088  17.063  0.00  0.00    +0.000 A 
ATOM     21  C   UNL     1      -1.305   9.797  17.345  0.00  0.00    +0.000 A 
ATOM     22  C   UNL     1      -0.679  10.452  18.392  0.00  0.00    +0.000 A 
ENDBRANCH  13  14
ENDBRANCH  10  13
TORSDOF 2
ENDMDL
MODEL 3
REMARK VINA RESULT:      -7.5      2.617      3.777
REMARK  Name = 
REMARK  3 active torsions:
REMARK  status: ('A' for Active; 'I' for Inactive)
REMARK    1  A    between atoms: C_1  and  C_2
REMARK    2  A    between atoms: C_10  and  C_11
REMARK    3  A    between atoms: C_11  and  N_12
REMARK                            x       y       z     vdW  Elec       q    Type
REMARK                         _______ _______ _______ _____ _____    ______ ____
ROOT
ATOM      1  C   UNL     1      -0.881  13.445  19.597  0.00  0.00    +0.000 C 
ATOM      2  C   UNL     1      -0.344  12.050  19.484  0.00  0.00    +0.000 C 
ATOM      3  O   UNL     1      -0.037  11.575  18.402  0.00  0.00    +0.000 OA
ATOM      4  N   UNL     1      -0.186  11.277  20.704  0.00  0.00    +0.000 N 
ATOM      5  C   UNL     1      -0.589  11.809  22.031  0.00  0.00    +0.000 C 
ATOM      6  C   UNL     1      -1.044  10.671  22.948  0.00  0.00    +0.000 C 
ATOM      7  C   UNL     1       0.035   9.596  23.086  0.00  0.00    +0.000 C 
ATOM      8  N   UNL     1       0.572   9.237  21.790  0.00  0.00    +0.000 N 
ATOM      9  N   UNL     1       1.315   8.135  21.606  0.00  0.00    +0.000 NA
ATOM     10  C   UNL     1       1.632   8.192  20.297  0.00  0.00    +0.000 A 
ATOM     11  C   UNL     1       1.071   9.341  19.676  0.00  0.00    +0.000 A 
ATOM     12  C   UNL     1       0.444  10.027  20.683  0.00  0.00    +0.000 A 
ENDROOT
BRANCH  10  13
ATOM     13  C   UNL     1       2.550   7.182  19.647  0.00  0.00    +0.000 C 
BRANCH  13  14
ATOM     14  N   UNL     1       2.000   5.926  19.154  0.00  0.00    +0.000 N 
ATOM     15  C   UNL     1       2.201   5.539  17.752  0.00  0.00    +0.000 C 
ATOM     16  C   UNL     1       1.746   4.073  17.623  0.00  0.00    +0.000 C 
ATOM     17  C   UNL     1       1.858   3.621  19.042  0.00  0.00    +0.000 A 
ATOM     18  C   UNL     1       1.779   2.328  19.536  0.00  0.00    +0.000 A 
ATOM     19  C   UNL     1       1.866   2.147  20.915  0.00  0.00    +0.000 A 
ATOM     20  C   UNL     1       2.009   3.252  21.765  0.00  0.00    +0.000 A 
ATOM     21  C   UNL     1       2.071   4.553  21.247  0.00  0.00    +0.000 A 
ATOM     22  C   UNL     1       2.006   4.736  19.876  0.00  0.00    +0.000 A 
ENDBRANCH  13  14
ENDBRANCH  10  13
TORSDOF 2
ENDMDL
MODEL 4
REMARK VINA RESULT:      -7.3      2.427      7.701
REMARK  Name = 
REMARK  3 active torsions:
REMARK  status: ('A' for Active; 'I' for Inactive)
REMARK    1  A    between atoms: C_1  and  C_2
REMARK    2  A    between atoms: C_10  and  C_11
REMARK    3  A    between atoms: C_11  and  N_12
REMARK                            x       y       z     vdW  Elec       q    Type
REMARK                         _______ _______ _______ _____ _____    ______ ____
ROOT
ATOM      1  C   UNL     1       5.812   4.691  15.001  0.00  0.00    +0.000 C 
ATOM      2  C   UNL     1       5.135   5.665  15.919  0.00  0.00    +0.000 C 
ATOM      3  O   UNL     1       5.188   6.868  15.717  0.00  0.00    +0.000 OA
ATOM      4  N   UNL     1       4.400   5.136  17.054  0.00  0.00    +0.000 N 
ATOM      5  C   UNL     1       4.350   3.682  17.353  0.00  0.00    +0.000 C 
ATOM      6  C   UNL     1       4.227   3.449  18.861  0.00  0.00    +0.000 C 
ATOM      7  C   UNL     1       3.015   4.176  19.444  0.00  0.00    +0.000 C 
ATOM      8  N   UNL     1       2.959   5.543  18.972  0.00  0.00    +0.000 N 
ATOM      9  N   UNL     1       2.170   6.465  19.545  0.00  0.00    +0.000 NA
ATOM     10  C   UNL     1       2.388   7.566  18.798  0.00  0.00    +0.000 A 
ATOM     11  C   UNL     1       3.325   7.312  17.760  0.00  0.00    +0.000 A 
ATOM     12  C   UNL     1       3.627   5.979  17.862  0.00  0.00    +0.000 A 
ENDROOT
BRANCH  10  13
ATOM     13  C   UNL     1       1.632   8.855  19.024  0.00  0.00    +0.000 C 
BRANCH  13  14
ATOM     14  N   UNL     1       0.887   9.041  20.264  0.00  0.00    +0.000 N 
ATOM     15  C   UNL     1       1.534   8.772  21.554  0.00  0.00    +0.000 C 
ATOM     16  C   UNL     1       0.593   9.313  22.647  0.00  0.00    +0.000 C 
ATOM     17  C   UNL     1      -0.203  10.305  21.864  0.00  0.00    +0.000 A 
ATOM     18  C   UNL     1      -1.080  11.267  22.342  0.00  0.00    +0.000 A 
ATOM     19  C   UNL     1      -1.754  12.059  21.414  0.00  0.00    +0.000 A 
ATOM     20  C   UNL     1      -1.554  11.862  20.041  0.00  0.00    +0.000 A 
ATOM     21  C   UNL     1      -0.676  10.873  19.577  0.00  0.00    +0.000 A 
ATOM     22  C   UNL     1       0.012  10.098  20.495  0.00  0.00    +0.000 A 
ENDBRANCH  13  14
ENDBRANCH  10  13
TORSDOF 2
ENDMDL
MODEL 5
REMARK VINA RESULT:      -7.3      1.920      2.910
REMARK  Name = 
REMARK  3 active torsions:
REMARK  status: ('A' for Active; 'I' for Inactive)
REMARK    1  A    between atoms: C_1  and  C_2
REMARK    2  A    between atoms: C_10  and  C_11
REMARK    3  A    between atoms: C_11  and  N_12
REMARK                            x       y       z     vdW  Elec       q    Type
REMARK                         _______ _______ _______ _____ _____    ______ ____
ROOT
ATOM      1  C   UNL     1      -1.954  13.116  20.250  0.00  0.00    +0.000 C 
ATOM      2  C   UNL     1      -1.198  11.945  19.699  0.00  0.00    +0.000 C 
ATOM      3  O   UNL     1      -1.136  11.739  18.497  0.00  0.00    +0.000 OA
ATOM      4  N   UNL     1      -0.528  11.061  20.637  0.00  0.00    +0.000 N 
ATOM      5  C   UNL     1      -0.618  11.258  22.106  0.00  0.00    +0.000 C 
ATOM      6  C   UNL     1      -0.533   9.913  22.833  0.00  0.00    +0.000 C 
ATOM      7  C   UNL     1       0.736   9.150  22.452  0.00  0.00    +0.000 C 
ATOM      8  N   UNL     1       0.926   9.148  21.017  0.00  0.00    +0.000 N 
ATOM      9  N   UNL     1       1.792   8.321  20.412  0.00  0.00    +0.000 NA
ATOM     10  C   UNL     1       1.686   8.660  19.112  0.00  0.00    +0.000 A 
ATOM     11  C   UNL     1       0.740   9.704  18.922  0.00  0.00    +0.000 A 
ATOM     12  C   UNL     1       0.312  10.039  20.181  0.00  0.00    +0.000 A 
ENDROOT
BRANCH  10  13
ATOM     13  C   UNL     1       2.557   8.039  18.044  0.00  0.00    +0.000 C 
BRANCH  13  14
ATOM     14  N   UNL     1       2.994   6.656  18.190  0.00  0.00    +0.000 N 
ATOM     15  C   UNL     1       2.024   5.617  18.554  0.00  0.00    +0.000 C 
ATOM     16  C   UNL     1       2.729   4.260  18.363  0.00  0.00    +0.000 C 
ATOM     17  C   UNL     1       3.810   4.640  17.405  0.00  0.00    +0.000 A 
ATOM     18  C   UNL     1       4.656   3.802  16.695  0.00  0.00    +0.000 A 
ATOM     19  C   UNL     1       5.630   4.386  15.886  0.00  0.00    +0.000 A 
ATOM     20  C   UNL     1       5.748   5.782  15.820  0.00  0.00    +0.000 A 
ATOM     21  C   UNL     1       4.894   6.611  16.559  0.00  0.00    +0.000 A 
ATOM     22  C   UNL     1       3.911   6.036  17.347  0.00  0.00    +0.000 A 
ENDBRANCH  13  14
ENDBRANCH  10  13
TORSDOF 2
ENDMDL
MODEL 6
REMARK VINA RESULT:      -7.3      2.116      7.195
REMARK  Name = 
REMARK  3 active torsions:
REMARK  status: ('A' for Active; 'I' for Inactive)
REMARK    1  A    between atoms: C_1  and  C_2
REMARK    2  A    between atoms: C_10  and  C_11
REMARK    3  A    between atoms: C_11  and  N_12
REMARK                            x       y       z     vdW  Elec       q    Type
REMARK                         _______ _______ _______ _____ _____    ______ ____
ROOT
ATOM      1  C   UNL     1       2.441   3.565  21.266  0.00  0.00    +0.000 C 
ATOM      2  C   UNL     1       2.112   4.802  20.486  0.00  0.00    +0.000 C 
ATOM      3  O   UNL     1       1.145   5.491  20.769  0.00  0.00    +0.000 OA
ATOM      4  N   UNL     1       2.987   5.168  19.386  0.00  0.00    +0.000 N 
ATOM      5  C   UNL     1       4.147   4.331  18.989  0.00  0.00    +0.000 C 
ATOM      6  C   UNL     1       4.407   4.453  17.486  0.00  0.00    +0.000 C 
ATOM      7  C   UNL     1       4.607   5.910  17.068  0.00  0.00    +0.000 C 
ATOM      8  N   UNL     1       3.581   6.756  17.641  0.00  0.00    +0.000 N 
ATOM      9  N   UNL     1       3.363   8.007  17.209  0.00  0.00    +0.000 NA
ATOM     10  C   UNL     1       2.370   8.443  18.010  0.00  0.00    +0.000 A 
ATOM     11  C   UNL     1       1.976   7.442  18.939  0.00  0.00    +0.000 A 
ATOM     12  C   UNL     1       2.820   6.385  18.714  0.00  0.00    +0.000 A 
ENDROOT
BRANCH  10  13
ATOM     13  C   UNL     1       1.847   9.859  17.946  0.00  0.00    +0.000 C 
BRANCH  13  14
ATOM     14  N   UNL     1       0.762  10.263  18.831  0.00  0.00    +0.000 N 
ATOM     15  C   UNL     1       0.999  11.281  19.862  0.00  0.00    +0.000 C 
ATOM     16  C   UNL     1      -0.378  11.670  20.432  0.00  0.00    +0.000 C 
ATOM     17  C   UNL     1      -1.272  11.255  19.310  0.00  0.00    +0.000 A 
ATOM     18  C   UNL     1      -2.619  11.536  19.140  0.00  0.00    +0.000 A 
ATOM     19  C   UNL     1      -3.265  10.999  18.028  0.00  0.00    +0.000 A 
ATOM     20  C   UNL     1      -2.564  10.185  17.128  0.00  0.00    +0.000 A 
ATOM     21  C   UNL     1      -1.206   9.899  17.326  0.00  0.00    +0.000 A 
ATOM     22  C   UNL     1      -0.554  10.448  18.418  0.00  0.00    +0.000 A 
ENDBRANCH  13  14
ENDBRANCH  10  13
TORSDOF 2
ENDMDL
MODEL 7
REMARK VINA RESULT:      -7.1      1.846      7.403
REMARK  Name = 
REMARK  3 active torsions:
REMARK  status: ('A' for Active; 'I' for Inactive)
REMARK    1  A    between atoms: C_1  and  C_2
REMARK    2  A    between atoms: C_10  and  C_11
REMARK    3  A    between atoms: C_11  and  N_12
REMARK                            x       y       z     vdW  Elec       q    Type
REMARK                         _______ _______ _______ _____ _____    ______ ____
ROOT
ATOM      1  C   UNL     1       3.116   2.577  20.962  0.00  0.00    +0.000 C 
ATOM      2  C   UNL     1       2.532   3.904  20.580  0.00  0.00    +0.000 C 
ATOM      3  O   UNL     1       1.538   4.342  21.137  0.00  0.00    +0.000 OA
ATOM      4  N   UNL     1       3.189   4.663  19.531  0.00  0.00    +0.000 N 
ATOM      5  C   UNL     1       4.374   4.141  18.804  0.00  0.00    +0.000 C 
ATOM      6  C   UNL     1       4.400   4.674  17.370  0.00  0.00    +0.000 C 
ATOM      7  C   UNL     1       4.360   6.202  17.338  0.00  0.00    +0.000 C 
ATOM      8  N   UNL     1       3.330   6.708  18.221  0.00  0.00    +0.000 N 
ATOM      9  N   UNL     1       2.903   7.979  18.164  0.00  0.00    +0.000 NA
ATOM     10  C   UNL     1       1.989   8.042  19.154  0.00  0.00    +0.000 A 
ATOM     11  C   UNL     1       1.856   6.792  19.818  0.00  0.00    +0.000 A 
ATOM     12  C   UNL     1       2.782   5.968  19.231  0.00  0.00    +0.000 A 
ENDROOT
BRANCH  10  13
ATOM     13  C   UNL     1       1.293   9.330  19.526  0.00  0.00    +0.000 C 
BRANCH  13  14
ATOM     14  N   UNL     1       0.525   9.399  20.763  0.00  0.00    +0.000 N 
ATOM     15  C   UNL     1       1.147   9.005  22.033  0.00  0.00    +0.000 C 
ATOM     16  C   UNL     1       0.186   9.442  23.156  0.00  0.00    +0.000 C 
ATOM     17  C   UNL     1      -0.593  10.507  22.457  0.00  0.00    +0.000 A 
ATOM     18  C   UNL     1      -1.476  11.422  23.009  0.00  0.00    +0.000 A 
ATOM     19  C   UNL     1      -2.130  12.303  22.149  0.00  0.00    +0.000 A 
ATOM     20  C   UNL     1      -1.905  12.238  20.767  0.00  0.00    +0.000 A 
ATOM     21  C   UNL     1      -1.020  11.295  20.227  0.00  0.00    +0.000 A 
ATOM     22  C   UNL     1      -0.352  10.433  21.079  0.00  0.00    +0.000 A 
ENDBRANCH  13  14
ENDBRANCH  10  13
TORSDOF 2
ENDMDL
MODEL 8
REMARK VINA RESULT:      -7.1      1.930      3.390
REMARK  Name = 
REMARK  3 active torsions:
REMARK  status: ('A' for Active; 'I' for Inactive)
REMARK    1  A    between atoms: C_1  and  C_2
REMARK    2  A    between atoms: C_10  and  C_11
REMARK    3  A    between atoms: C_11  and  N_12
REMARK                            x       y       z     vdW  Elec       q    Type
REMARK                         _______ _______ _______ _____ _____    ______ ____
ROOT
ATOM      1  C   UNL     1      -1.406  12.356  19.452  0.00  0.00    +0.000 C 
ATOM      2  C   UNL     1      -0.612  11.182  18.963  0.00  0.00    +0.000 C 
ATOM      3  O   UNL     1      -0.463  10.971  17.769  0.00  0.00    +0.000 OA
ATOM      4  N   UNL     1      -0.014  10.302  19.952  0.00  0.00    +0.000 N 
ATOM      5  C   UNL     1      -0.211  10.505  21.409  0.00  0.00    +0.000 C 
ATOM      6  C   UNL     1      -0.181   9.164  22.146  0.00  0.00    +0.000 C 
ATOM      7  C   UNL     1       1.112   8.398  21.863  0.00  0.00    +0.000 C 
ATOM      8  N   UNL     1       1.406   8.389  20.445  0.00  0.00    +0.000 N 
ATOM      9  N   UNL     1       2.313   7.559  19.909  0.00  0.00    +0.000 NA
ATOM     10  C   UNL     1       2.303   7.892  18.603  0.00  0.00    +0.000 A 
ATOM     11  C   UNL     1       1.375   8.936  18.340  0.00  0.00    +0.000 A 
ATOM     12  C   UNL     1       0.856   9.277  19.563  0.00  0.00    +0.000 A 
ENDROOT
BRANCH  10  13
ATOM     13  C   UNL     1       3.250   7.266  17.605  0.00  0.00    +0.000 C 
BRANCH  13  14
ATOM     14  N   UNL     1       3.827   5.957  17.888  0.00  0.00    +0.000 N 
ATOM     15  C   UNL     1       5.040   5.854  18.707  0.00  0.00    +0.000 C 
ATOM     16  C   UNL     1       5.230   4.361  19.038  0.00  0.00    +0.000 C 
ATOM     17  C   UNL     1       3.838   3.854  18.849  0.00  0.00    +0.000 A 
ATOM     18  C   UNL     1       3.324   2.615  19.198  0.00  0.00    +0.000 A 
ATOM     19  C   UNL     1       1.995   2.342  18.879  0.00  0.00    +0.000 A 
ATOM     20  C   UNL     1       1.220   3.298  18.208  0.00  0.00    +0.000 A 
ATOM     21  C   UNL     1       1.763   4.539  17.849  0.00  0.00    +0.000 A 
ATOM     22  C   UNL     1       3.077   4.822  18.182  0.00  0.00    +0.000 A 
ENDBRANCH  13  14
ENDBRANCH  10  13
TORSDOF 2
ENDMDL
MODEL 9
REMARK VINA RESULT:      -7.1      2.815      5.413
REMARK  Name = 
REMARK  3 active torsions:
REMARK  status: ('A' for Active; 'I' for Inactive)
REMARK    1  A    between atoms: C_1  and  C_2
REMARK    2  A    between atoms: C_10  and  C_11
REMARK    3  A    between atoms: C_11  and  N_12
REMARK                            x       y       z     vdW  Elec       q    Type
REMARK                         _______ _______ _______ _____ _____    ______ ____
ROOT
ATOM      1  C   UNL     1       1.742   7.416  20.806  0.00  0.00    +0.000 C 
ATOM      2  C   UNL     1       2.269   6.554  19.698  0.00  0.00    +0.000 C 
ATOM      3  O   UNL     1       2.760   7.044  18.693  0.00  0.00    +0.000 OA
ATOM      4  N   UNL     1       2.192   5.113  19.858  0.00  0.00    +0.000 N 
ATOM      5  C   UNL     1       1.564   4.484  21.048  0.00  0.00    +0.000 C 
ATOM      6  C   UNL     1       0.933   3.140  20.674  0.00  0.00    +0.000 C 
ATOM      7  C   UNL     1       1.953   2.203  20.026  0.00  0.00    +0.000 C 
ATOM      8  N   UNL     1       2.710   2.894  19.004  0.00  0.00    +0.000 N 
ATOM      9  N   UNL     1       3.458   2.239  18.103  0.00  0.00    +0.000 NA
ATOM     10  C   UNL     1       4.008   3.232  17.376  0.00  0.00    +0.000 A 
ATOM     11  C   UNL     1       3.586   4.508  17.838  0.00  0.00    +0.000 A 
ATOM     12  C   UNL     1       2.796   4.257  18.930  0.00  0.00    +0.000 A 
ENDROOT
BRANCH  10  13
ATOM     13  C   UNL     1       5.013   2.965  16.280  0.00  0.00    +0.000 C 
BRANCH  13  14
ATOM     14  N   UNL     1       5.746   4.080  15.692  0.00  0.00    +0.000 N 
ATOM     15  C   UNL     1       6.764   4.784  16.481  0.00  0.00    +0.000 C 
ATOM     16  C   UNL     1       7.525   5.706  15.508  0.00  0.00    +0.000 C 
ATOM     17  C   UNL     1       7.239   5.033  14.206  0.00  0.00    +0.000 A 
ATOM     18  C   UNL     1       7.821   5.278  12.971  0.00  0.00    +0.000 A 
ATOM     19  C   UNL     1       7.359   4.554  11.874  0.00  0.00    +0.000 A 
ATOM     20  C   UNL     1       6.321   3.623  12.028  0.00  0.00    +0.000 A 
ATOM     21  C   UNL     1       5.735   3.403  13.281  0.00  0.00    +0.000 A 
ATOM     22  C   UNL     1       6.205   4.104  14.378  0.00  0.00    +0.000 A 
ENDBRANCH  13  14
ENDBRANCH  10  13
TORSDOF 2
ENDMDL
