MODEL 1
REMARK VINA RESULT:      -7.7      0.000      0.000
REMARK  Name = 
REMARK  8 active torsions:
REMARK  status: ('A' for Active; 'I' for Inactive)
REMARK    1  A    between atoms: C_1  and  O_2
REMARK    2  A    between atoms: O_2  and  C_3
REMARK    3  A    between atoms: C_6  and  S_7
REMARK    4  A    between atoms: S_7  and  N_10
REMARK    5  A    between atoms: N_10  and  N_11
REMARK    6  A    between atoms: C_12  and  C_13
REMARK    7  A    between atoms: C_12  and  C_14
REMARK    8  A    between atoms: C_17  and  C_18
REMARK                            x       y       z     vdW  Elec       q    Type
REMARK                         _______ _______ _______ _____ _____    ______ ____
ROOT
ATOM      1  S   UNL     1       3.180   3.142  17.904  0.00  0.00    +0.000 S 
ATOM      2  O   UNL     1       3.029   2.061  18.857  0.00  0.00    +0.000 OA
ATOM      3  O   UNL     1       2.539   3.123  16.607  0.00  0.00    +0.000 OA
ENDROOT
BRANCH   1   7
ATOM      4  C   UNL     1       1.971   7.007  20.047  0.00  0.00    +0.000 A 
ATOM      5  C   UNL     1       1.755   5.764  20.651  0.00  0.00    +0.000 A 
ATOM      6  C   UNL     1       2.124   4.583  20.002  0.00  0.00    +0.000 A 
ATOM      7  C   UNL     1       2.684   4.648  18.724  0.00  0.00    +0.000 A 
ATOM      8  C   UNL     1       2.904   5.885  18.110  0.00  0.00    +0.000 A 
ATOM      9  C   UNL     1       2.541   7.065  18.773  0.00  0.00    +0.000 A 
BRANCH   4  11
ATOM     10  C   UNL     1       1.098   9.208  20.030  0.00  0.00    +0.000 C 
ATOM     11  O   UNL     1       1.551   8.084  20.777  0.00  0.00    +0.000 OA
ENDBRANCH   4  11
ENDBRANCH   1   7
BRANCH   1  12
ATOM     12  N   UNL     1       4.845   3.468  17.640  0.00  0.00    +0.000 N 
ATOM     13  H   UNL     1       5.097   4.288  18.205  0.00  0.00    +0.000 HD
BRANCH  12  14
ATOM     14  N   UNL     1       5.289   3.599  16.251  0.00  0.00    +0.000 NA
ATOM     15  C   UNL     1       6.156   4.531  15.968  0.00  0.00    +0.000 C 
ATOM     16  C   UNL     1       6.484   4.756  14.510  0.00  0.00    +0.000 C 
BRANCH  15  17
ATOM     17  C   UNL     1       6.853   5.356  16.937  0.00  0.00    +0.000 A 
ATOM     18  C   UNL     1       7.540   5.052  18.097  0.00  0.00    +0.000 A 
ATOM     19  C   UNL     1       8.004   6.271  18.640  0.00  0.00    +0.000 A 
ATOM     20  C   UNL     1       7.625   7.255  17.757  0.00  0.00    +0.000 A 
ATOM     21  C   UNL     1       7.847   8.714  17.725  0.00  0.00    +0.000 C 
ATOM     22  O   UNL     1       6.924   6.710  16.720  0.00  0.00    +0.000 OA
ENDBRANCH  15  17
ENDBRANCH  12  14
ENDBRANCH   1  12
TORSDOF 5
ENDMDL
MODEL 2
REMARK VINA RESULT:      -7.7      0.210      1.072
REMARK  Name = 
REMARK  8 active torsions:
REMARK  status: ('A' for Active; 'I' for Inactive)
REMARK    1  A    between atoms: C_1  and  O_2
REMARK    2  A    between atoms: O_2  and  C_3
REMARK    3  A    between atoms: C_6  and  S_7
REMARK    4  A    between atoms: S_7  and  N_10
REMARK    5  A    between atoms: N_10  and  N_11
REMARK    6  A    between atoms: C_12  and  C_13
REMARK    7  A    between atoms: C_12  and  C_14
REMARK    8  A    between atoms: C_17  and  C_18
REMARK                            x       y       z     vdW  Elec       q    Type
REMARK                         _______ _______ _______ _____ _____    ______ ____
ROOT
ATOM      1  S   UNL     1       3.046   3.178  17.980  0.00  0.00    +0.000 S 
ATOM      2  O   UNL     1       2.863   2.124  18.958  0.00  0.00    +0.000 OA
ATOM      3  O   UNL     1       2.359   3.178  16.707  0.00  0.00    +0.000 OA
ENDROOT
BRANCH   1   7
ATOM      4  C   UNL     1       2.024   7.156  20.012  0.00  0.00    +0.000 A 
ATOM      5  C   UNL     1       2.742   7.137  18.812  0.00  0.00    +0.000 A 
ATOM      6  C   UNL     1       3.054   5.927  18.188  0.00  0.00    +0.000 A 
ATOM      7  C   UNL     1       2.670   4.725  18.789  0.00  0.00    +0.000 A 
ATOM      8  C   UNL     1       1.953   4.732  19.989  0.00  0.00    +0.000 A 
ATOM      9  C   UNL     1       1.634   5.951  20.602  0.00  0.00    +0.000 A 
BRANCH   4  11
ATOM     10  C   UNL     1       0.935   9.245  19.773  0.00  0.00    +0.000 C 
ATOM     11  O   UNL     1       1.796   8.401  20.529  0.00  0.00    +0.000 OA
ENDBRANCH   4  11
ENDBRANCH   1   7
BRANCH   1  12
ATOM     12  N   UNL     1       4.717   3.399  17.654  0.00  0.00    +0.000 N 
ATOM     13  H   UNL     1       5.053   4.167  18.246  0.00  0.00    +0.000 HD
BRANCH  12  14
ATOM     14  N   UNL     1       5.108   3.571  16.254  0.00  0.00    +0.000 NA
ATOM     15  C   UNL     1       5.960   4.515  15.966  0.00  0.00    +0.000 C 
ATOM     16  C   UNL     1       6.232   4.783  14.503  0.00  0.00    +0.000 C 
BRANCH  15  17
ATOM     17  C   UNL     1       6.689   5.316  16.931  0.00  0.00    +0.000 A 
ATOM     18  C   UNL     1       7.351   4.993  18.100  0.00  0.00    +0.000 A 
ATOM     19  C   UNL     1       7.871   6.193  18.632  0.00  0.00    +0.000 A 
ATOM     20  C   UNL     1       7.548   7.185  17.734  0.00  0.00    +0.000 A 
ATOM     21  C   UNL     1       7.843   8.630  17.688  0.00  0.00    +0.000 C 
ATOM     22  O   UNL     1       6.830   6.662  16.699  0.00  0.00    +0.000 OA
ENDBRANCH  15  17
ENDBRANCH  12  14
ENDBRANCH   1  12
TORSDOF 5
ENDMDL
MODEL 3
REMARK VINA RESULT:      -7.6      1.523      2.615
REMARK  Name = 
REMARK  8 active torsions:
REMARK  status: ('A' for Active; 'I' for Inactive)
REMARK    1  A    between atoms: C_1  and  O_2
REMARK    2  A    between atoms: O_2  and  C_3
REMARK    3  A    between atoms: C_6  and  S_7
REMARK    4  A    between atoms: S_7  and  N_10
REMARK    5  A    between atoms: N_10  and  N_11
REMARK    6  A    between atoms: C_12  and  C_13
REMARK    7  A    between atoms: C_12  and  C_14
REMARK    8  A    between atoms: C_17  and  C_18
REMARK                            x       y       z     vdW  Elec       q    Type
REMARK                         _______ _______ _______ _____ _____    ______ ____
ROOT
ATOM      1  S   UNL     1       2.767   2.862  18.815  0.00  0.00    +0.000 S 
ATOM      2  O   UNL     1       2.642   2.178  20.087  0.00  0.00    +0.000 OA
ATOM      3  O   UNL     1       2.009   2.467  17.648  0.00  0.00    +0.000 OA
ENDROOT
BRANCH   1   7
ATOM      4  C   UNL     1       1.983   7.310  19.587  0.00  0.00    +0.000 A 
ATOM      5  C   UNL     1       1.935   6.389  20.638  0.00  0.00    +0.000 A 
ATOM      6  C   UNL     1       2.175   5.033  20.408  0.00  0.00    +0.000 A 
ATOM      7  C   UNL     1       2.434   4.592  19.107  0.00  0.00    +0.000 A 
ATOM      8  C   UNL     1       2.485   5.503  18.049  0.00  0.00    +0.000 A 
ATOM      9  C   UNL     1       2.253   6.864  18.291  0.00  0.00    +0.000 A 
BRANCH   4  11
ATOM     10  C   UNL     1       0.754   8.783  20.975  0.00  0.00    +0.000 C 
ATOM     11  O   UNL     1       1.714   8.604  19.939  0.00  0.00    +0.000 OA
ENDBRANCH   4  11
ENDBRANCH   1   7
BRANCH   1  12
ATOM     12  N   UNL     1       4.416   2.941  18.346  0.00  0.00    +0.000 N 
ATOM     13  H   UNL     1       4.768   1.978  18.276  0.00  0.00    +0.000 HD
BRANCH  12  14
ATOM     14  N   UNL     1       5.299   3.793  19.145  0.00  0.00    +0.000 NA
ATOM     15  C   UNL     1       5.998   4.704  18.527  0.00  0.00    +0.000 C 
ATOM     16  C   UNL     1       7.020   5.466  19.340  0.00  0.00    +0.000 C 
BRANCH  15  17
ATOM     17  C   UNL     1       5.863   5.065  17.129  0.00  0.00    +0.000 A 
ATOM     18  C   UNL     1       5.546   6.254  16.499  0.00  0.00    +0.000 A 
ATOM     19  C   UNL     1       5.553   6.006  15.109  0.00  0.00    +0.000 A 
ATOM     20  C   UNL     1       5.926   4.691  14.953  0.00  0.00    +0.000 A 
ATOM     21  C   UNL     1       6.165   3.850  13.764  0.00  0.00    +0.000 C 
ATOM     22  O   UNL     1       6.117   4.111  16.173  0.00  0.00    +0.000 OA
ENDBRANCH  15  17
ENDBRANCH  12  14
ENDBRANCH   1  12
TORSDOF 5
ENDMDL
MODEL 4
REMARK VINA RESULT:      -7.5      1.476      2.848
REMARK  Name = 
REMARK  8 active torsions:
REMARK  status: ('A' for Active; 'I' for Inactive)
REMARK    1  A    between atoms: C_1  and  O_2
REMARK    2  A    between atoms: O_2  and  C_3
REMARK    3  A    between atoms: C_6  and  S_7
REMARK    4  A    between atoms: S_7  and  N_10
REMARK    5  A    between atoms: N_10  and  N_11
REMARK    6  A    between atoms: C_12  and  C_13
REMARK    7  A    between atoms: C_12  and  C_14
REMARK    8  A    between atoms: C_17  and  C_18
REMARK                            x       y       z     vdW  Elec       q    Type
REMARK                         _______ _______ _______ _____ _____    ______ ____
ROOT
ATOM      1  S   UNL     1       3.312   2.942  19.361  0.00  0.00    +0.000 S 
ATOM      2  O   UNL     1       3.467   2.475  20.724  0.00  0.00    +0.000 OA
ATOM      3  O   UNL     1       2.451   2.274  18.409  0.00  0.00    +0.000 OA
ENDROOT
BRANCH   1   7
ATOM      4  C   UNL     1       1.932   7.307  19.533  0.00  0.00    +0.000 A 
ATOM      5  C   UNL     1       2.431   6.768  18.343  0.00  0.00    +0.000 A 
ATOM      6  C   UNL     1       2.851   5.437  18.285  0.00  0.00    +0.000 A 
ATOM      7  C   UNL     1       2.800   4.650  19.439  0.00  0.00    +0.000 A 
ATOM      8  C   UNL     1       2.304   5.178  20.634  0.00  0.00    +0.000 A 
ATOM      9  C   UNL     1       1.874   6.512  20.680  0.00  0.00    +0.000 A 
BRANCH   4  11
ATOM     10  C   UNL     1       1.007   9.182  20.645  0.00  0.00    +0.000 C 
ATOM     11  O   UNL     1       1.570   8.624  19.463  0.00  0.00    +0.000 OA
ENDBRANCH   4  11
ENDBRANCH   1   7
BRANCH   1  12
ATOM     12  N   UNL     1       4.850   3.114  18.618  0.00  0.00    +0.000 N 
ATOM     13  H   UNL     1       5.243   2.175  18.489  0.00  0.00    +0.000 HD
BRANCH  12  14
ATOM     14  N   UNL     1       5.802   4.026  19.255  0.00  0.00    +0.000 NA
ATOM     15  C   UNL     1       6.417   4.896  18.503  0.00  0.00    +0.000 C 
ATOM     16  C   UNL     1       7.510   5.721  19.145  0.00  0.00    +0.000 C 
BRANCH  15  17
ATOM     17  C   UNL     1       6.127   5.157  17.106  0.00  0.00    +0.000 A 
ATOM     18  C   UNL     1       5.645   6.272  16.447  0.00  0.00    +0.000 A 
ATOM     19  C   UNL     1       5.553   5.941  15.077  0.00  0.00    +0.000 A 
ATOM     20  C   UNL     1       6.034   4.657  14.957  0.00  0.00    +0.000 A 
ATOM     21  C   UNL     1       6.246   3.769  13.797  0.00  0.00    +0.000 C 
ATOM     22  O   UNL     1       6.384   4.173  16.184  0.00  0.00    +0.000 OA
ENDBRANCH  15  17
ENDBRANCH  12  14
ENDBRANCH   1  12
TORSDOF 5
ENDMDL
MODEL 5
REMARK VINA RESULT:      -7.5      0.829      1.648
REMARK  Name = 
REMARK  8 active torsions:
REMARK  status: ('A' for Active; 'I' for Inactive)
REMARK    1  A    between atoms: C_1  and  O_2
REMARK    2  A    between atoms: O_2  and  C_3
REMARK    3  A    between atoms: C_6  and  S_7
REMARK    4  A    between atoms: S_7  and  N_10
REMARK    5  A    between atoms: N_10  and  N_11
REMARK    6  A    between atoms: C_12  and  C_13
REMARK    7  A    between atoms: C_12  and  C_14
REMARK    8  A    between atoms: C_17  and  C_18
REMARK                            x       y       z     vdW  Elec       q    Type
REMARK                         _______ _______ _______ _____ _____    ______ ____
ROOT
ATOM      1  S   UNL     1       2.960   3.078  18.081  0.00  0.00    +0.000 S 
ATOM      2  O   UNL     1       2.754   2.068  19.099  0.00  0.00    +0.000 OA
ATOM      3  O   UNL     1       2.274   3.042  16.807  0.00  0.00    +0.000 OA
ENDROOT
BRANCH   1   7
ATOM      4  C   UNL     1       2.021   7.151  19.957  0.00  0.00    +0.000 A 
ATOM      5  C   UNL     1       2.625   7.073  18.698  0.00  0.00    +0.000 A 
ATOM      6  C   UNL     1       2.911   5.834  18.121  0.00  0.00    +0.000 A 
ATOM      7  C   UNL     1       2.619   4.663  18.827  0.00  0.00    +0.000 A 
ATOM      8  C   UNL     1       2.016   4.729  20.087  0.00  0.00    +0.000 A 
ATOM      9  C   UNL     1       1.722   5.977  20.652  0.00  0.00    +0.000 A 
BRANCH   4  11
ATOM     10  C   UNL     1       0.812   8.562  21.425  0.00  0.00    +0.000 C 
ATOM     11  O   UNL     1       1.808   8.421  20.418  0.00  0.00    +0.000 OA
ENDBRANCH   4  11
ENDBRANCH   1   7
BRANCH   1  12
ATOM     12  N   UNL     1       4.636   3.248  17.749  0.00  0.00    +0.000 N 
ATOM     13  H   UNL     1       4.975   4.070  18.262  0.00  0.00    +0.000 HD
BRANCH  12  14
ATOM     14  N   UNL     1       5.039   3.272  16.342  0.00  0.00    +0.000 NA
ATOM     15  C   UNL     1       5.839   4.225  15.948  0.00  0.00    +0.000 C 
ATOM     16  C   UNL     1       6.119   4.330  14.466  0.00  0.00    +0.000 C 
BRANCH  15  17
ATOM     17  C   UNL     1       6.503   5.179  16.815  0.00  0.00    +0.000 A 
ATOM     18  C   UNL     1       6.670   6.549  16.739  0.00  0.00    +0.000 A 
ATOM     19  C   UNL     1       7.417   6.943  17.871  0.00  0.00    +0.000 A 
ATOM     20  C   UNL     1       7.623   5.803  18.613  0.00  0.00    +0.000 A 
ATOM     21  C   UNL     1       8.280   5.557  19.912  0.00  0.00    +0.000 C 
ATOM     22  O   UNL     1       7.072   4.727  17.980  0.00  0.00    +0.000 OA
ENDBRANCH  15  17
ENDBRANCH  12  14
ENDBRANCH   1  12
TORSDOF 5
ENDMDL
MODEL 6
REMARK VINA RESULT:      -7.5      0.724      1.209
REMARK  Name = 
REMARK  8 active torsions:
REMARK  status: ('A' for Active; 'I' for Inactive)
REMARK    1  A    between atoms: C_1  and  O_2
REMARK    2  A    between atoms: O_2  and  C_3
REMARK    3  A    between atoms: C_6  and  S_7
REMARK    4  A    between atoms: S_7  and  N_10
REMARK    5  A    between atoms: N_10  and  N_11
REMARK    6  A    between atoms: C_12  and  C_13
REMARK    7  A    between atoms: C_12  and  C_14
REMARK    8  A    between atoms: C_17  and  C_18
REMARK                            x       y       z     vdW  Elec       q    Type
REMARK                         _______ _______ _______ _____ _____    ______ ____
ROOT
ATOM      1  S   UNL     1       3.042   3.097  18.077  0.00  0.00    +0.000 S 
ATOM      2  O   UNL     1       2.890   2.093  19.111  0.00  0.00    +0.000 OA
ATOM      3  O   UNL     1       2.362   3.002  16.803  0.00  0.00    +0.000 OA
ENDROOT
BRANCH   1   7
ATOM      4  C   UNL     1       1.995   7.138  19.964  0.00  0.00    +0.000 A 
ATOM      5  C   UNL     1       1.716   5.947  20.641  0.00  0.00    +0.000 A 
ATOM      6  C   UNL     1       2.036   4.713  20.070  0.00  0.00    +0.000 A 
ATOM      7  C   UNL     1       2.609   4.672  18.797  0.00  0.00    +0.000 A 
ATOM      8  C   UNL     1       2.892   5.857  18.111  0.00  0.00    +0.000 A 
ATOM      9  C   UNL     1       2.578   7.091  18.696  0.00  0.00    +0.000 A 
BRANCH   4  11
ATOM     10  C   UNL     1       1.043   9.302  19.819  0.00  0.00    +0.000 C 
ATOM     11  O   UNL     1       1.619   8.277  20.622  0.00  0.00    +0.000 OA
ENDBRANCH   4  11
ENDBRANCH   1   7
BRANCH   1  12
ATOM     12  N   UNL     1       4.706   3.356  17.745  0.00  0.00    +0.000 N 
ATOM     13  H   UNL     1       5.004   4.188  18.267  0.00  0.00    +0.000 HD
BRANCH  12  14
ATOM     14  N   UNL     1       5.105   3.418  16.338  0.00  0.00    +0.000 NA
ATOM     15  C   UNL     1       5.926   4.364  15.972  0.00  0.00    +0.000 C 
ATOM     16  C   UNL     1       6.203   4.512  14.494  0.00  0.00    +0.000 C 
BRANCH  15  17
ATOM     17  C   UNL     1       6.615   5.273  16.868  0.00  0.00    +0.000 A 
ATOM     18  C   UNL     1       6.872   6.629  16.804  0.00  0.00    +0.000 A 
ATOM     19  C   UNL     1       7.598   6.974  17.965  0.00  0.00    +0.000 A 
ATOM     20  C   UNL     1       7.702   5.822  18.710  0.00  0.00    +0.000 A 
ATOM     21  C   UNL     1       8.292   5.532  20.032  0.00  0.00    +0.000 C 
ATOM     22  O   UNL     1       7.109   4.784  18.052  0.00  0.00    +0.000 OA
ENDBRANCH  15  17
ENDBRANCH  12  14
ENDBRANCH   1  12
TORSDOF 5
ENDMDL
MODEL 7
REMARK VINA RESULT:      -7.5      1.782      2.464
REMARK  Name = 
REMARK  8 active torsions:
REMARK  status: ('A' for Active; 'I' for Inactive)
REMARK    1  A    between atoms: C_1  and  O_2
REMARK    2  A    between atoms: O_2  and  C_3
REMARK    3  A    between atoms: C_6  and  S_7
REMARK    4  A    between atoms: S_7  and  N_10
REMARK    5  A    between atoms: N_10  and  N_11
REMARK    6  A    between atoms: C_12  and  C_13
REMARK    7  A    between atoms: C_12  and  C_14
REMARK    8  A    between atoms: C_17  and  C_18
REMARK                            x       y       z     vdW  Elec       q    Type
REMARK                         _______ _______ _______ _____ _____    ______ ____
ROOT
ATOM      1  S   UNL     1       3.238   5.788  18.482  0.00  0.00    +0.000 S 
ATOM      2  O   UNL     1       4.192   5.519  19.539  0.00  0.00    +0.000 OA
ATOM      3  O   UNL     1       2.241   4.821  18.076  0.00  0.00    +0.000 OA
ENDROOT
BRANCH   1   7
ATOM      4  C   UNL     1       0.968   9.620  19.560  0.00  0.00    +0.000 A 
ATOM      5  C   UNL     1       1.417   9.406  18.253  0.00  0.00    +0.000 A 
ATOM      6  C   UNL     1       2.107   8.238  17.919  0.00  0.00    +0.000 A 
ATOM      7  C   UNL     1       2.378   7.293  18.912  0.00  0.00    +0.000 A 
ATOM      8  C   UNL     1       1.935   7.496  20.222  0.00  0.00    +0.000 A 
ATOM      9  C   UNL     1       1.233   8.665  20.545  0.00  0.00    +0.000 A 
BRANCH   4  11
ATOM     10  C   UNL     1      -1.055  10.839  19.394  0.00  0.00    +0.000 C 
ATOM     11  O   UNL     1       0.320  10.807  19.761  0.00  0.00    +0.000 OA
ENDBRANCH   4  11
ENDBRANCH   1   7
BRANCH   1  12
ATOM     12  N   UNL     1       4.058   6.297  17.062  0.00  0.00    +0.000 N 
ATOM     13  H   UNL     1       3.397   6.843  16.497  0.00  0.00    +0.000 HD
BRANCH  12  14
ATOM     14  N   UNL     1       4.733   5.264  16.274  0.00  0.00    +0.000 NA
ATOM     15  C   UNL     1       6.035   5.204  16.326  0.00  0.00    +0.000 C 
ATOM     16  C   UNL     1       6.724   4.240  15.387  0.00  0.00    +0.000 C 
BRANCH  15  17
ATOM     17  C   UNL     1       6.878   5.968  17.225  0.00  0.00    +0.000 A 
ATOM     18  C   UNL     1       7.642   5.608  18.319  0.00  0.00    +0.000 A 
ATOM     19  C   UNL     1       8.246   6.785  18.814  0.00  0.00    +0.000 A 
ATOM     20  C   UNL     1       7.866   7.799  17.965  0.00  0.00    +0.000 A 
ATOM     21  C   UNL     1       8.198   9.236  17.909  0.00  0.00    +0.000 C 
ATOM     22  O   UNL     1       7.035   7.314  16.998  0.00  0.00    +0.000 OA
ENDBRANCH  15  17
ENDBRANCH  12  14
ENDBRANCH   1  12
TORSDOF 5
ENDMDL
MODEL 8
REMARK VINA RESULT:      -7.4      1.885      2.334
REMARK  Name = 
REMARK  8 active torsions:
REMARK  status: ('A' for Active; 'I' for Inactive)
REMARK    1  A    between atoms: C_1  and  O_2
REMARK    2  A    between atoms: O_2  and  C_3
REMARK    3  A    between atoms: C_6  and  S_7
REMARK    4  A    between atoms: S_7  and  N_10
REMARK    5  A    between atoms: N_10  and  N_11
REMARK    6  A    between atoms: C_12  and  C_13
REMARK    7  A    between atoms: C_12  and  C_14
REMARK    8  A    between atoms: C_17  and  C_18
REMARK                            x       y       z     vdW  Elec       q    Type
REMARK                         _______ _______ _______ _____ _____    ______ ____
ROOT
ATOM      1  S   UNL     1       3.290   5.973  18.304  0.00  0.00    +0.000 S 
ATOM      2  O   UNL     1       4.204   5.672  19.387  0.00  0.00    +0.000 OA
ATOM      3  O   UNL     1       2.327   5.009  17.816  0.00  0.00    +0.000 OA
ENDROOT
BRANCH   1   7
ATOM      4  C   UNL     1       1.037   9.776  19.509  0.00  0.00    +0.000 A 
ATOM      5  C   UNL     1       1.252   8.755  20.440  0.00  0.00    +0.000 A 
ATOM      6  C   UNL     1       1.940   7.595  20.077  0.00  0.00    +0.000 A 
ATOM      7  C   UNL     1       2.388   7.444  18.762  0.00  0.00    +0.000 A 
ATOM      8  C   UNL     1       2.178   8.457  17.823  0.00  0.00    +0.000 A 
ATOM      9  C   UNL     1       1.497   9.623  18.199  0.00  0.00    +0.000 A 
BRANCH   4  11
ATOM     10  C   UNL     1      -0.554  10.592  21.061  0.00  0.00    +0.000 C 
ATOM     11  O   UNL     1       0.338  10.851  19.982  0.00  0.00    +0.000 OA
ENDBRANCH   4  11
ENDBRANCH   1   7
BRANCH   1  12
ATOM     12  N   UNL     1       4.158   6.555  16.943  0.00  0.00    +0.000 N 
ATOM     13  H   UNL     1       3.517   7.133  16.386  0.00  0.00    +0.000 HD
BRANCH  12  14
ATOM     14  N   UNL     1       4.857   5.564  16.122  0.00  0.00    +0.000 NA
ATOM     15  C   UNL     1       6.157   5.497  16.214  0.00  0.00    +0.000 C 
ATOM     16  C   UNL     1       6.876   4.583  15.248  0.00  0.00    +0.000 C 
BRANCH  15  17
ATOM     17  C   UNL     1       6.971   6.209  17.181  0.00  0.00    +0.000 A 
ATOM     18  C   UNL     1       7.642   5.798  18.316  0.00  0.00    +0.000 A 
ATOM     19  C   UNL     1       8.264   6.938  18.871  0.00  0.00    +0.000 A 
ATOM     20  C   UNL     1       7.988   7.981  18.017  0.00  0.00    +0.000 A 
ATOM     21  C   UNL     1       8.386   9.403  18.009  0.00  0.00    +0.000 C 
ATOM     22  O   UNL     1       7.203   7.549  16.989  0.00  0.00    +0.000 OA
ENDBRANCH  15  17
ENDBRANCH  12  14
ENDBRANCH   1  12
TORSDOF 5
ENDMDL
MODEL 9
REMARK VINA RESULT:      -7.4      2.418      6.731
REMARK  Name = 
REMARK  8 active torsions:
REMARK  status: ('A' for Active; 'I' for Inactive)
REMARK    1  A    between atoms: C_1  and  O_2
REMARK    2  A    between atoms: O_2  and  C_3
REMARK    3  A    between atoms: C_6  and  S_7
REMARK    4  A    between atoms: S_7  and  N_10
REMARK    5  A    between atoms: N_10  and  N_11
REMARK    6  A    between atoms: C_12  and  C_13
REMARK    7  A    between atoms: C_12  and  C_14
REMARK    8  A    between atoms: C_17  and  C_18
REMARK                            x       y       z     vdW  Elec       q    Type
REMARK                         _______ _______ _______ _____ _____    ______ ____
ROOT
ATOM      1  S   UNL     1       6.742   5.459  17.813  0.00  0.00    +0.000 S 
ATOM      2  O   UNL     1       7.478   4.432  18.521  0.00  0.00    +0.000 OA
ATOM      3  O   UNL     1       7.210   6.826  17.730  0.00  0.00    +0.000 OA
ENDROOT
BRANCH   1   7
ATOM      4  C   UNL     1       6.148   3.915  13.540  0.00  0.00    +0.000 A 
ATOM      5  C   UNL     1       7.237   4.735  13.852  0.00  0.00    +0.000 A 
ATOM      6  C   UNL     1       7.423   5.206  15.154  0.00  0.00    +0.000 A 
ATOM      7  C   UNL     1       6.492   4.879  16.143  0.00  0.00    +0.000 A 
ATOM      8  C   UNL     1       5.399   4.061  15.842  0.00  0.00    +0.000 A 
ATOM      9  C   UNL     1       5.227   3.583  14.536  0.00  0.00    +0.000 A 
BRANCH   4  11
ATOM     10  C   UNL     1       4.771   3.199  11.752  0.00  0.00    +0.000 C 
ATOM     11  O   UNL     1       6.069   3.534  12.229  0.00  0.00    +0.000 OA
ENDBRANCH   4  11
ENDBRANCH   1   7
BRANCH   1  12
ATOM     12  N   UNL     1       5.118   5.512  18.367  0.00  0.00    +0.000 N 
ATOM     13  H   UNL     1       4.640   4.673  18.019  0.00  0.00    +0.000 HD
BRANCH  12  14
ATOM     14  N   UNL     1       4.357   6.732  18.092  0.00  0.00    +0.000 NA
ATOM     15  C   UNL     1       3.084   6.740  18.376  0.00  0.00    +0.000 C 
ATOM     16  C   UNL     1       2.282   7.945  17.941  0.00  0.00    +0.000 C 
BRANCH  15  17
ATOM     17  C   UNL     1       2.375   5.699  19.095  0.00  0.00    +0.000 A 
ATOM     18  C   UNL     1       1.886   5.624  20.385  0.00  0.00    +0.000 A 
ATOM     19  C   UNL     1       1.290   4.353  20.534  0.00  0.00    +0.000 A 
ATOM     20  C   UNL     1       1.395   3.732  19.310  0.00  0.00    +0.000 A 
ATOM     21  C   UNL     1       0.928   2.426  18.805  0.00  0.00    +0.000 C 
ATOM     22  O   UNL     1       2.053   4.541  18.430  0.00  0.00    +0.000 OA
ENDBRANCH  15  17
ENDBRANCH  12  14
ENDBRANCH   1  12
TORSDOF 5
ENDMDL
