MODEL 1
REMARK VINA RESULT:      -7.1      0.000      0.000
REMARK  Name = 
REMARK  11 active torsions:
REMARK  status: ('A' for Active; 'I' for Inactive)
REMARK    1  A    between atoms: C_1  and  C_2
REMARK    2  A    between atoms: C_2  and  C_4
REMARK    3  A    between atoms: C_8  and  N_9
REMARK    4  A    between atoms: N_9  and  C_21
REMARK    5  A    between atoms: C_10  and  C_12
REMARK    6  A    between atoms: C_12  and  N_13
REMARK    7  A    between atoms: C_14  and  C_16
REMARK    8  A    between atoms: C_21  and  C_22
REMARK    9  A    between atoms: C_21  and  C_30
REMARK   10  A    between atoms: N_24  and  C_25
REMARK   11  A    between atoms: C_33  and  C_34
REMARK                            x       y       z     vdW  Elec       q    Type
REMARK                         _______ _______ _______ _____ _____    ______ ____
ROOT
ATOM      1  N   UNL     1       0.172  10.884  20.283  0.00  0.00    +0.000 N 
ATOM      2  C   UNL     1       0.359   9.584  20.736  0.00  0.00    +0.000 C 
ATOM      3  O   UNL     1      -0.573   8.922  21.212  0.00  0.00    +0.000 OA
ENDROOT
BRANCH   1   8
ATOM      4  C   UNL     1       2.615  13.679  20.355  0.00  0.00    +0.000 A 
ATOM      5  C   UNL     1       2.985  13.732  19.005  0.00  0.00    +0.000 A 
ATOM      6  C   UNL     1       2.494  12.789  18.100  0.00  0.00    +0.000 A 
ATOM      7  C   UNL     1       1.603  11.804  18.532  0.00  0.00    +0.000 A 
ATOM      8  C   UNL     1       1.222  11.746  19.874  0.00  0.00    +0.000 A 
ATOM      9  C   UNL     1       1.760  12.659  20.793  0.00  0.00    +0.000 A 
BRANCH   4  11
ATOM     10  C   UNL     1       3.490  16.098  20.655  0.00  0.00    +0.000 C 
ATOM     11  C   UNL     1       3.081  14.779  21.254  0.00  0.00    +0.000 C 
ATOM     12  O   UNL     1       3.134  14.593  22.469  0.00  0.00    +0.000 OA
ENDBRANCH   4  11
ENDBRANCH   1   8
BRANCH   2  13
ATOM     13  C   UNL     1       1.764   8.989  20.742  0.00  0.00    +0.000 C 
BRANCH  13  14
ATOM     14  N   UNL     1       1.710   7.543  20.735  0.00  0.00    +0.000 N 
ATOM     15  C   UNL     1       2.260   6.822  19.697  0.00  0.00    +0.000 C 
ATOM     16  O   UNL     1       2.908   7.356  18.800  0.00  0.00    +0.000 OA
ATOM     17  H   UNL     1       1.056   7.060  21.346  0.00  0.00    +0.000 HD
BRANCH  15  18
ATOM     18  C   UNL     1       2.004   5.399  19.754  0.00  0.00    +0.000 A 
ATOM     19  C   UNL     1       1.257   4.652  20.645  0.00  0.00    +0.000 A 
ATOM     20  C   UNL     1       1.336   3.306  20.216  0.00  0.00    +0.000 A 
ATOM     21  C   UNL     1       2.134   3.308  19.098  0.00  0.00    +0.000 A 
ATOM     22  O   UNL     1       2.545   4.569  18.804  0.00  0.00    +0.000 OA
ENDBRANCH  15  18
ENDBRANCH  13  14
ENDBRANCH   2  13
BRANCH   1  23
ATOM     23  C   UNL     1      -1.221  11.377  20.187  0.00  0.00    +0.000 C 
BRANCH  23  24
ATOM     24  C   UNL     1      -1.814  10.987  18.857  0.00  0.00    +0.000 A 
ATOM     25  C   UNL     1      -1.367  10.159  17.846  0.00  0.00    +0.000 A 
ATOM     26  C   UNL     1      -2.336  10.213  16.818  0.00  0.00    +0.000 A 
ATOM     27  C   UNL     1      -3.318  11.077  17.257  0.00  0.00    +0.000 A 
ATOM     28  C   UNL     1      -4.562  11.594  16.652  0.00  0.00    +0.000 C 
ATOM     29  O   UNL     1      -3.022  11.525  18.508  0.00  0.00    +0.000 OA
ENDBRANCH  23  24
BRANCH  23  30
ATOM     30  C   UNL     1      -1.467  12.875  20.531  0.00  0.00    +0.000 C 
ATOM     31  O   UNL     1      -1.870  13.203  21.652  0.00  0.00    +0.000 OA
ATOM     32  N   UNL     1      -1.124  13.819  19.584  0.00  0.00    +0.000 N 
ATOM     33  H   UNL     1      -0.931  13.508  18.638  0.00  0.00    +0.000 HD
BRANCH  32  34
ATOM     34  C   UNL     1      -1.162  15.248  19.837  0.00  0.00    +0.000 C 
ATOM     35  C   UNL     1      -0.452  15.643  21.130  0.00  0.00    +0.000 C 
ATOM     36  C   UNL     1      -0.106  17.111  20.950  0.00  0.00    +0.000 C 
ATOM     37  C   UNL     1       0.037  17.328  19.448  0.00  0.00    +0.000 C 
ATOM     38  C   UNL     1      -0.375  16.021  18.780  0.00  0.00    +0.000 C 
ENDBRANCH  32  34
ENDBRANCH  23  30
ENDBRANCH   1  23
TORSDOF 9
ENDMDL
MODEL 2
REMARK VINA RESULT:      -6.9      1.580      2.070
REMARK  Name = 
REMARK  11 active torsions:
REMARK  status: ('A' for Active; 'I' for Inactive)
REMARK    1  A    between atoms: C_1  and  C_2
REMARK    2  A    between atoms: C_2  and  C_4
REMARK    3  A    between atoms: C_8  and  N_9
REMARK    4  A    between atoms: N_9  and  C_21
REMARK    5  A    between atoms: C_10  and  C_12
REMARK    6  A    between atoms: C_12  and  N_13
REMARK    7  A    between atoms: C_14  and  C_16
REMARK    8  A    between atoms: C_21  and  C_22
REMARK    9  A    between atoms: C_21  and  C_30
REMARK   10  A    between atoms: N_24  and  C_25
REMARK   11  A    between atoms: C_33  and  C_34
REMARK                            x       y       z     vdW  Elec       q    Type
REMARK                         _______ _______ _______ _____ _____    ______ ____
ROOT
ATOM      1  N   UNL     1       0.127  10.626  20.315  0.00  0.00    +0.000 N 
ATOM      2  C   UNL     1       0.366   9.319  20.720  0.00  0.00    +0.000 C 
ATOM      3  O   UNL     1      -0.529   8.618  21.213  0.00  0.00    +0.000 OA
ENDROOT
BRANCH   1   8
ATOM      4  C   UNL     1       2.397  13.565  20.304  0.00  0.00    +0.000 A 
ATOM      5  C   UNL     1       2.808  13.567  18.965  0.00  0.00    +0.000 A 
ATOM      6  C   UNL     1       2.404  12.548  18.100  0.00  0.00    +0.000 A 
ATOM      7  C   UNL     1       1.559  11.536  18.560  0.00  0.00    +0.000 A 
ATOM      8  C   UNL     1       1.137  11.527  19.891  0.00  0.00    +0.000 A 
ATOM      9  C   UNL     1       1.589  12.519  20.773  0.00  0.00    +0.000 A 
BRANCH   4  11
ATOM     10  C   UNL     1       3.316  15.977  20.502  0.00  0.00    +0.000 C 
ATOM     11  C   UNL     1       2.766  14.738  21.155  0.00  0.00    +0.000 C 
ATOM     12  O   UNL     1       2.625  14.676  22.375  0.00  0.00    +0.000 OA
ENDBRANCH   4  11
ENDBRANCH   1   8
BRANCH   2  13
ATOM     13  C   UNL     1       1.784   8.761  20.652  0.00  0.00    +0.000 C 
BRANCH  13  14
ATOM     14  N   UNL     1       1.775   7.318  20.753  0.00  0.00    +0.000 N 
ATOM     15  C   UNL     1       2.322   6.537  19.757  0.00  0.00    +0.000 C 
ATOM     16  O   UNL     1       2.930   7.022  18.805  0.00  0.00    +0.000 OA
ATOM     17  H   UNL     1       1.152   6.863  21.415  0.00  0.00    +0.000 HD
BRANCH  15  18
ATOM     18  C   UNL     1       2.111   5.116  19.925  0.00  0.00    +0.000 A 
ATOM     19  C   UNL     1       2.822   4.035  19.439  0.00  0.00    +0.000 A 
ATOM     20  C   UNL     1       2.182   2.872  19.927  0.00  0.00    +0.000 A 
ATOM     21  C   UNL     1       1.112   3.309  20.670  0.00  0.00    +0.000 A 
ATOM     22  O   UNL     1       1.057   4.666  20.680  0.00  0.00    +0.000 OA
ENDBRANCH  15  18
ENDBRANCH  13  14
ENDBRANCH   2  13
BRANCH   1  23
ATOM     23  C   UNL     1      -1.281  11.084  20.289  0.00  0.00    +0.000 C 
BRANCH  23  24
ATOM     24  C   UNL     1      -1.865  10.876  18.915  0.00  0.00    +0.000 A 
ATOM     25  C   UNL     1      -1.390  10.231  17.790  0.00  0.00    +0.000 A 
ATOM     26  C   UNL     1      -2.367  10.400  16.783  0.00  0.00    +0.000 A 
ATOM     27  C   UNL     1      -3.381  11.144  17.347  0.00  0.00    +0.000 A 
ATOM     28  C   UNL     1      -4.650  11.694  16.828  0.00  0.00    +0.000 C 
ATOM     29  O   UNL     1      -3.097  11.408  18.652  0.00  0.00    +0.000 OA
ENDBRANCH  23  24
BRANCH  23  30
ATOM     30  C   UNL     1      -1.572  12.506  20.851  0.00  0.00    +0.000 C 
ATOM     31  O   UNL     1      -1.645  13.478  20.092  0.00  0.00    +0.000 OA
ATOM     32  N   UNL     1      -1.842  12.624  22.200  0.00  0.00    +0.000 N 
ATOM     33  H   UNL     1      -1.636  11.837  22.805  0.00  0.00    +0.000 HD
BRANCH  32  34
ATOM     34  C   UNL     1      -2.274  13.864  22.818  0.00  0.00    +0.000 C 
ATOM     35  C   UNL     1      -3.474  13.682  23.743  0.00  0.00    +0.000 C 
ATOM     36  C   UNL     1      -3.426  14.875  24.682  0.00  0.00    +0.000 C 
ATOM     37  C   UNL     1      -1.958  15.283  24.769  0.00  0.00    +0.000 C 
ATOM     38  C   UNL     1      -1.208  14.415  23.765  0.00  0.00    +0.000 C 
ENDBRANCH  32  34
ENDBRANCH  23  30
ENDBRANCH   1  23
TORSDOF 9
ENDMDL
MODEL 3
REMARK VINA RESULT:      -6.7      4.279      9.762
REMARK  Name = 
REMARK  11 active torsions:
REMARK  status: ('A' for Active; 'I' for Inactive)
REMARK    1  A    between atoms: C_1  and  C_2
REMARK    2  A    between atoms: C_2  and  C_4
REMARK    3  A    between atoms: C_8  and  N_9
REMARK    4  A    between atoms: N_9  and  C_21
REMARK    5  A    between atoms: C_10  and  C_12
REMARK    6  A    between atoms: C_12  and  N_13
REMARK    7  A    between atoms: C_14  and  C_16
REMARK    8  A    between atoms: C_21  and  C_22
REMARK    9  A    between atoms: C_21  and  C_30
REMARK   10  A    between atoms: N_24  and  C_25
REMARK   11  A    between atoms: C_33  and  C_34
REMARK                            x       y       z     vdW  Elec       q    Type
REMARK                         _______ _______ _______ _____ _____    ______ ____
ROOT
ATOM      1  N   UNL     1       3.646   5.643  17.987  0.00  0.00    +0.000 N 
ATOM      2  C   UNL     1       2.557   6.469  18.234  0.00  0.00    +0.000 C 
ATOM      3  O   UNL     1       1.465   6.287  17.679  0.00  0.00    +0.000 OA
ENDROOT
BRANCH   1   8
ATOM      4  C   UNL     1       7.094   7.009  18.163  0.00  0.00    +0.000 A 
ATOM      5  C   UNL     1       7.673   6.128  19.086  0.00  0.00    +0.000 A 
ATOM      6  C   UNL     1       6.898   5.149  19.709  0.00  0.00    +0.000 A 
ATOM      7  C   UNL     1       5.545   5.021  19.390  0.00  0.00    +0.000 A 
ATOM      8  C   UNL     1       4.959   5.888  18.465  0.00  0.00    +0.000 A 
ATOM      9  C   UNL     1       5.725   6.909  17.882  0.00  0.00    +0.000 A 
BRANCH   4  11
ATOM     10  C   UNL     1       8.333   9.282  18.084  0.00  0.00    +0.000 C 
ATOM     11  C   UNL     1       7.994   7.963  17.444  0.00  0.00    +0.000 C 
ATOM     12  O   UNL     1       8.439   7.665  16.336  0.00  0.00    +0.000 OA
ENDBRANCH   4  11
ENDBRANCH   1   8
BRANCH   2  13
ATOM     13  C   UNL     1       2.732   7.691  19.132  0.00  0.00    +0.000 C 
BRANCH  13  14
ATOM     14  N   UNL     1       1.732   8.693  18.838  0.00  0.00    +0.000 N 
ATOM     15  C   UNL     1       0.971   9.248  19.845  0.00  0.00    +0.000 C 
ATOM     16  O   UNL     1       1.180   9.003  21.032  0.00  0.00    +0.000 OA
ATOM     17  H   UNL     1       1.401   8.811  17.884  0.00  0.00    +0.000 HD
BRANCH  15  18
ATOM     18  C   UNL     1      -0.083  10.125  19.387  0.00  0.00    +0.000 A 
ATOM     19  C   UNL     1      -0.753  10.176  18.180  0.00  0.00    +0.000 A 
ATOM     20  C   UNL     1      -1.701  11.221  18.282  0.00  0.00    +0.000 A 
ATOM     21  C   UNL     1      -1.546  11.756  19.538  0.00  0.00    +0.000 A 
ATOM     22  O   UNL     1      -0.571  11.101  20.221  0.00  0.00    +0.000 OA
ENDBRANCH  15  18
ENDBRANCH  13  14
ENDBRANCH   2  13
BRANCH   1  23
ATOM     23  C   UNL     1       3.401   4.409  17.206  0.00  0.00    +0.000 C 
BRANCH  23  24
ATOM     24  C   UNL     1       2.724   3.378  18.073  0.00  0.00    +0.000 A 
ATOM     25  C   UNL     1       2.145   2.157  17.786  0.00  0.00    +0.000 A 
ATOM     26  C   UNL     1       1.633   1.655  19.004  0.00  0.00    +0.000 A 
ATOM     27  C   UNL     1       1.922   2.600  19.965  0.00  0.00    +0.000 A 
ATOM     28  C   UNL     1       1.628   2.707  21.408  0.00  0.00    +0.000 C 
ATOM     29  O   UNL     1       2.613   3.635  19.411  0.00  0.00    +0.000 OA
ENDBRANCH  23  24
BRANCH  23  30
ATOM     30  C   UNL     1       4.605   3.823  16.413  0.00  0.00    +0.000 C 
ATOM     31  O   UNL     1       5.107   2.743  16.741  0.00  0.00    +0.000 OA
ATOM     32  N   UNL     1       5.022   4.496  15.282  0.00  0.00    +0.000 N 
ATOM     33  H   UNL     1       4.682   5.440  15.128  0.00  0.00    +0.000 HD
BRANCH  32  34
ATOM     34  C   UNL     1       6.029   3.979  14.376  0.00  0.00    +0.000 C 
ATOM     35  C   UNL     1       5.458   3.571  13.019  0.00  0.00    +0.000 C 
ATOM     36  C   UNL     1       6.645   3.603  12.072  0.00  0.00    +0.000 C 
ATOM     37  C   UNL     1       7.617   4.627  12.650  0.00  0.00    +0.000 C 
ATOM     38  C   UNL     1       7.043   5.057  13.995  0.00  0.00    +0.000 C 
ENDBRANCH  32  34
ENDBRANCH  23  30
ENDBRANCH   1  23
TORSDOF 9
ENDMDL
MODEL 4
REMARK VINA RESULT:      -6.6      1.712      2.209
REMARK  Name = 
REMARK  11 active torsions:
REMARK  status: ('A' for Active; 'I' for Inactive)
REMARK    1  A    between atoms: C_1  and  C_2
REMARK    2  A    between atoms: C_2  and  C_4
REMARK    3  A    between atoms: C_8  and  N_9
REMARK    4  A    between atoms: N_9  and  C_21
REMARK    5  A    between atoms: C_10  and  C_12
REMARK    6  A    between atoms: C_12  and  N_13
REMARK    7  A    between atoms: C_14  and  C_16
REMARK    8  A    between atoms: C_21  and  C_22
REMARK    9  A    between atoms: C_21  and  C_30
REMARK   10  A    between atoms: N_24  and  C_25
REMARK   11  A    between atoms: C_33  and  C_34
REMARK                            x       y       z     vdW  Elec       q    Type
REMARK                         _______ _______ _______ _____ _____    ______ ____
ROOT
ATOM      1  N   UNL     1       0.145  10.516  20.266  0.00  0.00    +0.000 N 
ATOM      2  C   UNL     1       0.394   9.226  20.718  0.00  0.00    +0.000 C 
ATOM      3  O   UNL     1      -0.506   8.519  21.190  0.00  0.00    +0.000 OA
ENDROOT
BRANCH   1   8
ATOM      4  C   UNL     1       2.366  13.491  20.287  0.00  0.00    +0.000 A 
ATOM      5  C   UNL     1       2.817  13.484  18.961  0.00  0.00    +0.000 A 
ATOM      6  C   UNL     1       2.457  12.449  18.097  0.00  0.00    +0.000 A 
ATOM      7  C   UNL     1       1.615  11.429  18.543  0.00  0.00    +0.000 A 
ATOM      8  C   UNL     1       1.153  11.428  19.861  0.00  0.00    +0.000 A 
ATOM      9  C   UNL     1       1.562  12.438  20.744  0.00  0.00    +0.000 A 
BRANCH   4  11
ATOM     10  C   UNL     1       3.298  15.899  20.491  0.00  0.00    +0.000 C 
ATOM     11  C   UNL     1       2.690  14.680  21.133  0.00  0.00    +0.000 C 
ATOM     12  O   UNL     1       2.467  14.648  22.343  0.00  0.00    +0.000 OA
ENDBRANCH   4  11
ENDBRANCH   1   8
BRANCH   2  13
ATOM     13  C   UNL     1       1.827   8.700  20.728  0.00  0.00    +0.000 C 
BRANCH  13  14
ATOM     14  N   UNL     1       2.009   7.686  19.713  0.00  0.00    +0.000 N 
ATOM     15  C   UNL     1       2.045   6.349  20.049  0.00  0.00    +0.000 C 
ATOM     16  O   UNL     1       1.816   5.956  21.191  0.00  0.00    +0.000 OA
ATOM     17  H   UNL     1       2.366   7.947  18.797  0.00  0.00    +0.000 HD
BRANCH  15  18
ATOM     18  C   UNL     1       2.378   5.464  18.955  0.00  0.00    +0.000 A 
ATOM     19  C   UNL     1       1.642   4.465  18.347  0.00  0.00    +0.000 A 
ATOM     20  C   UNL     1       2.451   3.931  17.317  0.00  0.00    +0.000 A 
ATOM     21  C   UNL     1       3.637   4.624  17.364  0.00  0.00    +0.000 A 
ATOM     22  O   UNL     1       3.606   5.558  18.350  0.00  0.00    +0.000 OA
ENDBRANCH  15  18
ENDBRANCH  13  14
ENDBRANCH   2  13
BRANCH   1  23
ATOM     23  C   UNL     1      -1.271  10.940  20.165  0.00  0.00    +0.000 C 
BRANCH  23  24
ATOM     24  C   UNL     1      -1.791  10.671  18.776  0.00  0.00    +0.000 A 
ATOM     25  C   UNL     1      -1.251  10.005  17.693  0.00  0.00    +0.000 A 
ATOM     26  C   UNL     1      -2.190  10.113  16.642  0.00  0.00    +0.000 A 
ATOM     27  C   UNL     1      -3.247  10.844  17.140  0.00  0.00    +0.000 A 
ATOM     28  C   UNL     1      -4.508  11.339  16.552  0.00  0.00    +0.000 C 
ATOM     29  O   UNL     1      -3.025  11.158  18.446  0.00  0.00    +0.000 OA
ENDBRANCH  23  24
BRANCH  23  30
ATOM     30  C   UNL     1      -1.615  12.373  20.663  0.00  0.00    +0.000 C 
ATOM     31  O   UNL     1      -1.782  13.295  19.858  0.00  0.00    +0.000 OA
ATOM     32  N   UNL     1      -1.826  12.554  22.016  0.00  0.00    +0.000 N 
ATOM     33  H   UNL     1      -1.544  11.814  22.652  0.00  0.00    +0.000 HD
BRANCH  32  34
ATOM     34  C   UNL     1      -2.298  13.801  22.587  0.00  0.00    +0.000 C 
ATOM     35  C   UNL     1      -3.689  13.684  23.205  0.00  0.00    +0.000 C 
ATOM     36  C   UNL     1      -3.773  14.833  24.195  0.00  0.00    +0.000 C 
ATOM     37  C   UNL     1      -2.339  15.114  24.635  0.00  0.00    +0.000 C 
ATOM     38  C   UNL     1      -1.442  14.226  23.780  0.00  0.00    +0.000 C 
ENDBRANCH  32  34
ENDBRANCH  23  30
ENDBRANCH   1  23
TORSDOF 9
ENDMDL
MODEL 5
REMARK VINA RESULT:      -6.6      2.180      4.509
REMARK  Name = 
REMARK  11 active torsions:
REMARK  status: ('A' for Active; 'I' for Inactive)
REMARK    1  A    between atoms: C_1  and  C_2
REMARK    2  A    between atoms: C_2  and  C_4
REMARK    3  A    between atoms: C_8  and  N_9
REMARK    4  A    between atoms: N_9  and  C_21
REMARK    5  A    between atoms: C_10  and  C_12
REMARK    6  A    between atoms: C_12  and  N_13
REMARK    7  A    between atoms: C_14  and  C_16
REMARK    8  A    between atoms: C_21  and  C_22
REMARK    9  A    between atoms: C_21  and  C_30
REMARK   10  A    between atoms: N_24  and  C_25
REMARK   11  A    between atoms: C_33  and  C_34
REMARK                            x       y       z     vdW  Elec       q    Type
REMARK                         _______ _______ _______ _____ _____    ______ ____
ROOT
ATOM      1  N   UNL     1       0.033  10.124  19.162  0.00  0.00    +0.000 N 
ATOM      2  C   UNL     1       1.103   9.419  18.626  0.00  0.00    +0.000 C 
ATOM      3  O   UNL     1       1.324   9.401  17.407  0.00  0.00    +0.000 OA
ENDROOT
BRANCH   1   8
ATOM      4  C   UNL     1      -1.106  11.231  22.518  0.00  0.00    +0.000 A 
ATOM      5  C   UNL     1      -0.774  10.107  23.286  0.00  0.00    +0.000 A 
ATOM      6  C   UNL     1      -0.261   8.961  22.676  0.00  0.00    +0.000 A 
ATOM      7  C   UNL     1      -0.045   8.942  21.297  0.00  0.00    +0.000 A 
ATOM      8  C   UNL     1      -0.365  10.058  20.522  0.00  0.00    +0.000 A 
ATOM      9  C   UNL     1      -0.934  11.189  21.128  0.00  0.00    +0.000 A 
BRANCH   4  11
ATOM     10  C   UNL     1      -2.993  12.627  23.613  0.00  0.00    +0.000 C 
ATOM     11  C   UNL     1      -1.544  12.467  23.236  0.00  0.00    +0.000 C 
ATOM     12  O   UNL     1      -0.722  13.343  23.503  0.00  0.00    +0.000 OA
ENDBRANCH   4  11
ENDBRANCH   1   8
BRANCH   2  13
ATOM     13  C   UNL     1       1.971   8.562  19.544  0.00  0.00    +0.000 C 
BRANCH  13  14
ATOM     14  N   UNL     1       2.372   7.341  18.881  0.00  0.00    +0.000 N 
ATOM     15  C   UNL     1       2.317   6.131  19.539  0.00  0.00    +0.000 C 
ATOM     16  O   UNL     1       1.828   6.018  20.661  0.00  0.00    +0.000 OA
ATOM     17  H   UNL     1       2.932   7.388  18.034  0.00  0.00    +0.000 HD
BRANCH  15  18
ATOM     18  C   UNL     1       2.885   5.022  18.803  0.00  0.00    +0.000 A 
ATOM     19  C   UNL     1       4.069   4.333  18.982  0.00  0.00    +0.000 A 
ATOM     20  C   UNL     1       4.112   3.330  17.985  0.00  0.00    +0.000 A 
ATOM     21  C   UNL     1       2.961   3.473  17.249  0.00  0.00    +0.000 A 
ATOM     22  O   UNL     1       2.206   4.493  17.734  0.00  0.00    +0.000 OA
ENDBRANCH  15  18
ENDBRANCH  13  14
ENDBRANCH   2  13
BRANCH   1  23
ATOM     23  C   UNL     1      -0.707  11.031  18.255  0.00  0.00    +0.000 C 
BRANCH  23  24
ATOM     24  C   UNL     1      -0.383  12.465  18.584  0.00  0.00    +0.000 A 
ATOM     25  C   UNL     1       0.719  13.254  18.317  0.00  0.00    +0.000 A 
ATOM     26  C   UNL     1       0.470  14.512  18.913  0.00  0.00    +0.000 A 
ATOM     27  C   UNL     1      -0.766  14.419  19.515  0.00  0.00    +0.000 A 
ATOM     28  C   UNL     1      -1.575  15.348  20.329  0.00  0.00    +0.000 C 
ATOM     29  O   UNL     1      -1.304  13.187  19.291  0.00  0.00    +0.000 OA
ENDBRANCH  23  24
BRANCH  23  30
ATOM     30  C   UNL     1      -2.237  10.785  18.104  0.00  0.00    +0.000 C 
ATOM     31  O   UNL     1      -2.671   9.654  17.864  0.00  0.00    +0.000 OA
ATOM     32  N   UNL     1      -3.088  11.846  18.346  0.00  0.00    +0.000 N 
ATOM     33  H   UNL     1      -2.693  12.779  18.400  0.00  0.00    +0.000 HD
BRANCH  32  34
ATOM     34  C   UNL     1      -4.532  11.713  18.386  0.00  0.00    +0.000 C 
ATOM     35  C   UNL     1      -5.194  12.695  19.350  0.00  0.00    +0.000 C 
ATOM     36  C   UNL     1      -6.629  12.807  18.865  0.00  0.00    +0.000 C 
ATOM     37  C   UNL     1      -6.592  12.512  17.369  0.00  0.00    +0.000 C 
ATOM     38  C   UNL     1      -5.163  12.089  17.046  0.00  0.00    +0.000 C 
ENDBRANCH  32  34
ENDBRANCH  23  30
ENDBRANCH   1  23
TORSDOF 9
ENDMDL
MODEL 6
REMARK VINA RESULT:      -6.5      1.792      2.300
REMARK  Name = 
REMARK  11 active torsions:
REMARK  status: ('A' for Active; 'I' for Inactive)
REMARK    1  A    between atoms: C_1  and  C_2
REMARK    2  A    between atoms: C_2  and  C_4
REMARK    3  A    between atoms: C_8  and  N_9
REMARK    4  A    between atoms: N_9  and  C_21
REMARK    5  A    between atoms: C_10  and  C_12
REMARK    6  A    between atoms: C_12  and  N_13
REMARK    7  A    between atoms: C_14  and  C_16
REMARK    8  A    between atoms: C_21  and  C_22
REMARK    9  A    between atoms: C_21  and  C_30
REMARK   10  A    between atoms: N_24  and  C_25
REMARK   11  A    between atoms: C_33  and  C_34
REMARK                            x       y       z     vdW  Elec       q    Type
REMARK                         _______ _______ _______ _____ _____    ______ ____
ROOT
ATOM      1  N   UNL     1       0.052  10.990  20.453  0.00  0.00    +0.000 N 
ATOM      2  C   UNL     1       0.236   9.643  20.741  0.00  0.00    +0.000 C 
ATOM      3  O   UNL     1      -0.649   8.969  21.285  0.00  0.00    +0.000 OA
ENDROOT
BRANCH   1   8
ATOM      4  C   UNL     1       2.663  13.629  20.446  0.00  0.00    +0.000 A 
ATOM      5  C   UNL     1       2.795  13.857  19.070  0.00  0.00    +0.000 A 
ATOM      6  C   UNL     1       2.088  13.076  18.154  0.00  0.00    +0.000 A 
ATOM      7  C   UNL     1       1.218  12.082  18.608  0.00  0.00    +0.000 A 
ATOM      8  C   UNL     1       1.073  11.851  19.977  0.00  0.00    +0.000 A 
ATOM      9  C   UNL     1       1.827  12.598  20.895  0.00  0.00    +0.000 A 
BRANCH   4  11
ATOM     10  C   UNL     1       4.619  15.254  20.938  0.00  0.00    +0.000 C 
ATOM     11  C   UNL     1       3.355  14.567  21.383  0.00  0.00    +0.000 C 
ATOM     12  O   UNL     1       2.892  14.761  22.505  0.00  0.00    +0.000 OA
ENDBRANCH   4  11
ENDBRANCH   1   8
BRANCH   2  13
ATOM     13  C   UNL     1       1.594   9.000  20.475  0.00  0.00    +0.000 C 
BRANCH  13  14
ATOM     14  N   UNL     1       1.580   7.600  20.837  0.00  0.00    +0.000 N 
ATOM     15  C   UNL     1       2.045   6.640  19.963  0.00  0.00    +0.000 C 
ATOM     16  O   UNL     1       2.587   6.932  18.899  0.00  0.00    +0.000 OA
ATOM     17  H   UNL     1       1.002   7.285  21.612  0.00  0.00    +0.000 HD
BRANCH  15  18
ATOM     18  C   UNL     1       1.835   5.278  20.400  0.00  0.00    +0.000 A 
ATOM     19  C   UNL     1       1.023   4.282  19.891  0.00  0.00    +0.000 A 
ATOM     20  C   UNL     1       1.222   3.139  20.700  0.00  0.00    +0.000 A 
ATOM     21  C   UNL     1       2.131   3.506  21.663  0.00  0.00    +0.000 A 
ATOM     22  O   UNL     1       2.514   4.798  21.493  0.00  0.00    +0.000 OA
ENDBRANCH  15  18
ENDBRANCH  13  14
ENDBRANCH   2  13
BRANCH   1  23
ATOM     23  C   UNL     1      -1.313  11.540  20.618  0.00  0.00    +0.000 C 
BRANCH  23  24
ATOM     24  C   UNL     1      -2.078  11.416  19.325  0.00  0.00    +0.000 A 
ATOM     25  C   UNL     1      -3.232  12.020  18.866  0.00  0.00    +0.000 A 
ATOM     26  C   UNL     1      -3.493  11.476  17.587  0.00  0.00    +0.000 A 
ATOM     27  C   UNL     1      -2.487  10.566  17.341  0.00  0.00    +0.000 A 
ATOM     28  C   UNL     1      -2.204   9.640  16.226  0.00  0.00    +0.000 C 
ATOM     29  O   UNL     1      -1.607  10.548  18.380  0.00  0.00    +0.000 OA
ENDBRANCH  23  24
BRANCH  23  30
ATOM     30  C   UNL     1      -1.432  12.959  21.247  0.00  0.00    +0.000 C 
ATOM     31  O   UNL     1      -1.210  13.967  20.568  0.00  0.00    +0.000 OA
ATOM     32  N   UNL     1      -1.887  13.053  22.547  0.00  0.00    +0.000 N 
ATOM     33  H   UNL     1      -1.922  12.209  23.109  0.00  0.00    +0.000 HD
BRANCH  32  34
ATOM     34  C   UNL     1      -2.183  14.316  23.196  0.00  0.00    +0.000 C 
ATOM     35  C   UNL     1      -3.422  14.253  24.086  0.00  0.00    +0.000 C 
ATOM     36  C   UNL     1      -3.257  15.402  25.065  0.00  0.00    +0.000 C 
ATOM     37  C   UNL     1      -1.755  15.626  25.200  0.00  0.00    +0.000 C 
ATOM     38  C   UNL     1      -1.086  14.705  24.186  0.00  0.00    +0.000 C 
ENDBRANCH  32  34
ENDBRANCH  23  30
ENDBRANCH   1  23
TORSDOF 9
ENDMDL
MODEL 7
REMARK VINA RESULT:      -6.5      4.569     10.836
REMARK  Name = 
REMARK  11 active torsions:
REMARK  status: ('A' for Active; 'I' for Inactive)
REMARK    1  A    between atoms: C_1  and  C_2
REMARK    2  A    between atoms: C_2  and  C_4
REMARK    3  A    between atoms: C_8  and  N_9
REMARK    4  A    between atoms: N_9  and  C_21
REMARK    5  A    between atoms: C_10  and  C_12
REMARK    6  A    between atoms: C_12  and  N_13
REMARK    7  A    between atoms: C_14  and  C_16
REMARK    8  A    between atoms: C_21  and  C_22
REMARK    9  A    between atoms: C_21  and  C_30
REMARK   10  A    between atoms: N_24  and  C_25
REMARK   11  A    between atoms: C_33  and  C_34
REMARK                            x       y       z     vdW  Elec       q    Type
REMARK                         _______ _______ _______ _____ _____    ______ ____
ROOT
ATOM      1  N   UNL     1       4.214   5.376  17.511  0.00  0.00    +0.000 N 
ATOM      2  C   UNL     1       3.862   6.718  17.452  0.00  0.00    +0.000 C 
ATOM      3  O   UNL     1       4.689   7.594  17.166  0.00  0.00    +0.000 OA
ENDROOT
BRANCH   1   8
ATOM      4  C   UNL     1       2.626   2.953  19.835  0.00  0.00    +0.000 A 
ATOM      5  C   UNL     1       2.024   2.078  18.921  0.00  0.00    +0.000 A 
ATOM      6  C   UNL     1       2.071   2.344  17.552  0.00  0.00    +0.000 A 
ATOM      7  C   UNL     1       2.749   3.471  17.082  0.00  0.00    +0.000 A 
ATOM      8  C   UNL     1       3.359   4.347  17.982  0.00  0.00    +0.000 A 
ATOM      9  C   UNL     1       3.263   4.109  19.361  0.00  0.00    +0.000 A 
BRANCH   4  11
ATOM     10  C   UNL     1       1.385   2.700  22.093  0.00  0.00    +0.000 C 
ATOM     11  C   UNL     1       2.642   2.561  21.277  0.00  0.00    +0.000 C 
ATOM     12  O   UNL     1       3.681   2.138  21.783  0.00  0.00    +0.000 OA
ENDBRANCH   4  11
ENDBRANCH   1   8
BRANCH   2  13
ATOM     13  C   UNL     1       2.449   7.140  17.846  0.00  0.00    +0.000 C 
BRANCH  13  14
ATOM     14  N   UNL     1       2.439   8.495  18.353  0.00  0.00    +0.000 N 
ATOM     15  C   UNL     1       1.416   9.361  18.032  0.00  0.00    +0.000 C 
ATOM     16  O   UNL     1       0.425   8.997  17.402  0.00  0.00    +0.000 OA
ATOM     17  H   UNL     1       3.293   8.899  18.729  0.00  0.00    +0.000 HD
BRANCH  15  18
ATOM     18  C   UNL     1       1.613  10.718  18.489  0.00  0.00    +0.000 A 
ATOM     19  C   UNL     1       1.028  11.414  19.530  0.00  0.00    +0.000 A 
ATOM     20  C   UNL     1       1.606  12.705  19.535  0.00  0.00    +0.000 A 
ATOM     21  C   UNL     1       2.498  12.728  18.491  0.00  0.00    +0.000 A 
ATOM     22  O   UNL     1       2.516  11.531  17.849  0.00  0.00    +0.000 OA
ENDBRANCH  15  18
ENDBRANCH  13  14
ENDBRANCH   2  13
BRANCH   1  23
ATOM     23  C   UNL     1       5.556   5.001  17.009  0.00  0.00    +0.000 C 
BRANCH  23  24
ATOM     24  C   UNL     1       6.621   5.693  17.821  0.00  0.00    +0.000 A 
ATOM     25  C   UNL     1       7.301   5.327  18.966  0.00  0.00    +0.000 A 
ATOM     26  C   UNL     1       8.157   6.405  19.290  0.00  0.00    +0.000 A 
ATOM     27  C   UNL     1       7.947   7.370  18.329  0.00  0.00    +0.000 A 
ATOM     28  C   UNL     1       8.483   8.730  18.118  0.00  0.00    +0.000 C 
ATOM     29  O   UNL     1       7.038   6.930  17.415  0.00  0.00    +0.000 OA
ENDBRANCH  23  24
BRANCH  23  30
ATOM     30  C   UNL     1       5.798   5.130  15.477  0.00  0.00    +0.000 C 
ATOM     31  O   UNL     1       6.571   5.985  15.033  0.00  0.00    +0.000 OA
ATOM     32  N   UNL     1       5.202   4.199  14.649  0.00  0.00    +0.000 N 
ATOM     33  H   UNL     1       4.472   3.609  15.032  0.00  0.00    +0.000 HD
BRANCH  32  34
ATOM     34  C   UNL     1       5.467   4.118  13.225  0.00  0.00    +0.000 C 
ATOM     35  C   UNL     1       6.774   3.396  12.902  0.00  0.00    +0.000 C 
ATOM     36  C   UNL     1       6.612   2.923  11.468  0.00  0.00    +0.000 C 
ATOM     37  C   UNL     1       5.114   2.739  11.252  0.00  0.00    +0.000 C 
ATOM     38  C   UNL     1       4.428   3.252  12.513  0.00  0.00    +0.000 C 
ENDBRANCH  32  34
ENDBRANCH  23  30
ENDBRANCH   1  23
TORSDOF 9
ENDMDL
MODEL 8
REMARK VINA RESULT:      -6.5      2.213      5.280
REMARK  Name = 
REMARK  11 active torsions:
REMARK  status: ('A' for Active; 'I' for Inactive)
REMARK    1  A    between atoms: C_1  and  C_2
REMARK    2  A    between atoms: C_2  and  C_4
REMARK    3  A    between atoms: C_8  and  N_9
REMARK    4  A    between atoms: N_9  and  C_21
REMARK    5  A    between atoms: C_10  and  C_12
REMARK    6  A    between atoms: C_12  and  N_13
REMARK    7  A    between atoms: C_14  and  C_16
REMARK    8  A    between atoms: C_21  and  C_22
REMARK    9  A    between atoms: C_21  and  C_30
REMARK   10  A    between atoms: N_24  and  C_25
REMARK   11  A    between atoms: C_33  and  C_34
REMARK                            x       y       z     vdW  Elec       q    Type
REMARK                         _______ _______ _______ _____ _____    ______ ____
ROOT
ATOM      1  N   UNL     1       1.004  10.569  19.490  0.00  0.00    +0.000 N 
ATOM      2  C   UNL     1       1.669   9.602  18.746  0.00  0.00    +0.000 C 
ATOM      3  O   UNL     1       2.042   9.819  17.585  0.00  0.00    +0.000 OA
ENDROOT
BRANCH   1   8
ATOM      4  C   UNL     1      -1.071  11.101  22.523  0.00  0.00    +0.000 A 
ATOM      5  C   UNL     1      -0.485  10.180  23.400  0.00  0.00    +0.000 A 
ATOM      6  C   UNL     1       0.529   9.328  22.957  0.00  0.00    +0.000 A 
ATOM      7  C   UNL     1       0.988   9.415  21.641  0.00  0.00    +0.000 A 
ATOM      8  C   UNL     1       0.416  10.334  20.759  0.00  0.00    +0.000 A 
ATOM      9  C   UNL     1      -0.641  11.149  21.189  0.00  0.00    +0.000 A 
BRANCH   4  11
ATOM     10  C   UNL     1      -1.649  13.476  23.377  0.00  0.00    +0.000 C 
ATOM     11  C   UNL     1      -2.072  12.063  23.079  0.00  0.00    +0.000 C 
ATOM     12  O   UNL     1      -3.223  11.688  23.296  0.00  0.00    +0.000 OA
ENDBRANCH   4  11
ENDBRANCH   1   8
BRANCH   2  13
ATOM     13  C   UNL     1       1.858   8.205  19.332  0.00  0.00    +0.000 C 
BRANCH  13  14
ATOM     14  N   UNL     1       2.638   7.375  18.440  0.00  0.00    +0.000 N 
ATOM     15  C   UNL     1       2.872   6.049  18.735  0.00  0.00    +0.000 C 
ATOM     16  O   UNL     1       2.345   5.490  19.695  0.00  0.00    +0.000 OA
ATOM     17  H   UNL     1       3.230   7.808  17.736  0.00  0.00    +0.000 HD
BRANCH  15  18
ATOM     18  C   UNL     1       3.785   5.385  17.831  0.00  0.00    +0.000 A 
ATOM     19  C   UNL     1       3.716   4.142  17.232  0.00  0.00    +0.000 A 
ATOM     20  C   UNL     1       4.874   4.010  16.430  0.00  0.00    +0.000 A 
ATOM     21  C   UNL     1       5.587   5.172  16.596  0.00  0.00    +0.000 A 
ATOM     22  O   UNL     1       4.939   6.016  17.441  0.00  0.00    +0.000 OA
ENDBRANCH  15  18
ENDBRANCH  13  14
ENDBRANCH   2  13
BRANCH   1  23
ATOM     23  C   UNL     1       0.947  11.938  18.930  0.00  0.00    +0.000 C 
BRANCH  23  24
ATOM     24  C   UNL     1       1.398  12.937  19.965  0.00  0.00    +0.000 A 
ATOM     25  C   UNL     1       0.721  13.905  20.680  0.00  0.00    +0.000 A 
ATOM     26  C   UNL     1       1.683  14.566  21.479  0.00  0.00    +0.000 A 
ATOM     27  C   UNL     1       2.893  13.968  21.202  0.00  0.00    +0.000 A 
ATOM     28  C   UNL     1       4.277  14.212  21.658  0.00  0.00    +0.000 C 
ATOM     29  O   UNL     1       2.722  12.956  20.307  0.00  0.00    +0.000 OA
ENDBRANCH  23  24
BRANCH  23  30
ATOM     30  C   UNL     1      -0.377  12.361  18.231  0.00  0.00    +0.000 C 
ATOM     31  O   UNL     1      -0.628  13.554  18.030  0.00  0.00    +0.000 OA
ATOM     32  N   UNL     1      -1.206  11.362  17.759  0.00  0.00    +0.000 N 
ATOM     33  H   UNL     1      -1.037  10.410  18.064  0.00  0.00    +0.000 HD
BRANCH  32  34
ATOM     34  C   UNL     1      -2.389  11.623  16.961  0.00  0.00    +0.000 C 
ATOM     35  C   UNL     1      -2.638  10.555  15.899  0.00  0.00    +0.000 C 
ATOM     36  C   UNL     1      -4.118  10.665  15.576  0.00  0.00    +0.000 C 
ATOM     37  C   UNL     1      -4.784  11.212  16.835  0.00  0.00    +0.000 C 
ATOM     38  C   UNL     1      -3.659  11.548  17.808  0.00  0.00    +0.000 C 
ENDBRANCH  32  34
ENDBRANCH  23  30
ENDBRANCH   1  23
TORSDOF 9
ENDMDL
MODEL 9
REMARK VINA RESULT:      -6.4      1.095      1.256
REMARK  Name = 
REMARK  11 active torsions:
REMARK  status: ('A' for Active; 'I' for Inactive)
REMARK    1  A    between atoms: C_1  and  C_2
REMARK    2  A    between atoms: C_2  and  C_4
REMARK    3  A    between atoms: C_8  and  N_9
REMARK    4  A    between atoms: N_9  and  C_21
REMARK    5  A    between atoms: C_10  and  C_12
REMARK    6  A    between atoms: C_12  and  N_13
REMARK    7  A    between atoms: C_14  and  C_16
REMARK    8  A    between atoms: C_21  and  C_22
REMARK    9  A    between atoms: C_21  and  C_30
REMARK   10  A    between atoms: N_24  and  C_25
REMARK   11  A    between atoms: C_33  and  C_34
REMARK                            x       y       z     vdW  Elec       q    Type
REMARK                         _______ _______ _______ _____ _____    ______ ____
ROOT
ATOM      1  N   UNL     1       0.107  11.342  19.953  0.00  0.00    +0.000 N 
ATOM      2  C   UNL     1       0.267   9.962  19.965  0.00  0.00    +0.000 C 
ATOM      3  O   UNL     1      -0.622   9.209  20.385  0.00  0.00    +0.000 OA
ENDROOT
BRANCH   1   8
ATOM      4  C   UNL     1       2.825  13.830  20.413  0.00  0.00    +0.000 A 
ATOM      5  C   UNL     1       2.894  14.375  19.125  0.00  0.00    +0.000 A 
ATOM      6  C   UNL     1       2.109  13.856  18.094  0.00  0.00    +0.000 A 
ATOM      7  C   UNL     1       1.222  12.809  18.352  0.00  0.00    +0.000 A 
ATOM      8  C   UNL     1       1.138  12.262  19.634  0.00  0.00    +0.000 A 
ATOM      9  C   UNL     1       1.969  12.746  20.655  0.00  0.00    +0.000 A 
BRANCH   4  11
ATOM     10  C   UNL     1       5.050  14.843  21.267  0.00  0.00    +0.000 C 
ATOM     11  C   UNL     1       3.604  14.497  21.501  0.00  0.00    +0.000 C 
ATOM     12  O   UNL     1       3.060  14.748  22.576  0.00  0.00    +0.000 OA
ENDBRANCH   4  11
ENDBRANCH   1   8
BRANCH   2  13
ATOM     13  C   UNL     1       1.605   9.360  19.545  0.00  0.00    +0.000 C 
BRANCH  13  14
ATOM     14  N   UNL     1       1.739   8.007  20.040  0.00  0.00    +0.000 N 
ATOM     15  C   UNL     1       2.429   7.057  19.318  0.00  0.00    +0.000 C 
ATOM     16  O   UNL     1       3.047   7.336  18.293  0.00  0.00    +0.000 OA
ATOM     17  H   UNL     1       1.122   7.677  20.778  0.00  0.00    +0.000 HD
BRANCH  15  18
ATOM     18  C   UNL     1       2.356   5.720  19.864  0.00  0.00    +0.000 A 
ATOM     19  C   UNL     1       1.420   5.134  20.695  0.00  0.00    +0.000 A 
ATOM     20  C   UNL     1       1.834   3.797  20.899  0.00  0.00    +0.000 A 
ATOM     21  C   UNL     1       3.003   3.648  20.194  0.00  0.00    +0.000 A 
ATOM     22  O   UNL     1       3.331   4.803  19.559  0.00  0.00    +0.000 OA
ENDBRANCH  15  18
ENDBRANCH  13  14
ENDBRANCH   2  13
BRANCH   1  23
ATOM     23  C   UNL     1      -1.242  11.873  20.256  0.00  0.00    +0.000 C 
BRANCH  23  24
ATOM     24  C   UNL     1      -2.153  11.666  19.073  0.00  0.00    +0.000 A 
ATOM     25  C   UNL     1      -1.920  11.231  17.784  0.00  0.00    +0.000 A 
ATOM     26  C   UNL     1      -3.161  11.281  17.108  0.00  0.00    +0.000 A 
ATOM     27  C   UNL     1      -4.081  11.749  18.021  0.00  0.00    +0.000 A 
ATOM     28  C   UNL     1      -5.521  12.069  17.942  0.00  0.00    +0.000 C 
ATOM     29  O   UNL     1      -3.481  11.955  19.226  0.00  0.00    +0.000 OA
ENDBRANCH  23  24
BRANCH  23  30
ATOM     30  C   UNL     1      -1.320  13.320  20.823  0.00  0.00    +0.000 C 
ATOM     31  O   UNL     1      -1.078  13.542  22.014  0.00  0.00    +0.000 OA
ATOM     32  N   UNL     1      -1.569  14.348  19.935  0.00  0.00    +0.000 N 
ATOM     33  H   UNL     1      -1.898  14.115  19.004  0.00  0.00    +0.000 HD
BRANCH  32  34
ATOM     34  C   UNL     1      -1.519  15.749  20.308  0.00  0.00    +0.000 C 
ATOM     35  C   UNL     1      -0.876  16.629  19.238  0.00  0.00    +0.000 C 
ATOM     36  C   UNL     1      -1.398  18.027  19.519  0.00  0.00    +0.000 C 
ATOM     37  C   UNL     1      -2.753  17.843  20.194  0.00  0.00    +0.000 C 
ATOM     38  C   UNL     1      -2.921  16.345  20.426  0.00  0.00    +0.000 C 
ENDBRANCH  32  34
ENDBRANCH  23  30
ENDBRANCH   1  23
TORSDOF 9
ENDMDL
