MODEL 1
REMARK VINA RESULT:      -8.7      0.000      0.000
REMARK  Name = 
REMARK  6 active torsions:
REMARK  status: ('A' for Active; 'I' for Inactive)
REMARK    1  A    between atoms: C_2  and  C_4
REMARK    2  A    between atoms: N_13  and  C_14
REMARK    3  A    between atoms: C_18  and  C_19
REMARK    4  A    between atoms: C_19  and  C_20
REMARK    5  A    between atoms: C_20  and  C_21
REMARK    6  A    between atoms: C_21  and  O_23
REMARK                            x       y       z     vdW  Elec       q    Type
REMARK                         _______ _______ _______ _____ _____    ______ ____
ROOT
ATOM      1  C   UNL     1       3.724   3.360  19.669  0.00  0.00    +0.000 A 
ATOM      2  C   UNL     1       2.677   3.757  20.486  0.00  0.00    +0.000 A 
ATOM      3  C   UNL     1       2.391   5.113  20.242  0.00  0.00    +0.000 A 
ATOM      4  C   UNL     1       1.458   6.012  20.807  0.00  0.00    +0.000 A 
ATOM      5  C   UNL     1       1.384   7.322  20.335  0.00  0.00    +0.000 A 
ATOM      6  C   UNL     1       2.208   7.721  19.298  0.00  0.00    +0.000 A 
ATOM      7  F   UNL     1       2.115   8.976  18.836  0.00  0.00    +0.000 F 
ATOM      8  C   UNL     1       3.130   6.853  18.713  0.00  0.00    +0.000 A 
ATOM      9  C   UNL     1       3.250   5.543  19.226  0.00  0.00    +0.000 A 
ATOM     10  N   UNL     1       4.079   4.458  18.874  0.00  0.00    +0.000 N 
ENDROOT
BRANCH  10  11
ATOM     11  C   UNL     1       5.076   4.477  17.840  0.00  0.00    +0.000 A 
ATOM     12  C   UNL     1       6.431   4.618  18.160  0.00  0.00    +0.000 A 
ATOM     13  C   UNL     1       7.394   4.678  17.151  0.00  0.00    +0.000 A 
ATOM     14  C   UNL     1       7.020   4.565  15.815  0.00  0.00    +0.000 A 
ATOM     15  C   UNL     1       5.676   4.388  15.466  0.00  0.00    +0.000 A 
ATOM     16  C   UNL     1       4.710   4.369  16.488  0.00  0.00    +0.000 A 
BRANCH  15  17
ATOM     17  C   UNL     1       5.252   4.310  14.017  0.00  0.00    +0.000 C 
BRANCH  17  18
ATOM     18  C   UNL     1       6.288   3.647  13.107  0.00  0.00    +0.000 C 
BRANCH  18  19
ATOM     19  C   UNL     1       5.617   2.874  11.996  0.00  0.00    +0.000 C 
ATOM     20  O   UNL     1       4.523   3.127  11.520  0.00  0.00    +0.000 OA
BRANCH  19  21
ATOM     21  O   UNL     1       6.373   1.841  11.557  0.00  0.00    +0.000 OA
ATOM     22  H   UNL     1       7.114   1.612  12.150  0.00  0.00    +0.000 HD
ENDBRANCH  19  21
ENDBRANCH  18  19
ENDBRANCH  17  18
ENDBRANCH  15  17
ENDBRANCH  10  11
BRANCH   1  24
ATOM     23  N   UNL     1       4.109   1.225  18.712  0.00  0.00    +0.000 N 
ATOM     24  C   UNL     1       4.399   2.083  19.735  0.00  0.00    +0.000 C 
ATOM     25  O   UNL     1       5.180   1.727  20.610  0.00  0.00    +0.000 OA
ATOM     26  H   UNL     1       4.598   0.341  18.698  0.00  0.00    +0.000 HD
ATOM     27  H   UNL     1       3.547   1.489  17.917  0.00  0.00    +0.000 HD
ENDBRANCH   1  24
TORSDOF 6
ENDMDL
MODEL 2
REMARK VINA RESULT:      -8.1      4.173      7.832
REMARK  Name = 
REMARK  6 active torsions:
REMARK  status: ('A' for Active; 'I' for Inactive)
REMARK    1  A    between atoms: C_2  and  C_4
REMARK    2  A    between atoms: N_13  and  C_14
REMARK    3  A    between atoms: C_18  and  C_19
REMARK    4  A    between atoms: C_19  and  C_20
REMARK    5  A    between atoms: C_20  and  C_21
REMARK    6  A    between atoms: C_21  and  O_23
REMARK                            x       y       z     vdW  Elec       q    Type
REMARK                         _______ _______ _______ _____ _____    ______ ____
ROOT
ATOM      1  C   UNL     1       4.315   5.632  17.138  0.00  0.00    +0.000 A 
ATOM      2  C   UNL     1       4.478   4.276  16.902  0.00  0.00    +0.000 A 
ATOM      3  C   UNL     1       3.458   3.567  17.563  0.00  0.00    +0.000 A 
ATOM      4  C   UNL     1       3.173   2.187  17.681  0.00  0.00    +0.000 A 
ATOM      5  C   UNL     1       2.051   1.771  18.397  0.00  0.00    +0.000 A 
ATOM      6  C   UNL     1       1.214   2.715  18.964  0.00  0.00    +0.000 A 
ATOM      7  F   UNL     1       0.126   2.306  19.633  0.00  0.00    +0.000 F 
ATOM      8  C   UNL     1       1.465   4.084  18.854  0.00  0.00    +0.000 A 
ATOM      9  C   UNL     1       2.630   4.509  18.180  0.00  0.00    +0.000 A 
ATOM     10  N   UNL     1       3.162   5.788  17.920  0.00  0.00    +0.000 N 
ENDROOT
BRANCH  10  11
ATOM     11  C   UNL     1       2.582   7.031  18.348  0.00  0.00    +0.000 A 
ATOM     12  C   UNL     1       2.409   8.084  17.443  0.00  0.00    +0.000 A 
ATOM     13  C   UNL     1       1.884   9.305  17.870  0.00  0.00    +0.000 A 
ATOM     14  C   UNL     1       1.495   9.478  19.196  0.00  0.00    +0.000 A 
ATOM     15  C   UNL     1       1.623   8.431  20.116  0.00  0.00    +0.000 A 
ATOM     16  C   UNL     1       2.190   7.218  19.684  0.00  0.00    +0.000 A 
BRANCH  15  17
ATOM     17  C   UNL     1       1.247   8.619  21.568  0.00  0.00    +0.000 C 
BRANCH  17  18
ATOM     18  C   UNL     1      -0.173   9.150  21.772  0.00  0.00    +0.000 C 
BRANCH  18  19
ATOM     19  C   UNL     1      -0.244  10.053  22.981  0.00  0.00    +0.000 C 
ATOM     20  O   UNL     1      -0.501  11.245  22.958  0.00  0.00    +0.000 OA
BRANCH  19  21
ATOM     21  O   UNL     1       0.004   9.391  24.135  0.00  0.00    +0.000 OA
ATOM     22  H   UNL     1      -0.055   9.949  24.933  0.00  0.00    +0.000 HD
ENDBRANCH  19  21
ENDBRANCH  18  19
ENDBRANCH  17  18
ENDBRANCH  15  17
ENDBRANCH  10  11
BRANCH   1  24
ATOM     23  N   UNL     1       5.285   6.937  15.412  0.00  0.00    +0.000 N 
ATOM     24  C   UNL     1       5.246   6.668  16.751  0.00  0.00    +0.000 C 
ATOM     25  O   UNL     1       5.978   7.297  17.508  0.00  0.00    +0.000 OA
ATOM     26  H   UNL     1       5.890   7.687  15.108  0.00  0.00    +0.000 HD
ATOM     27  H   UNL     1       4.648   6.520  14.750  0.00  0.00    +0.000 HD
ENDBRANCH   1  24
TORSDOF 6
ENDMDL
MODEL 3
REMARK VINA RESULT:      -8.0      4.041      7.681
REMARK  Name = 
REMARK  6 active torsions:
REMARK  status: ('A' for Active; 'I' for Inactive)
REMARK    1  A    between atoms: C_2  and  C_4
REMARK    2  A    between atoms: N_13  and  C_14
REMARK    3  A    between atoms: C_18  and  C_19
REMARK    4  A    between atoms: C_19  and  C_20
REMARK    5  A    between atoms: C_20  and  C_21
REMARK    6  A    between atoms: C_21  and  O_23
REMARK                            x       y       z     vdW  Elec       q    Type
REMARK                         _______ _______ _______ _____ _____    ______ ____
ROOT
ATOM      1  C   UNL     1       2.995   4.611  17.814  0.00  0.00    +0.000 A 
ATOM      2  C   UNL     1       4.060   3.817  17.420  0.00  0.00    +0.000 A 
ATOM      3  C   UNL     1       5.198   4.626  17.243  0.00  0.00    +0.000 A 
ATOM      4  C   UNL     1       6.518   4.344  16.825  0.00  0.00    +0.000 A 
ATOM      5  C   UNL     1       7.461   5.370  16.768  0.00  0.00    +0.000 A 
ATOM      6  C   UNL     1       7.099   6.651  17.146  0.00  0.00    +0.000 A 
ATOM      7  F   UNL     1       8.018   7.627  17.107  0.00  0.00    +0.000 F 
ATOM      8  C   UNL     1       5.807   6.956  17.572  0.00  0.00    +0.000 A 
ATOM      9  C   UNL     1       4.833   5.934  17.577  0.00  0.00    +0.000 A 
ATOM     10  N   UNL     1       3.468   5.925  17.928  0.00  0.00    +0.000 N 
ENDROOT
BRANCH  10  11
ATOM     11  C   UNL     1       2.718   7.068  18.372  0.00  0.00    +0.000 A 
ATOM     12  C   UNL     1       2.403   8.101  17.482  0.00  0.00    +0.000 A 
ATOM     13  C   UNL     1       1.710   9.229  17.925  0.00  0.00    +0.000 A 
ATOM     14  C   UNL     1       1.296   9.324  19.252  0.00  0.00    +0.000 A 
ATOM     15  C   UNL     1       1.566   8.290  20.156  0.00  0.00    +0.000 A 
ATOM     16  C   UNL     1       2.300   7.176  19.708  0.00  0.00    +0.000 A 
BRANCH  15  17
ATOM     17  C   UNL     1       1.163   8.401  21.609  0.00  0.00    +0.000 C 
BRANCH  17  18
ATOM     18  C   UNL     1      -0.315   8.739  21.813  0.00  0.00    +0.000 C 
BRANCH  18  19
ATOM     19  C   UNL     1      -0.478  10.128  22.383  0.00  0.00    +0.000 C 
ATOM     20  O   UNL     1      -0.274  10.443  23.544  0.00  0.00    +0.000 OA
BRANCH  19  21
ATOM     21  O   UNL     1      -0.880  11.024  21.452  0.00  0.00    +0.000 OA
ATOM     22  H   UNL     1      -1.192  10.619  20.621  0.00  0.00    +0.000 HD
ENDBRANCH  19  21
ENDBRANCH  18  19
ENDBRANCH  17  18
ENDBRANCH  15  17
ENDBRANCH  10  11
BRANCH   1  24
ATOM     23  N   UNL     1       1.331   3.565  19.142  0.00  0.00    +0.000 N 
ATOM     24  C   UNL     1       1.625   4.167  17.951  0.00  0.00    +0.000 C 
ATOM     25  O   UNL     1       0.744   4.286  17.107  0.00  0.00    +0.000 OA
ATOM     26  H   UNL     1       0.372   3.284  19.292  0.00  0.00    +0.000 HD
ATOM     27  H   UNL     1       1.984   3.517  19.909  0.00  0.00    +0.000 HD
ENDBRANCH   1  24
TORSDOF 6
ENDMDL
MODEL 4
REMARK VINA RESULT:      -7.9      0.954      1.004
REMARK  Name = 
REMARK  6 active torsions:
REMARK  status: ('A' for Active; 'I' for Inactive)
REMARK    1  A    between atoms: C_2  and  C_4
REMARK    2  A    between atoms: N_13  and  C_14
REMARK    3  A    between atoms: C_18  and  C_19
REMARK    4  A    between atoms: C_19  and  C_20
REMARK    5  A    between atoms: C_20  and  C_21
REMARK    6  A    between atoms: C_21  and  O_23
REMARK                            x       y       z     vdW  Elec       q    Type
REMARK                         _______ _______ _______ _____ _____    ______ ____
ROOT
ATOM      1  C   UNL     1       3.527   3.102  19.360  0.00  0.00    +0.000 A 
ATOM      2  C   UNL     1       2.417   3.386  20.141  0.00  0.00    +0.000 A 
ATOM      3  C   UNL     1       2.192   4.776  20.134  0.00  0.00    +0.000 A 
ATOM      4  C   UNL     1       1.234   5.593  20.775  0.00  0.00    +0.000 A 
ATOM      5  C   UNL     1       1.241   6.971  20.555  0.00  0.00    +0.000 A 
ATOM      6  C   UNL     1       2.171   7.519  19.691  0.00  0.00    +0.000 A 
ATOM      7  F   UNL     1       2.156   8.841  19.469  0.00  0.00    +0.000 F 
ATOM      8  C   UNL     1       3.121   6.735  19.036  0.00  0.00    +0.000 A 
ATOM      9  C   UNL     1       3.156   5.348  19.299  0.00  0.00    +0.000 A 
ATOM     10  N   UNL     1       3.985   4.313  18.822  0.00  0.00    +0.000 N 
ENDROOT
BRANCH  10  11
ATOM     11  C   UNL     1       5.076   4.480  17.903  0.00  0.00    +0.000 A 
ATOM     12  C   UNL     1       6.392   4.579  18.372  0.00  0.00    +0.000 A 
ATOM     13  C   UNL     1       7.447   4.783  17.480  0.00  0.00    +0.000 A 
ATOM     14  C   UNL     1       7.205   4.858  16.110  0.00  0.00    +0.000 A 
ATOM     15  C   UNL     1       5.904   4.728  15.611  0.00  0.00    +0.000 A 
ATOM     16  C   UNL     1       4.844   4.562  16.520  0.00  0.00    +0.000 A 
BRANCH  15  17
ATOM     17  C   UNL     1       5.623   4.853  14.130  0.00  0.00    +0.000 C 
BRANCH  17  18
ATOM     18  C   UNL     1       5.423   3.509  13.426  0.00  0.00    +0.000 C 
BRANCH  18  19
ATOM     19  C   UNL     1       6.399   3.346  12.286  0.00  0.00    +0.000 C 
ATOM     20  O   UNL     1       7.219   4.178  11.933  0.00  0.00    +0.000 OA
BRANCH  19  21
ATOM     21  O   UNL     1       6.281   2.145  11.673  0.00  0.00    +0.000 OA
ATOM     22  H   UNL     1       5.388   1.966  11.322  0.00  0.00    +0.000 HD
ENDBRANCH  19  21
ENDBRANCH  18  19
ENDBRANCH  17  18
ENDBRANCH  15  17
ENDBRANCH  10  11
BRANCH   1  24
ATOM     23  N   UNL     1       5.174   1.577  20.125  0.00  0.00    +0.000 N 
ATOM     24  C   UNL     1       4.157   1.807  19.241  0.00  0.00    +0.000 C 
ATOM     25  O   UNL     1       3.859   0.934  18.434  0.00  0.00    +0.000 OA
ATOM     26  H   UNL     1       5.607   0.665  20.104  0.00  0.00    +0.000 HD
ATOM     27  H   UNL     1       5.408   2.216  20.871  0.00  0.00    +0.000 HD
ENDBRANCH   1  24
TORSDOF 6
ENDMDL
MODEL 5
REMARK VINA RESULT:      -7.8      3.648      7.026
REMARK  Name = 
REMARK  6 active torsions:
REMARK  status: ('A' for Active; 'I' for Inactive)
REMARK    1  A    between atoms: C_2  and  C_4
REMARK    2  A    between atoms: N_13  and  C_14
REMARK    3  A    between atoms: C_18  and  C_19
REMARK    4  A    between atoms: C_19  and  C_20
REMARK    5  A    between atoms: C_20  and  C_21
REMARK    6  A    between atoms: C_21  and  O_23
REMARK                            x       y       z     vdW  Elec       q    Type
REMARK                         _______ _______ _______ _____ _____    ______ ____
ROOT
ATOM      1  C   UNL     1       6.942   5.395  16.348  0.00  0.00    +0.000 A 
ATOM      2  C   UNL     1       7.762   5.171  15.252  0.00  0.00    +0.000 A 
ATOM      3  C   UNL     1       7.001   4.597  14.217  0.00  0.00    +0.000 A 
ATOM      4  C   UNL     1       7.334   4.147  12.920  0.00  0.00    +0.000 A 
ATOM      5  C   UNL     1       6.340   3.634  12.087  0.00  0.00    +0.000 A 
ATOM      6  C   UNL     1       5.030   3.594  12.533  0.00  0.00    +0.000 A 
ATOM      7  F   UNL     1       4.078   3.118  11.718  0.00  0.00    +0.000 F 
ATOM      8  C   UNL     1       4.670   4.041  13.804  0.00  0.00    +0.000 A 
ATOM      9  C   UNL     1       5.681   4.507  14.672  0.00  0.00    +0.000 A 
ATOM     10  N   UNL     1       5.646   4.999  15.993  0.00  0.00    +0.000 N 
ENDROOT
BRANCH  10  11
ATOM     11  C   UNL     1       4.465   5.114  16.804  0.00  0.00    +0.000 A 
ATOM     12  C   UNL     1       4.013   6.369  17.228  0.00  0.00    +0.000 A 
ATOM     13  C   UNL     1       2.890   6.475  18.050  0.00  0.00    +0.000 A 
ATOM     14  C   UNL     1       2.187   5.334  18.432  0.00  0.00    +0.000 A 
ATOM     15  C   UNL     1       2.596   4.070  17.994  0.00  0.00    +0.000 A 
ATOM     16  C   UNL     1       3.752   3.970  17.198  0.00  0.00    +0.000 A 
BRANCH  15  17
ATOM     17  C   UNL     1       1.869   2.820  18.438  0.00  0.00    +0.000 C 
BRANCH  17  18
ATOM     18  C   UNL     1       2.369   2.258  19.771  0.00  0.00    +0.000 C 
BRANCH  18  19
ATOM     19  C   UNL     1       1.461   2.669  20.905  0.00  0.00    +0.000 C 
ATOM     20  O   UNL     1       1.720   2.560  22.092  0.00  0.00    +0.000 OA
BRANCH  19  21
ATOM     21  O   UNL     1       0.293   3.196  20.467  0.00  0.00    +0.000 OA
ATOM     22  H   UNL     1       0.346   4.145  20.245  0.00  0.00    +0.000 HD
ENDBRANCH  19  21
ENDBRANCH  18  19
ENDBRANCH  17  18
ENDBRANCH  15  17
ENDBRANCH  10  11
BRANCH   1  24
ATOM     23  N   UNL     1       7.580   4.836  18.563  0.00  0.00    +0.000 N 
ATOM     24  C   UNL     1       7.388   5.836  17.651  0.00  0.00    +0.000 C 
ATOM     25  O   UNL     1       7.596   6.997  17.985  0.00  0.00    +0.000 OA
ATOM     26  H   UNL     1       7.937   5.101  19.470  0.00  0.00    +0.000 HD
ATOM     27  H   UNL     1       7.514   3.857  18.326  0.00  0.00    +0.000 HD
ENDBRANCH   1  24
TORSDOF 6
ENDMDL
MODEL 6
REMARK VINA RESULT:      -7.8      1.255      1.340
REMARK  Name = 
REMARK  6 active torsions:
REMARK  status: ('A' for Active; 'I' for Inactive)
REMARK    1  A    between atoms: C_2  and  C_4
REMARK    2  A    between atoms: N_13  and  C_14
REMARK    3  A    between atoms: C_18  and  C_19
REMARK    4  A    between atoms: C_19  and  C_20
REMARK    5  A    between atoms: C_20  and  C_21
REMARK    6  A    between atoms: C_21  and  O_23
REMARK                            x       y       z     vdW  Elec       q    Type
REMARK                         _______ _______ _______ _____ _____    ______ ____
ROOT
ATOM      1  C   UNL     1       3.753   3.101  19.763  0.00  0.00    +0.000 A 
ATOM      2  C   UNL     1       2.642   3.400  20.536  0.00  0.00    +0.000 A 
ATOM      3  C   UNL     1       2.333   4.766  20.391  0.00  0.00    +0.000 A 
ATOM      4  C   UNL     1       1.339   5.589  20.967  0.00  0.00    +0.000 A 
ATOM      5  C   UNL     1       1.258   6.933  20.606  0.00  0.00    +0.000 A 
ATOM      6  C   UNL     1       2.138   7.442  19.667  0.00  0.00    +0.000 A 
ATOM      7  F   UNL     1       2.039   8.730  19.310  0.00  0.00    +0.000 F 
ATOM      8  C   UNL     1       3.122   6.650  19.074  0.00  0.00    +0.000 A 
ATOM      9  C   UNL     1       3.246   5.303  19.478  0.00  0.00    +0.000 A 
ATOM     10  N   UNL     1       4.127   4.273  19.091  0.00  0.00    +0.000 N 
ENDROOT
BRANCH  10  11
ATOM     11  C   UNL     1       5.190   4.407  18.134  0.00  0.00    +0.000 A 
ATOM     12  C   UNL     1       6.513   4.573  18.559  0.00  0.00    +0.000 A 
ATOM     13  C   UNL     1       7.539   4.744  17.627  0.00  0.00    +0.000 A 
ATOM     14  C   UNL     1       7.260   4.718  16.262  0.00  0.00    +0.000 A 
ATOM     15  C   UNL     1       5.952   4.518  15.808  0.00  0.00    +0.000 A 
ATOM     16  C   UNL     1       4.920   4.387  16.756  0.00  0.00    +0.000 A 
BRANCH  15  17
ATOM     17  C   UNL     1       5.630   4.534  14.331  0.00  0.00    +0.000 C 
BRANCH  17  18
ATOM     18  C   UNL     1       6.674   3.826  13.466  0.00  0.00    +0.000 C 
BRANCH  18  19
ATOM     19  C   UNL     1       7.422   4.815  12.603  0.00  0.00    +0.000 C 
ATOM     20  O   UNL     1       7.344   4.892  11.388  0.00  0.00    +0.000 OA
BRANCH  19  21
ATOM     21  O   UNL     1       8.208   5.643  13.330  0.00  0.00    +0.000 OA
ATOM     22  H   UNL     1       8.964   6.009  12.832  0.00  0.00    +0.000 HD
ENDBRANCH  19  21
ENDBRANCH  18  19
ENDBRANCH  17  18
ENDBRANCH  15  17
ENDBRANCH  10  11
BRANCH   1  24
ATOM     23  N   UNL     1       4.149   1.005  18.727  0.00  0.00    +0.000 N 
ATOM     24  C   UNL     1       4.459   1.839  19.764  0.00  0.00    +0.000 C 
ATOM     25  O   UNL     1       5.282   1.477  20.597  0.00  0.00    +0.000 OA
ATOM     26  H   UNL     1       4.656   0.133  18.668  0.00  0.00    +0.000 HD
ATOM     27  H   UNL     1       3.550   1.278  17.963  0.00  0.00    +0.000 HD
ENDBRANCH   1  24
TORSDOF 6
ENDMDL
MODEL 7
REMARK VINA RESULT:      -7.7      4.179      6.959
REMARK  Name = 
REMARK  6 active torsions:
REMARK  status: ('A' for Active; 'I' for Inactive)
REMARK    1  A    between atoms: C_2  and  C_4
REMARK    2  A    between atoms: N_13  and  C_14
REMARK    3  A    between atoms: C_18  and  C_19
REMARK    4  A    between atoms: C_19  and  C_20
REMARK    5  A    between atoms: C_20  and  C_21
REMARK    6  A    between atoms: C_21  and  O_23
REMARK                            x       y       z     vdW  Elec       q    Type
REMARK                         _______ _______ _______ _____ _____    ______ ____
ROOT
ATOM      1  C   UNL     1       3.101   4.237  17.614  0.00  0.00    +0.000 A 
ATOM      2  C   UNL     1       4.142   3.579  16.977  0.00  0.00    +0.000 A 
ATOM      3  C   UNL     1       5.243   4.450  16.873  0.00  0.00    +0.000 A 
ATOM      4  C   UNL     1       6.525   4.307  16.297  0.00  0.00    +0.000 A 
ATOM      5  C   UNL     1       7.439   5.359  16.371  0.00  0.00    +0.000 A 
ATOM      6  C   UNL     1       7.087   6.523  17.030  0.00  0.00    +0.000 A 
ATOM      7  F   UNL     1       7.979   7.520  17.114  0.00  0.00    +0.000 F 
ATOM      8  C   UNL     1       5.833   6.688  17.618  0.00  0.00    +0.000 A 
ATOM      9  C   UNL     1       4.884   5.649  17.497  0.00  0.00    +0.000 A 
ATOM     10  N   UNL     1       3.557   5.519  17.953  0.00  0.00    +0.000 N 
ENDROOT
BRANCH  10  11
ATOM     11  C   UNL     1       2.828   6.519  18.682  0.00  0.00    +0.000 A 
ATOM     12  C   UNL     1       2.449   6.296  20.011  0.00  0.00    +0.000 A 
ATOM     13  C   UNL     1       1.705   7.253  20.705  0.00  0.00    +0.000 A 
ATOM     14  C   UNL     1       1.358   8.454  20.091  0.00  0.00    +0.000 A 
ATOM     15  C   UNL     1       1.753   8.719  18.775  0.00  0.00    +0.000 A 
ATOM     16  C   UNL     1       2.469   7.733  18.072  0.00  0.00    +0.000 A 
BRANCH  15  17
ATOM     17  C   UNL     1       1.345  10.000  18.083  0.00  0.00    +0.000 C 
BRANCH  17  18
ATOM     18  C   UNL     1       0.457  10.905  18.938  0.00  0.00    +0.000 C 
BRANCH  18  19
ATOM     19  C   UNL     1      -0.976  10.864  18.462  0.00  0.00    +0.000 C 
ATOM     20  O   UNL     1      -1.942  11.255  19.095  0.00  0.00    +0.000 OA
BRANCH  19  21
ATOM     21  O   UNL     1      -1.092  10.340  17.219  0.00  0.00    +0.000 OA
ATOM     22  H   UNL     1      -1.527  10.933  16.578  0.00  0.00    +0.000 HD
ENDBRANCH  19  21
ENDBRANCH  18  19
ENDBRANCH  17  18
ENDBRANCH  15  17
ENDBRANCH  10  11
BRANCH   1  24
ATOM     23  N   UNL     1       1.646   2.658  18.620  0.00  0.00    +0.000 N 
ATOM     24  C   UNL     1       1.759   3.724  17.773  0.00  0.00    +0.000 C 
ATOM     25  O   UNL     1       0.753   4.158  17.222  0.00  0.00    +0.000 OA
ATOM     26  H   UNL     1       0.717   2.301  18.793  0.00  0.00    +0.000 HD
ATOM     27  H   UNL     1       2.416   2.311  19.172  0.00  0.00    +0.000 HD
ENDBRANCH   1  24
TORSDOF 6
ENDMDL
MODEL 8
REMARK VINA RESULT:      -7.6      4.180      6.912
REMARK  Name = 
REMARK  6 active torsions:
REMARK  status: ('A' for Active; 'I' for Inactive)
REMARK    1  A    between atoms: C_2  and  C_4
REMARK    2  A    between atoms: N_13  and  C_14
REMARK    3  A    between atoms: C_18  and  C_19
REMARK    4  A    between atoms: C_19  and  C_20
REMARK    5  A    between atoms: C_20  and  C_21
REMARK    6  A    between atoms: C_21  and  O_23
REMARK                            x       y       z     vdW  Elec       q    Type
REMARK                         _______ _______ _______ _____ _____    ______ ____
ROOT
ATOM      1  C   UNL     1       3.163   4.073  17.521  0.00  0.00    +0.000 A 
ATOM      2  C   UNL     1       4.206   3.435  16.866  0.00  0.00    +0.000 A 
ATOM      3  C   UNL     1       5.295   4.320  16.763  0.00  0.00    +0.000 A 
ATOM      4  C   UNL     1       6.574   4.199  16.173  0.00  0.00    +0.000 A 
ATOM      5  C   UNL     1       7.476   5.260  16.252  0.00  0.00    +0.000 A 
ATOM      6  C   UNL     1       7.117   6.412  16.929  0.00  0.00    +0.000 A 
ATOM      7  F   UNL     1       7.999   7.419  17.016  0.00  0.00    +0.000 F 
ATOM      8  C   UNL     1       5.866   6.555  17.530  0.00  0.00    +0.000 A 
ATOM      9  C   UNL     1       4.928   5.507  17.404  0.00  0.00    +0.000 A 
ATOM     10  N   UNL     1       3.607   5.356  17.871  0.00  0.00    +0.000 N 
ENDROOT
BRANCH  10  11
ATOM     11  C   UNL     1       2.873   6.339  18.619  0.00  0.00    +0.000 A 
ATOM     12  C   UNL     1       2.484   6.084  19.939  0.00  0.00    +0.000 A 
ATOM     13  C   UNL     1       1.736   7.024  20.650  0.00  0.00    +0.000 A 
ATOM     14  C   UNL     1       1.395   8.240  20.064  0.00  0.00    +0.000 A 
ATOM     15  C   UNL     1       1.800   8.537  18.758  0.00  0.00    +0.000 A 
ATOM     16  C   UNL     1       2.520   7.567  18.036  0.00  0.00    +0.000 A 
BRANCH  15  17
ATOM     17  C   UNL     1       1.398   9.835  18.093  0.00  0.00    +0.000 C 
BRANCH  17  18
ATOM     18  C   UNL     1       1.160  10.981  19.078  0.00  0.00    +0.000 C 
BRANCH  18  19
ATOM     19  C   UNL     1       1.844  12.245  18.612  0.00  0.00    +0.000 C 
ATOM     20  O   UNL     1       1.811  13.319  19.189  0.00  0.00    +0.000 OA
BRANCH  19  21
ATOM     21  O   UNL     1       2.528  12.066  17.458  0.00  0.00    +0.000 OA
ATOM     22  H   UNL     1       3.342  12.599  17.393  0.00  0.00    +0.000 HD
ENDBRANCH  19  21
ENDBRANCH  18  19
ENDBRANCH  17  18
ENDBRANCH  15  17
ENDBRANCH  10  11
BRANCH   1  24
ATOM     23  N   UNL     1       1.764   2.324  18.300  0.00  0.00    +0.000 N 
ATOM     24  C   UNL     1       1.828   3.543  17.686  0.00  0.00    +0.000 C 
ATOM     25  O   UNL     1       0.789   4.085  17.325  0.00  0.00    +0.000 OA
ATOM     26  H   UNL     1       0.845   1.942  18.475  0.00  0.00    +0.000 HD
ATOM     27  H   UNL     1       2.571   1.868  18.699  0.00  0.00    +0.000 HD
ENDBRANCH   1  24
TORSDOF 6
ENDMDL
MODEL 9
REMARK VINA RESULT:      -7.6      3.963      7.764
REMARK  Name = 
REMARK  6 active torsions:
REMARK  status: ('A' for Active; 'I' for Inactive)
REMARK    1  A    between atoms: C_2  and  C_4
REMARK    2  A    between atoms: N_13  and  C_14
REMARK    3  A    between atoms: C_18  and  C_19
REMARK    4  A    between atoms: C_19  and  C_20
REMARK    5  A    between atoms: C_20  and  C_21
REMARK    6  A    between atoms: C_21  and  O_23
REMARK                            x       y       z     vdW  Elec       q    Type
REMARK                         _______ _______ _______ _____ _____    ______ ____
ROOT
ATOM      1  C   UNL     1       3.118   4.580  18.837  0.00  0.00    +0.000 A 
ATOM      2  C   UNL     1       4.221   3.779  18.582  0.00  0.00    +0.000 A 
ATOM      3  C   UNL     1       5.276   4.584  18.113  0.00  0.00    +0.000 A 
ATOM      4  C   UNL     1       6.589   4.286  17.684  0.00  0.00    +0.000 A 
ATOM      5  C   UNL     1       7.440   5.318  17.289  0.00  0.00    +0.000 A 
ATOM      6  C   UNL     1       6.996   6.628  17.346  0.00  0.00    +0.000 A 
ATOM      7  F   UNL     1       7.828   7.615  16.984  0.00  0.00    +0.000 F 
ATOM      8  C   UNL     1       5.710   6.952  17.777  0.00  0.00    +0.000 A 
ATOM      9  C   UNL     1       4.825   5.907  18.122  0.00  0.00    +0.000 A 
ATOM     10  N   UNL     1       3.488   5.905  18.567  0.00  0.00    +0.000 N 
ENDROOT
BRANCH  10  11
ATOM     11  C   UNL     1       2.673   7.073  18.755  0.00  0.00    +0.000 A 
ATOM     12  C   UNL     1       2.370   7.910  17.674  0.00  0.00    +0.000 A 
ATOM     13  C   UNL     1       1.613   9.067  17.866  0.00  0.00    +0.000 A 
ATOM     14  C   UNL     1       1.123   9.385  19.131  0.00  0.00    +0.000 A 
ATOM     15  C   UNL     1       1.381   8.549  20.223  0.00  0.00    +0.000 A 
ATOM     16  C   UNL     1       2.178   7.406  20.026  0.00  0.00    +0.000 A 
BRANCH  15  17
ATOM     17  C   UNL     1       0.894   8.906  21.609  0.00  0.00    +0.000 C 
BRANCH  17  18
ATOM     18  C   UNL     1      -0.180   9.995  21.622  0.00  0.00    +0.000 C 
BRANCH  18  19
ATOM     19  C   UNL     1      -0.696  10.229  23.022  0.00  0.00    +0.000 C 
ATOM     20  O   UNL     1      -1.584  11.008  23.327  0.00  0.00    +0.000 OA
BRANCH  19  21
ATOM     21  O   UNL     1      -0.064   9.462  23.941  0.00  0.00    +0.000 OA
ATOM     22  H   UNL     1       0.807   9.132  23.649  0.00  0.00    +0.000 HD
ENDBRANCH  19  21
ENDBRANCH  18  19
ENDBRANCH  17  18
ENDBRANCH  15  17
ENDBRANCH  10  11
BRANCH   1  24
ATOM     23  N   UNL     1       1.102   3.528  18.165  0.00  0.00    +0.000 N 
ATOM     24  C   UNL     1       1.800   4.101  19.189  0.00  0.00    +0.000 C 
ATOM     25  O   UNL     1       1.282   4.174  20.299  0.00  0.00    +0.000 OA
ATOM     26  H   UNL     1       0.195   3.139  18.384  0.00  0.00    +0.000 HD
ATOM     27  H   UNL     1       1.503   3.357  17.255  0.00  0.00    +0.000 HD
ENDBRANCH   1  24
TORSDOF 6
ENDMDL
