MODEL 1
REMARK VINA RESULT:      -7.4      0.000      0.000
REMARK  Name = 
REMARK  11 active torsions:
REMARK  status: ('A' for Active; 'I' for Inactive)
REMARK    1  A    between atoms: C_1  and  O_2
REMARK    2  A    between atoms: O_2  and  C_3
REMARK    3  A    between atoms: C_6  and  N_7
REMARK    4  A    between atoms: C_9  and  C_10
REMARK    5  A    between atoms: C_10  and  C_12
REMARK    6  A    between atoms: C_14  and  O_15
REMARK    7  A    between atoms: O_15  and  C_16
REMARK    8  A    between atoms: C_17  and  O_18
REMARK    9  A    between atoms: O_18  and  C_19
REMARK   10  A    between atoms: C_20  and  O_21
REMARK   11  A    between atoms: O_21  and  C_22
REMARK                            x       y       z     vdW  Elec       q    Type
REMARK                         _______ _______ _______ _____ _____    ______ ____
ROOT
ATOM      1  C   UNL     1       6.595   5.819  16.573  0.00  0.00    +0.000 C 
ATOM      2  O   UNL     1       7.081   5.386  15.534  0.00  0.00    +0.000 OA
ENDROOT
BRANCH   1   3
ATOM      3  C   UNL     1       5.232   5.372  16.975  0.00  0.00    +0.000 A 
ATOM      4  C   UNL     1       4.333   6.338  17.427  0.00  0.00    +0.000 A 
ATOM      5  C   UNL     1       3.046   5.970  17.829  0.00  0.00    +0.000 A 
ATOM      6  C   UNL     1       2.665   4.606  17.814  0.00  0.00    +0.000 A 
ATOM      7  C   UNL     1       3.584   3.626  17.386  0.00  0.00    +0.000 A 
ATOM      8  C   UNL     1       4.862   4.023  16.970  0.00  0.00    +0.000 A 
BRANCH   5   9
ATOM      9  O   UNL     1       2.112   6.879  18.262  0.00  0.00    +0.000 OA
ATOM     10  C   UNL     1       2.322   7.424  19.562  0.00  0.00    +0.000 C 
ENDBRANCH   5   9
BRANCH   6  11
ATOM     11  O   UNL     1       1.406   4.351  18.307  0.00  0.00    +0.000 OA
ATOM     12  C   UNL     1       1.309   3.924  19.660  0.00  0.00    +0.000 C 
ENDBRANCH   6  11
BRANCH   7  13
ATOM     13  O   UNL     1       3.199   2.311  17.434  0.00  0.00    +0.000 OA
ATOM     14  C   UNL     1       3.702   1.489  18.479  0.00  0.00    +0.000 C 
ENDBRANCH   7  13
ENDBRANCH   1   3
BRANCH   1  17
ATOM     15  N   UNL     1       8.263   8.568  18.295  0.00  0.00    +0.000 N 
ATOM     16  C   UNL     1       7.472   8.118  17.255  0.00  0.00    +0.000 A 
ATOM     17  C   UNL     1       7.316   6.757  17.412  0.00  0.00    +0.000 A 
ATOM     18  C   UNL     1       7.984   6.479  18.617  0.00  0.00    +0.000 A 
ATOM     19  N   UNL     1       8.585   7.551  19.136  0.00  0.00    +0.000 NA
BRANCH  15  23
ATOM     20  C   UNL     1       9.674  12.485  19.031  0.00  0.00    +0.000 A 
ATOM     21  C   UNL     1       8.935  12.213  17.879  0.00  0.00    +0.000 A 
ATOM     22  C   UNL     1       8.458  10.925  17.623  0.00  0.00    +0.000 A 
ATOM     23  C   UNL     1       8.734   9.888  18.524  0.00  0.00    +0.000 A 
ATOM     24  C   UNL     1       9.498  10.158  19.668  0.00  0.00    +0.000 A 
ATOM     25  C   UNL     1       9.969  11.451  19.917  0.00  0.00    +0.000 A 
BRANCH  20  27
ATOM     26  C   UNL     1       9.093  14.689  19.641  0.00  0.00    +0.000 C 
ATOM     27  O   UNL     1      10.083  13.783  19.166  0.00  0.00    +0.000 OA
ENDBRANCH  20  27
ENDBRANCH  15  23
ENDBRANCH   1  17
TORSDOF 7
ENDMDL
MODEL 2
REMARK VINA RESULT:      -7.2      4.933      7.554
REMARK  Name = 
REMARK  11 active torsions:
REMARK  status: ('A' for Active; 'I' for Inactive)
REMARK    1  A    between atoms: C_1  and  O_2
REMARK    2  A    between atoms: O_2  and  C_3
REMARK    3  A    between atoms: C_6  and  N_7
REMARK    4  A    between atoms: C_9  and  C_10
REMARK    5  A    between atoms: C_10  and  C_12
REMARK    6  A    between atoms: C_14  and  O_15
REMARK    7  A    between atoms: O_15  and  C_16
REMARK    8  A    between atoms: C_17  and  O_18
REMARK    9  A    between atoms: O_18  and  C_19
REMARK   10  A    between atoms: C_20  and  O_21
REMARK   11  A    between atoms: O_21  and  C_22
REMARK                            x       y       z     vdW  Elec       q    Type
REMARK                         _______ _______ _______ _____ _____    ______ ____
ROOT
ATOM      1  C   UNL     1       2.546   7.771  18.147  0.00  0.00    +0.000 C 
ATOM      2  O   UNL     1       2.778   8.481  17.175  0.00  0.00    +0.000 OA
ENDROOT
BRANCH   1   3
ATOM      3  C   UNL     1       3.037   6.365  18.148  0.00  0.00    +0.000 A 
ATOM      4  C   UNL     1       2.104   5.345  17.959  0.00  0.00    +0.000 A 
ATOM      5  C   UNL     1       2.511   4.008  17.965  0.00  0.00    +0.000 A 
ATOM      6  C   UNL     1       3.868   3.683  18.202  0.00  0.00    +0.000 A 
ATOM      7  C   UNL     1       4.807   4.713  18.424  0.00  0.00    +0.000 A 
ATOM      8  C   UNL     1       4.377   6.047  18.394  0.00  0.00    +0.000 A 
BRANCH   5   9
ATOM      9  O   UNL     1       1.641   2.964  17.763  0.00  0.00    +0.000 OA
ATOM     10  C   UNL     1       0.735   2.686  18.827  0.00  0.00    +0.000 C 
ENDBRANCH   5   9
BRANCH   6  11
ATOM     11  O   UNL     1       4.139   2.336  18.267  0.00  0.00    +0.000 OA
ATOM     12  C   UNL     1       4.238   1.752  19.559  0.00  0.00    +0.000 C 
ENDBRANCH   6  11
BRANCH   7  13
ATOM     13  O   UNL     1       6.102   4.361  18.702  0.00  0.00    +0.000 OA
ATOM     14  C   UNL     1       7.118   4.702  17.766  0.00  0.00    +0.000 C 
ENDBRANCH   7  13
ENDBRANCH   1   3
BRANCH   1  17
ATOM     15  N   UNL     1       0.503   9.439  20.666  0.00  0.00    +0.000 N 
ATOM     16  C   UNL     1       0.950   9.351  19.362  0.00  0.00    +0.000 A 
ATOM     17  C   UNL     1       1.802   8.269  19.288  0.00  0.00    +0.000 A 
ATOM     18  C   UNL     1       1.753   7.715  20.579  0.00  0.00    +0.000 A 
ATOM     19  N   UNL     1       1.006   8.428  21.422  0.00  0.00    +0.000 NA
BRANCH  15  23
ATOM     20  C   UNL     1      -2.034  12.399  22.302  0.00  0.00    +0.000 A 
ATOM     21  C   UNL     1      -1.475  11.423  23.128  0.00  0.00    +0.000 A 
ATOM     22  C   UNL     1      -0.632  10.441  22.604  0.00  0.00    +0.000 A 
ATOM     23  C   UNL     1      -0.352  10.422  21.231  0.00  0.00    +0.000 A 
ATOM     24  C   UNL     1      -0.934  11.389  20.399  0.00  0.00    +0.000 A 
ATOM     25  C   UNL     1      -1.775  12.370  20.933  0.00  0.00    +0.000 A 
BRANCH  20  27
ATOM     26  C   UNL     1      -4.057  13.614  22.262  0.00  0.00    +0.000 C 
ATOM     27  O   UNL     1      -2.842  13.304  22.935  0.00  0.00    +0.000 OA
ENDBRANCH  20  27
ENDBRANCH  15  23
ENDBRANCH   1  17
TORSDOF 7
ENDMDL
MODEL 3
REMARK VINA RESULT:      -7.2      0.876      1.273
REMARK  Name = 
REMARK  11 active torsions:
REMARK  status: ('A' for Active; 'I' for Inactive)
REMARK    1  A    between atoms: C_1  and  O_2
REMARK    2  A    between atoms: O_2  and  C_3
REMARK    3  A    between atoms: C_6  and  N_7
REMARK    4  A    between atoms: C_9  and  C_10
REMARK    5  A    between atoms: C_10  and  C_12
REMARK    6  A    between atoms: C_14  and  O_15
REMARK    7  A    between atoms: O_15  and  C_16
REMARK    8  A    between atoms: C_17  and  O_18
REMARK    9  A    between atoms: O_18  and  C_19
REMARK   10  A    between atoms: C_20  and  O_21
REMARK   11  A    between atoms: O_21  and  C_22
REMARK                            x       y       z     vdW  Elec       q    Type
REMARK                         _______ _______ _______ _____ _____    ______ ____
ROOT
ATOM      1  C   UNL     1       6.677   6.133  16.748  0.00  0.00    +0.000 C 
ATOM      2  O   UNL     1       7.094   5.715  15.674  0.00  0.00    +0.000 OA
ENDROOT
BRANCH   1   3
ATOM      3  C   UNL     1       5.369   5.636  17.259  0.00  0.00    +0.000 A 
ATOM      4  C   UNL     1       4.338   6.560  17.427  0.00  0.00    +0.000 A 
ATOM      5  C   UNL     1       3.095   6.147  17.916  0.00  0.00    +0.000 A 
ATOM      6  C   UNL     1       2.892   4.794  18.279  0.00  0.00    +0.000 A 
ATOM      7  C   UNL     1       3.945   3.865  18.138  0.00  0.00    +0.000 A 
ATOM      8  C   UNL     1       5.175   4.300  17.627  0.00  0.00    +0.000 A 
BRANCH   5   9
ATOM      9  O   UNL     1       2.037   7.007  18.083  0.00  0.00    +0.000 OA
ATOM     10  C   UNL     1       2.361   8.392  18.168  0.00  0.00    +0.000 C 
ENDBRANCH   5   9
BRANCH   6  11
ATOM     11  O   UNL     1       1.660   4.518  18.824  0.00  0.00    +0.000 OA
ATOM     12  C   UNL     1       1.545   4.573  20.241  0.00  0.00    +0.000 C 
ENDBRANCH   6  11
BRANCH   7  13
ATOM     13  O   UNL     1       3.730   2.574  18.547  0.00  0.00    +0.000 OA
ATOM     14  C   UNL     1       4.276   2.152  19.790  0.00  0.00    +0.000 C 
ENDBRANCH   7  13
ENDBRANCH   1   3
BRANCH   1  17
ATOM     15  N   UNL     1       8.405   8.941  18.308  0.00  0.00    +0.000 N 
ATOM     16  C   UNL     1       7.579   8.454  17.313  0.00  0.00    +0.000 A 
ATOM     17  C   UNL     1       7.427   7.100  17.526  0.00  0.00    +0.000 A 
ATOM     18  C   UNL     1       8.135   6.867  18.718  0.00  0.00    +0.000 A 
ATOM     19  N   UNL     1       8.754   7.956  19.175  0.00  0.00    +0.000 NA
BRANCH  15  23
ATOM     20  C   UNL     1       9.815  12.904  18.742  0.00  0.00    +0.000 A 
ATOM     21  C   UNL     1      10.305  11.892  19.570  0.00  0.00    +0.000 A 
ATOM     22  C   UNL     1       9.852  10.578  19.436  0.00  0.00    +0.000 A 
ATOM     23  C   UNL     1       8.885  10.268  18.471  0.00  0.00    +0.000 A 
ATOM     24  C   UNL     1       8.376  11.290  17.656  0.00  0.00    +0.000 A 
ATOM     25  C   UNL     1       8.837  12.603  17.796  0.00  0.00    +0.000 A 
BRANCH  20  27
ATOM     26  C   UNL     1      11.650  14.361  18.466  0.00  0.00    +0.000 C 
ATOM     27  O   UNL     1      10.336  14.147  18.972  0.00  0.00    +0.000 OA
ENDBRANCH  20  27
ENDBRANCH  15  23
ENDBRANCH   1  17
TORSDOF 7
ENDMDL
MODEL 4
REMARK VINA RESULT:      -7.1      4.796      7.404
REMARK  Name = 
REMARK  11 active torsions:
REMARK  status: ('A' for Active; 'I' for Inactive)
REMARK    1  A    between atoms: C_1  and  O_2
REMARK    2  A    between atoms: O_2  and  C_3
REMARK    3  A    between atoms: C_6  and  N_7
REMARK    4  A    between atoms: C_9  and  C_10
REMARK    5  A    between atoms: C_10  and  C_12
REMARK    6  A    between atoms: C_14  and  O_15
REMARK    7  A    between atoms: O_15  and  C_16
REMARK    8  A    between atoms: C_17  and  O_18
REMARK    9  A    between atoms: O_18  and  C_19
REMARK   10  A    between atoms: C_20  and  O_21
REMARK   11  A    between atoms: O_21  and  C_22
REMARK                            x       y       z     vdW  Elec       q    Type
REMARK                         _______ _______ _______ _____ _____    ______ ____
ROOT
ATOM      1  C   UNL     1       2.547   7.774  18.146  0.00  0.00    +0.000 C 
ATOM      2  O   UNL     1       2.788   8.479  17.173  0.00  0.00    +0.000 OA
ENDROOT
BRANCH   1   3
ATOM      3  C   UNL     1       3.027   6.363  18.152  0.00  0.00    +0.000 A 
ATOM      4  C   UNL     1       2.085   5.351  17.964  0.00  0.00    +0.000 A 
ATOM      5  C   UNL     1       2.481   4.010  17.975  0.00  0.00    +0.000 A 
ATOM      6  C   UNL     1       3.835   3.675  18.216  0.00  0.00    +0.000 A 
ATOM      7  C   UNL     1       4.782   4.697  18.436  0.00  0.00    +0.000 A 
ATOM      8  C   UNL     1       4.364   6.035  18.402  0.00  0.00    +0.000 A 
BRANCH   5   9
ATOM      9  O   UNL     1       1.603   2.973  17.774  0.00  0.00    +0.000 OA
ATOM     10  C   UNL     1       0.712   2.687  18.849  0.00  0.00    +0.000 C 
ENDBRANCH   5   9
BRANCH   6  11
ATOM     11  O   UNL     1       4.095   2.326  18.284  0.00  0.00    +0.000 OA
ATOM     12  C   UNL     1       4.217   1.750  19.579  0.00  0.00    +0.000 C 
ENDBRANCH   6  11
BRANCH   7  13
ATOM     13  O   UNL     1       6.074   4.335  18.717  0.00  0.00    +0.000 OA
ATOM     14  C   UNL     1       7.134   5.076  18.126  0.00  0.00    +0.000 C 
ENDBRANCH   7  13
ENDBRANCH   1   3
BRANCH   1  17
ATOM     15  N   UNL     1       0.505   9.460  20.654  0.00  0.00    +0.000 N 
ATOM     16  C   UNL     1       0.949   9.360  19.349  0.00  0.00    +0.000 A 
ATOM     17  C   UNL     1       1.805   8.281  19.284  0.00  0.00    +0.000 A 
ATOM     18  C   UNL     1       1.760   7.739  20.580  0.00  0.00    +0.000 A 
ATOM     19  N   UNL     1       1.012   8.458  21.418  0.00  0.00    +0.000 NA
BRANCH  15  23
ATOM     20  C   UNL     1      -2.052  12.366  22.356  0.00  0.00    +0.000 A 
ATOM     21  C   UNL     1      -1.755  12.408  20.993  0.00  0.00    +0.000 A 
ATOM     22  C   UNL     1      -0.915  11.453  20.415  0.00  0.00    +0.000 A 
ATOM     23  C   UNL     1      -0.351  10.447  21.211  0.00  0.00    +0.000 A 
ATOM     24  C   UNL     1      -0.631  10.421  22.584  0.00  0.00    +0.000 A 
ATOM     25  C   UNL     1      -1.475  11.380  23.154  0.00  0.00    +0.000 A 
BRANCH  20  27
ATOM     26  C   UNL     1      -2.287  14.639  22.942  0.00  0.00    +0.000 C 
ATOM     27  O   UNL     1      -2.885  13.355  22.801  0.00  0.00    +0.000 OA
ENDBRANCH  20  27
ENDBRANCH  15  23
ENDBRANCH   1  17
TORSDOF 7
ENDMDL
MODEL 5
REMARK VINA RESULT:      -7.1      5.226      8.878
REMARK  Name = 
REMARK  11 active torsions:
REMARK  status: ('A' for Active; 'I' for Inactive)
REMARK    1  A    between atoms: C_1  and  O_2
REMARK    2  A    between atoms: O_2  and  C_3
REMARK    3  A    between atoms: C_6  and  N_7
REMARK    4  A    between atoms: C_9  and  C_10
REMARK    5  A    between atoms: C_10  and  C_12
REMARK    6  A    between atoms: C_14  and  O_15
REMARK    7  A    between atoms: O_15  and  C_16
REMARK    8  A    between atoms: C_17  and  O_18
REMARK    9  A    between atoms: O_18  and  C_19
REMARK   10  A    between atoms: C_20  and  O_21
REMARK   11  A    between atoms: O_21  and  C_22
REMARK                            x       y       z     vdW  Elec       q    Type
REMARK                         _______ _______ _______ _____ _____    ______ ____
ROOT
ATOM      1  C   UNL     1       0.756  10.839  18.907  0.00  0.00    +0.000 C 
ATOM      2  O   UNL     1       1.404  11.867  19.070  0.00  0.00    +0.000 OA
ENDROOT
BRANCH   1   3
ATOM      3  C   UNL     1      -0.707  10.941  18.646  0.00  0.00    +0.000 A 
ATOM      4  C   UNL     1      -1.229  10.235  17.563  0.00  0.00    +0.000 A 
ATOM      5  C   UNL     1      -2.594  10.308  17.266  0.00  0.00    +0.000 A 
ATOM      6  C   UNL     1      -3.443  11.132  18.043  0.00  0.00    +0.000 A 
ATOM      7  C   UNL     1      -2.909  11.871  19.120  0.00  0.00    +0.000 A 
ATOM      8  C   UNL     1      -1.541  11.765  19.409  0.00  0.00    +0.000 A 
BRANCH   5   9
ATOM      9  O   UNL     1      -3.168   9.618  16.226  0.00  0.00    +0.000 OA
ATOM     10  C   UNL     1      -2.910  10.123  14.919  0.00  0.00    +0.000 C 
ENDBRANCH   5   9
BRANCH   6  11
ATOM     11  O   UNL     1      -4.747  11.191  17.612  0.00  0.00    +0.000 OA
ATOM     12  C   UNL     1      -5.739  10.609  18.449  0.00  0.00    +0.000 C 
ENDBRANCH   6  11
BRANCH   7  13
ATOM     13  O   UNL     1      -3.749  12.698  19.820  0.00  0.00    +0.000 OA
ATOM     14  C   UNL     1      -3.261  13.331  20.995  0.00  0.00    +0.000 C 
ENDBRANCH   7  13
ENDBRANCH   1   3
BRANCH   1  17
ATOM     15  N   UNL     1       2.508   7.662  18.531  0.00  0.00    +0.000 N 
ATOM     16  C   UNL     1       2.170   8.904  18.027  0.00  0.00    +0.000 A 
ATOM     17  C   UNL     1       1.382   9.532  18.968  0.00  0.00    +0.000 A 
ATOM     18  C   UNL     1       1.358   8.627  20.044  0.00  0.00    +0.000 A 
ATOM     19  N   UNL     1       1.999   7.489  19.779  0.00  0.00    +0.000 NA
BRANCH  15  23
ATOM     20  C   UNL     1       4.787   4.660  16.615  0.00  0.00    +0.000 A 
ATOM     21  C   UNL     1       3.631   4.318  17.319  0.00  0.00    +0.000 A 
ATOM     22  C   UNL     1       2.866   5.299  17.954  0.00  0.00    +0.000 A 
ATOM     23  C   UNL     1       3.265   6.641  17.898  0.00  0.00    +0.000 A 
ATOM     24  C   UNL     1       4.439   6.979  17.210  0.00  0.00    +0.000 A 
ATOM     25  C   UNL     1       5.199   5.990  16.576  0.00  0.00    +0.000 A 
BRANCH  20  27
ATOM     26  C   UNL     1       6.134   3.912  14.828  0.00  0.00    +0.000 C 
ATOM     27  O   UNL     1       5.448   3.610  16.038  0.00  0.00    +0.000 OA
ENDBRANCH  20  27
ENDBRANCH  15  23
ENDBRANCH   1  17
TORSDOF 7
ENDMDL
MODEL 6
REMARK VINA RESULT:      -7.1      1.034      2.733
REMARK  Name = 
REMARK  11 active torsions:
REMARK  status: ('A' for Active; 'I' for Inactive)
REMARK    1  A    between atoms: C_1  and  O_2
REMARK    2  A    between atoms: O_2  and  C_3
REMARK    3  A    between atoms: C_6  and  N_7
REMARK    4  A    between atoms: C_9  and  C_10
REMARK    5  A    between atoms: C_10  and  C_12
REMARK    6  A    between atoms: C_14  and  O_15
REMARK    7  A    between atoms: O_15  and  C_16
REMARK    8  A    between atoms: C_17  and  O_18
REMARK    9  A    between atoms: O_18  and  C_19
REMARK   10  A    between atoms: C_20  and  O_21
REMARK   11  A    between atoms: O_21  and  C_22
REMARK                            x       y       z     vdW  Elec       q    Type
REMARK                         _______ _______ _______ _____ _____    ______ ____
ROOT
ATOM      1  C   UNL     1       5.622   6.590  16.657  0.00  0.00    +0.000 C 
ATOM      2  O   UNL     1       5.628   6.551  15.431  0.00  0.00    +0.000 OA
ENDROOT
BRANCH   1   3
ATOM      3  C   UNL     1       4.478   5.985  17.394  0.00  0.00    +0.000 A 
ATOM      4  C   UNL     1       4.124   4.671  17.089  0.00  0.00    +0.000 A 
ATOM      5  C   UNL     1       3.049   4.061  17.742  0.00  0.00    +0.000 A 
ATOM      6  C   UNL     1       2.291   4.791  18.689  0.00  0.00    +0.000 A 
ATOM      7  C   UNL     1       2.629   6.131  18.975  0.00  0.00    +0.000 A 
ATOM      8  C   UNL     1       3.724   6.713  18.320  0.00  0.00    +0.000 A 
BRANCH   5   9
ATOM      9  O   UNL     1       2.668   2.764  17.498  0.00  0.00    +0.000 OA
ATOM     10  C   UNL     1       3.494   1.750  18.064  0.00  0.00    +0.000 C 
ENDBRANCH   5   9
BRANCH   6  11
ATOM     11  O   UNL     1       1.209   4.119  19.207  0.00  0.00    +0.000 OA
ATOM     12  C   UNL     1       1.337   3.591  20.521  0.00  0.00    +0.000 C 
ENDBRANCH   6  11
BRANCH   7  13
ATOM     13  O   UNL     1       1.843   6.824  19.858  0.00  0.00    +0.000 OA
ATOM     14  C   UNL     1       1.820   8.244  19.783  0.00  0.00    +0.000 C 
ENDBRANCH   7  13
ENDBRANCH   1   3
BRANCH   1  17
ATOM     15  N   UNL     1       8.158   8.646  18.284  0.00  0.00    +0.000 N 
ATOM     16  C   UNL     1       7.044   8.548  17.473  0.00  0.00    +0.000 A 
ATOM     17  C   UNL     1       6.701   7.214  17.399  0.00  0.00    +0.000 A 
ATOM     18  C   UNL     1       7.617   6.584  18.259  0.00  0.00    +0.000 A 
ATOM     19  N   UNL     1       8.516   7.427  18.766  0.00  0.00    +0.000 NA
BRANCH  15  23
ATOM     20  C   UNL     1      10.380  12.123  19.206  0.00  0.00    +0.000 A 
ATOM     21  C   UNL     1       9.944  11.280  20.229  0.00  0.00    +0.000 A 
ATOM     22  C   UNL     1       9.212  10.125  19.941  0.00  0.00    +0.000 A 
ATOM     23  C   UNL     1       8.898   9.813  18.612  0.00  0.00    +0.000 A 
ATOM     24  C   UNL     1       9.317  10.673  17.587  0.00  0.00    +0.000 A 
ATOM     25  C   UNL     1      10.051  11.826  17.885  0.00  0.00    +0.000 A 
BRANCH  20  27
ATOM     26  C   UNL     1      11.456  14.129  18.587  0.00  0.00    +0.000 C 
ATOM     27  O   UNL     1      11.086  13.219  19.618  0.00  0.00    +0.000 OA
ENDBRANCH  20  27
ENDBRANCH  15  23
ENDBRANCH   1  17
TORSDOF 7
ENDMDL
MODEL 7
REMARK VINA RESULT:      -7.1      4.871      7.599
REMARK  Name = 
REMARK  11 active torsions:
REMARK  status: ('A' for Active; 'I' for Inactive)
REMARK    1  A    between atoms: C_1  and  O_2
REMARK    2  A    between atoms: O_2  and  C_3
REMARK    3  A    between atoms: C_6  and  N_7
REMARK    4  A    between atoms: C_9  and  C_10
REMARK    5  A    between atoms: C_10  and  C_12
REMARK    6  A    between atoms: C_14  and  O_15
REMARK    7  A    between atoms: O_15  and  C_16
REMARK    8  A    between atoms: C_17  and  O_18
REMARK    9  A    between atoms: O_18  and  C_19
REMARK   10  A    between atoms: C_20  and  O_21
REMARK   11  A    between atoms: O_21  and  C_22
REMARK                            x       y       z     vdW  Elec       q    Type
REMARK                         _______ _______ _______ _____ _____    ______ ____
ROOT
ATOM      1  C   UNL     1       2.499   7.796  18.263  0.00  0.00    +0.000 C 
ATOM      2  O   UNL     1       2.822   8.491  17.306  0.00  0.00    +0.000 OA
ENDROOT
BRANCH   1   3
ATOM      3  C   UNL     1       2.891   6.359  18.276  0.00  0.00    +0.000 A 
ATOM      4  C   UNL     1       4.235   6.048  18.481  0.00  0.00    +0.000 A 
ATOM      5  C   UNL     1       4.657   4.715  18.489  0.00  0.00    +0.000 A 
ATOM      6  C   UNL     1       3.724   3.677  18.248  0.00  0.00    +0.000 A 
ATOM      7  C   UNL     1       2.370   3.993  18.009  0.00  0.00    +0.000 A 
ATOM      8  C   UNL     1       1.969   5.336  18.026  0.00  0.00    +0.000 A 
BRANCH   5   9
ATOM      9  O   UNL     1       5.962   4.348  18.707  0.00  0.00    +0.000 OA
ATOM     10  C   UNL     1       6.938   4.974  17.878  0.00  0.00    +0.000 C 
ENDBRANCH   5   9
BRANCH   6  11
ATOM     11  O   UNL     1       4.264   2.413  18.197  0.00  0.00    +0.000 OA
ATOM     12  C   UNL     1       4.211   1.633  19.385  0.00  0.00    +0.000 C 
ENDBRANCH   6  11
BRANCH   7  13
ATOM     13  O   UNL     1       1.505   2.968  17.728  0.00  0.00    +0.000 OA
ATOM     14  C   UNL     1       0.717   2.431  18.784  0.00  0.00    +0.000 C 
ENDBRANCH   7  13
ENDBRANCH   1   3
BRANCH   1  17
ATOM     15  N   UNL     1       0.424   9.561  20.688  0.00  0.00    +0.000 N 
ATOM     16  C   UNL     1       0.878   9.414  19.391  0.00  0.00    +0.000 A 
ATOM     17  C   UNL     1       1.744   8.341  19.374  0.00  0.00    +0.000 A 
ATOM     18  C   UNL     1       1.695   7.850  20.691  0.00  0.00    +0.000 A 
ATOM     19  N   UNL     1       0.935   8.595  21.494  0.00  0.00    +0.000 NA
BRANCH  15  23
ATOM     20  C   UNL     1      -2.156  12.568  22.163  0.00  0.00    +0.000 A 
ATOM     21  C   UNL     1      -1.579  11.649  23.041  0.00  0.00    +0.000 A 
ATOM     22  C   UNL     1      -0.721  10.653  22.570  0.00  0.00    +0.000 A 
ATOM     23  C   UNL     1      -0.445  10.562  21.199  0.00  0.00    +0.000 A 
ATOM     24  C   UNL     1      -1.044  11.470  20.316  0.00  0.00    +0.000 A 
ATOM     25  C   UNL     1      -1.900  12.466  20.797  0.00  0.00    +0.000 A 
BRANCH  20  27
ATOM     26  C   UNL     1      -4.072  12.961  23.483  0.00  0.00    +0.000 C 
ATOM     27  O   UNL     1      -2.976  13.494  22.747  0.00  0.00    +0.000 OA
ENDBRANCH  20  27
ENDBRANCH  15  23
ENDBRANCH   1  17
TORSDOF 7
ENDMDL
MODEL 8
REMARK VINA RESULT:      -7.1      5.432      9.212
REMARK  Name = 
REMARK  11 active torsions:
REMARK  status: ('A' for Active; 'I' for Inactive)
REMARK    1  A    between atoms: C_1  and  O_2
REMARK    2  A    between atoms: O_2  and  C_3
REMARK    3  A    between atoms: C_6  and  N_7
REMARK    4  A    between atoms: C_9  and  C_10
REMARK    5  A    between atoms: C_10  and  C_12
REMARK    6  A    between atoms: C_14  and  O_15
REMARK    7  A    between atoms: O_15  and  C_16
REMARK    8  A    between atoms: C_17  and  O_18
REMARK    9  A    between atoms: O_18  and  C_19
REMARK   10  A    between atoms: C_20  and  O_21
REMARK   11  A    between atoms: O_21  and  C_22
REMARK                            x       y       z     vdW  Elec       q    Type
REMARK                         _______ _______ _______ _____ _____    ______ ____
ROOT
ATOM      1  C   UNL     1       0.551  10.732  18.853  0.00  0.00    +0.000 C 
ATOM      2  O   UNL     1       1.306  11.669  18.617  0.00  0.00    +0.000 OA
ENDROOT
BRANCH   1   3
ATOM      3  C   UNL     1      -0.888  10.855  18.489  0.00  0.00    +0.000 A 
ATOM      4  C   UNL     1      -1.717  11.590  19.337  0.00  0.00    +0.000 A 
ATOM      5  C   UNL     1      -3.079  11.724  19.049  0.00  0.00    +0.000 A 
ATOM      6  C   UNL     1      -3.627  11.081  17.913  0.00  0.00    +0.000 A 
ATOM      7  C   UNL     1      -2.795  10.312  17.072  0.00  0.00    +0.000 A 
ATOM      8  C   UNL     1      -1.430  10.209  17.373  0.00  0.00    +0.000 A 
BRANCH   5   9
ATOM      9  O   UNL     1      -3.938  12.452  19.835  0.00  0.00    +0.000 OA
ATOM     10  C   UNL     1      -3.352  13.141  20.936  0.00  0.00    +0.000 C 
ENDBRANCH   5   9
BRANCH   6  11
ATOM     11  O   UNL     1      -4.989  11.214  17.773  0.00  0.00    +0.000 OA
ATOM     12  C   UNL     1      -5.460  12.269  16.943  0.00  0.00    +0.000 C 
ENDBRANCH   6  11
BRANCH   7  13
ATOM     13  O   UNL     1      -3.369   9.661  16.011  0.00  0.00    +0.000 OA
ATOM     14  C   UNL     1      -3.092  10.125  14.695  0.00  0.00    +0.000 C 
ENDBRANCH   7  13
ENDBRANCH   1   3
BRANCH   1  17
ATOM     15  N   UNL     1       1.905   7.513  19.905  0.00  0.00    +0.000 N 
ATOM     16  C   UNL     1       1.675   8.441  18.906  0.00  0.00    +0.000 A 
ATOM     17  C   UNL     1       1.028   9.515  19.480  0.00  0.00    +0.000 A 
ATOM     18  C   UNL     1       0.976   9.185  20.845  0.00  0.00    +0.000 A 
ATOM     19  N   UNL     1       1.466   7.973  21.105  0.00  0.00    +0.000 NA
BRANCH  15  23
ATOM     20  C   UNL     1       3.647   3.674  19.588  0.00  0.00    +0.000 A 
ATOM     21  C   UNL     1       4.090   4.712  18.768  0.00  0.00    +0.000 A 
ATOM     22  C   UNL     1       3.527   5.988  18.863  0.00  0.00    +0.000 A 
ATOM     23  C   UNL     1       2.497   6.228  19.782  0.00  0.00    +0.000 A 
ATOM     24  C   UNL     1       2.037   5.178  20.588  0.00  0.00    +0.000 A 
ATOM     25  C   UNL     1       2.607   3.904  20.487  0.00  0.00    +0.000 A 
BRANCH  20  27
ATOM     26  C   UNL     1       3.585   1.546  18.571  0.00  0.00    +0.000 C 
ATOM     27  O   UNL     1       4.277   2.474  19.399  0.00  0.00    +0.000 OA
ENDBRANCH  20  27
ENDBRANCH  15  23
ENDBRANCH   1  17
TORSDOF 7
ENDMDL
MODEL 9
REMARK VINA RESULT:      -7.0      1.505      2.957
REMARK  Name = 
REMARK  11 active torsions:
REMARK  status: ('A' for Active; 'I' for Inactive)
REMARK    1  A    between atoms: C_1  and  O_2
REMARK    2  A    between atoms: O_2  and  C_3
REMARK    3  A    between atoms: C_6  and  N_7
REMARK    4  A    between atoms: C_9  and  C_10
REMARK    5  A    between atoms: C_10  and  C_12
REMARK    6  A    between atoms: C_14  and  O_15
REMARK    7  A    between atoms: O_15  and  C_16
REMARK    8  A    between atoms: C_17  and  O_18
REMARK    9  A    between atoms: O_18  and  C_19
REMARK   10  A    between atoms: C_20  and  O_21
REMARK   11  A    between atoms: O_21  and  C_22
REMARK                            x       y       z     vdW  Elec       q    Type
REMARK                         _______ _______ _______ _____ _____    ______ ____
ROOT
ATOM      1  C   UNL     1       7.171   5.515  18.460  0.00  0.00    +0.000 C 
ATOM      2  O   UNL     1       7.964   4.580  18.441  0.00  0.00    +0.000 OA
ENDROOT
BRANCH   1   3
ATOM      3  C   UNL     1       5.731   5.236  18.716  0.00  0.00    +0.000 A 
ATOM      4  C   UNL     1       5.348   3.912  18.930  0.00  0.00    +0.000 A 
ATOM      5  C   UNL     1       4.006   3.595  19.160  0.00  0.00    +0.000 A 
ATOM      6  C   UNL     1       3.025   4.615  19.140  0.00  0.00    +0.000 A 
ATOM      7  C   UNL     1       3.408   5.951  18.893  0.00  0.00    +0.000 A 
ATOM      8  C   UNL     1       4.762   6.245  18.684  0.00  0.00    +0.000 A 
BRANCH   5   9
ATOM      9  O   UNL     1       3.574   2.312  19.397  0.00  0.00    +0.000 OA
ATOM     10  C   UNL     1       3.572   1.433  18.277  0.00  0.00    +0.000 C 
ENDBRANCH   5   9
BRANCH   6  11
ATOM     11  O   UNL     1       1.730   4.178  19.298  0.00  0.00    +0.000 OA
ATOM     12  C   UNL     1       1.141   4.335  20.582  0.00  0.00    +0.000 C 
ENDBRANCH   6  11
BRANCH   7  13
ATOM     13  O   UNL     1       2.426   6.906  18.830  0.00  0.00    +0.000 OA
ATOM     14  C   UNL     1       2.574   7.976  17.906  0.00  0.00    +0.000 C 
ENDBRANCH   7  13
ENDBRANCH   1   3
BRANCH   1  17
ATOM     15  N   UNL     1       8.532   8.898  18.394  0.00  0.00    +0.000 N 
ATOM     16  C   UNL     1       8.436   7.664  19.008  0.00  0.00    +0.000 A 
ATOM     17  C   UNL     1       7.606   6.880  18.235  0.00  0.00    +0.000 A 
ATOM     18  C   UNL     1       7.307   7.696  17.130  0.00  0.00    +0.000 A 
ATOM     19  N   UNL     1       7.827   8.919  17.233  0.00  0.00    +0.000 NA
BRANCH  15  23
ATOM     20  C   UNL     1      10.653  12.316  19.697  0.00  0.00    +0.000 A 
ATOM     21  C   UNL     1       9.972  11.521  20.621  0.00  0.00    +0.000 A 
ATOM     22  C   UNL     1       9.270  10.387  20.206  0.00  0.00    +0.000 A 
ATOM     23  C   UNL     1       9.235  10.046  18.848  0.00  0.00    +0.000 A 
ATOM     24  C   UNL     1       9.900  10.859  17.919  0.00  0.00    +0.000 A 
ATOM     25  C   UNL     1      10.602  11.992  18.343  0.00  0.00    +0.000 A 
BRANCH  20  27
ATOM     26  C   UNL     1      11.777  14.349  19.281  0.00  0.00    +0.000 C 
ATOM     27  O   UNL     1      11.301  13.398  20.228  0.00  0.00    +0.000 OA
ENDBRANCH  20  27
ENDBRANCH  15  23
ENDBRANCH   1  17
TORSDOF 7
ENDMDL
