MODEL 1
REMARK VINA RESULT:      -5.0      0.000      0.000
REMARK  Name = 
REMARK  8 active torsions:
REMARK  status: ('A' for Active; 'I' for Inactive)
REMARK    1  A    between atoms: C_1  and  C_2
REMARK    2  A    between atoms: C_2  and  O_4
REMARK    3  A    between atoms: O_4  and  C_5
REMARK    4  A    between atoms: C_5  and  C_6
REMARK    5  A    between atoms: C_6  and  C_7
REMARK    6  A    between atoms: C_6  and  O_9
REMARK    7  A    between atoms: O_9  and  C_10
REMARK    8  A    between atoms: C_10  and  C_11
REMARK                            x       y       z     vdW  Elec       q    Type
REMARK                         _______ _______ _______ _____ _____    ______ ____
ROOT
ATOM      1  C   UNL     1       5.454   4.507  18.055  0.00  0.00    +0.000 C 
ENDROOT
BRANCH   1   2
ATOM      2  C   UNL     1       4.660   3.599  18.999  0.00  0.00    +0.000 C 
ATOM      3  F   UNL     1       3.367   3.521  18.587  0.00  0.00    +0.000 F 
ENDBRANCH   1   2
BRANCH   1   4
ATOM      4  C   UNL     1       5.193   4.111  16.600  0.00  0.00    +0.000 C 
BRANCH   4   5
ATOM      5  O   UNL     1       5.564   5.192  15.728  0.00  0.00    +0.000 OA
BRANCH   5   7
ATOM      6  C   UNL     1       6.171   3.929  13.848  0.00  0.00    +0.000 C 
ATOM      7  C   UNL     1       6.597   4.923  14.882  0.00  0.00    +0.000 C 
ATOM      8  O   UNL     1       7.719   5.407  14.962  0.00  0.00    +0.000 OA
ENDBRANCH   5   7
ENDBRANCH   4   5
ENDBRANCH   1   4
BRANCH   1   9
ATOM      9  O   UNL     1       6.906   4.476  18.343  0.00  0.00    +0.000 OA
BRANCH   9  10
ATOM     10  C   UNL     1       7.476   5.506  19.051  0.00  0.00    +0.000 C 
ATOM     11  C   UNL     1       7.738   6.757  18.245  0.00  0.00    +0.000 C 
ATOM     12  O   UNL     1       7.721   5.471  20.238  0.00  0.00    +0.000 OA
ENDBRANCH   9  10
ENDBRANCH   1   9
TORSDOF 6
ENDMDL
MODEL 2
REMARK VINA RESULT:      -4.9      2.528      4.382
REMARK  Name = 
REMARK  8 active torsions:
REMARK  status: ('A' for Active; 'I' for Inactive)
REMARK    1  A    between atoms: C_1  and  C_2
REMARK    2  A    between atoms: C_2  and  O_4
REMARK    3  A    between atoms: O_4  and  C_5
REMARK    4  A    between atoms: C_5  and  C_6
REMARK    5  A    between atoms: C_6  and  C_7
REMARK    6  A    between atoms: C_6  and  O_9
REMARK    7  A    between atoms: O_9  and  C_10
REMARK    8  A    between atoms: C_10  and  C_11
REMARK                            x       y       z     vdW  Elec       q    Type
REMARK                         _______ _______ _______ _____ _____    ______ ____
ROOT
ATOM      1  C   UNL     1       4.186   4.069  18.801  0.00  0.00    +0.000 C 
ENDROOT
BRANCH   1   2
ATOM      2  C   UNL     1       4.336   2.784  19.621  0.00  0.00    +0.000 C 
ATOM      3  F   UNL     1       3.962   1.713  18.874  0.00  0.00    +0.000 F 
ENDBRANCH   1   2
BRANCH   1   4
ATOM      4  C   UNL     1       5.359   5.012  19.082  0.00  0.00    +0.000 C 
BRANCH   4   5
ATOM      5  O   UNL     1       6.601   4.324  18.859  0.00  0.00    +0.000 OA
BRANCH   5   7
ATOM      6  C   UNL     1       7.602   6.377  18.330  0.00  0.00    +0.000 C 
ATOM      7  C   UNL     1       7.448   4.930  17.981  0.00  0.00    +0.000 C 
ATOM      8  O   UNL     1       7.992   4.380  17.032  0.00  0.00    +0.000 OA
ENDBRANCH   5   7
ENDBRANCH   4   5
ENDBRANCH   1   4
BRANCH   1   9
ATOM      9  O   UNL     1       2.902   4.755  19.068  0.00  0.00    +0.000 OA
BRANCH   9  10
ATOM     10  C   UNL     1       1.722   4.088  18.844  0.00  0.00    +0.000 C 
ATOM     11  C   UNL     1       0.903   3.819  20.084  0.00  0.00    +0.000 C 
ATOM     12  O   UNL     1       1.312   3.765  17.749  0.00  0.00    +0.000 OA
ENDBRANCH   9  10
ENDBRANCH   1   9
TORSDOF 6
ENDMDL
MODEL 3
REMARK VINA RESULT:      -4.8      2.293      4.534
REMARK  Name = 
REMARK  8 active torsions:
REMARK  status: ('A' for Active; 'I' for Inactive)
REMARK    1  A    between atoms: C_1  and  C_2
REMARK    2  A    between atoms: C_2  and  O_4
REMARK    3  A    between atoms: O_4  and  C_5
REMARK    4  A    between atoms: C_5  and  C_6
REMARK    5  A    between atoms: C_6  and  C_7
REMARK    6  A    between atoms: C_6  and  O_9
REMARK    7  A    between atoms: O_9  and  C_10
REMARK    8  A    between atoms: C_10  and  C_11
REMARK                            x       y       z     vdW  Elec       q    Type
REMARK                         _______ _______ _______ _____ _____    ______ ____
ROOT
ATOM      1  C   UNL     1       7.047   6.561  17.469  0.00  0.00    +0.000 C 
ENDROOT
BRANCH   1   2
ATOM      2  C   UNL     1       7.785   7.898  17.587  0.00  0.00    +0.000 C 
ATOM      3  F   UNL     1       8.590   7.887  18.682  0.00  0.00    +0.000 F 
ENDBRANCH   1   2
BRANCH   1   4
ATOM      4  C   UNL     1       7.371   5.673  18.673  0.00  0.00    +0.000 C 
BRANCH   4   5
ATOM      5  O   UNL     1       6.603   4.460  18.603  0.00  0.00    +0.000 OA
BRANCH   5   7
ATOM      6  C   UNL     1       4.500   3.727  17.869  0.00  0.00    +0.000 C 
ATOM      7  C   UNL     1       5.264   4.611  18.804  0.00  0.00    +0.000 C 
ATOM      8  O   UNL     1       4.754   5.373  19.616  0.00  0.00    +0.000 OA
ENDBRANCH   5   7
ENDBRANCH   4   5
ENDBRANCH   1   4
BRANCH   1   9
ATOM      9  O   UNL     1       7.372   5.855  16.209  0.00  0.00    +0.000 OA
BRANCH   9  10
ATOM     10  C   UNL     1       6.365   5.563  15.321  0.00  0.00    +0.000 C 
ATOM     11  C   UNL     1       6.538   4.259  14.578  0.00  0.00    +0.000 C 
ATOM     12  O   UNL     1       5.378   6.246  15.152  0.00  0.00    +0.000 OA
ENDBRANCH   9  10
ENDBRANCH   1   9
TORSDOF 6
ENDMDL
MODEL 4
REMARK VINA RESULT:      -4.8      2.901      4.483
REMARK  Name = 
REMARK  8 active torsions:
REMARK  status: ('A' for Active; 'I' for Inactive)
REMARK    1  A    between atoms: C_1  and  C_2
REMARK    2  A    between atoms: C_2  and  O_4
REMARK    3  A    between atoms: O_4  and  C_5
REMARK    4  A    between atoms: C_5  and  C_6
REMARK    5  A    between atoms: C_6  and  C_7
REMARK    6  A    between atoms: C_6  and  O_9
REMARK    7  A    between atoms: O_9  and  C_10
REMARK    8  A    between atoms: C_10  and  C_11
REMARK                            x       y       z     vdW  Elec       q    Type
REMARK                         _______ _______ _______ _____ _____    ______ ____
ROOT
ATOM      1  C   UNL     1       3.282   3.532  18.859  0.00  0.00    +0.000 C 
ENDROOT
BRANCH   1   2
ATOM      2  C   UNL     1       3.295   2.390  17.838  0.00  0.00    +0.000 C 
ATOM      3  F   UNL     1       3.599   1.220  18.458  0.00  0.00    +0.000 F 
ENDBRANCH   1   2
BRANCH   1   4
ATOM      4  C   UNL     1       4.417   4.515  18.563  0.00  0.00    +0.000 C 
BRANCH   4   5
ATOM      5  O   UNL     1       5.671   3.950  18.980  0.00  0.00    +0.000 OA
BRANCH   5   7
ATOM      6  C   UNL     1       7.397   4.761  17.615  0.00  0.00    +0.000 C 
ATOM      7  C   UNL     1       6.729   4.809  18.953  0.00  0.00    +0.000 C 
ATOM      8  O   UNL     1       7.096   5.505  19.891  0.00  0.00    +0.000 OA
ENDBRANCH   5   7
ENDBRANCH   4   5
ENDBRANCH   1   4
BRANCH   1   9
ATOM      9  O   UNL     1       3.382   3.037  20.250  0.00  0.00    +0.000 OA
BRANCH   9  10
ATOM     10  C   UNL     1       2.345   3.263  21.122  0.00  0.00    +0.000 C 
ATOM     11  C   UNL     1       1.107   3.856  20.492  0.00  0.00    +0.000 C 
ATOM     12  O   UNL     1       2.364   2.979  22.302  0.00  0.00    +0.000 OA
ENDBRANCH   9  10
ENDBRANCH   1   9
TORSDOF 6
ENDMDL
MODEL 5
REMARK VINA RESULT:      -4.7      2.446      4.298
REMARK  Name = 
REMARK  8 active torsions:
REMARK  status: ('A' for Active; 'I' for Inactive)
REMARK    1  A    between atoms: C_1  and  C_2
REMARK    2  A    between atoms: C_2  and  O_4
REMARK    3  A    between atoms: O_4  and  C_5
REMARK    4  A    between atoms: C_5  and  C_6
REMARK    5  A    between atoms: C_6  and  C_7
REMARK    6  A    between atoms: C_6  and  O_9
REMARK    7  A    between atoms: O_9  and  C_10
REMARK    8  A    between atoms: C_10  and  C_11
REMARK                            x       y       z     vdW  Elec       q    Type
REMARK                         _______ _______ _______ _____ _____    ______ ____
ROOT
ATOM      1  C   UNL     1       4.029   4.661  18.940  0.00  0.00    +0.000 C 
ENDROOT
BRANCH   1   2
ATOM      2  C   UNL     1       3.331   5.489  17.857  0.00  0.00    +0.000 C 
ATOM      3  F   UNL     1       2.006   5.596  18.139  0.00  0.00    +0.000 F 
ENDBRANCH   1   2
BRANCH   1   4
ATOM      4  C   UNL     1       5.435   5.209  19.198  0.00  0.00    +0.000 C 
BRANCH   4   5
ATOM      5  O   UNL     1       6.417   4.262  18.743  0.00  0.00    +0.000 OA
BRANCH   5   7
ATOM      6  C   UNL     1       7.788   6.163  18.675  0.00  0.00    +0.000 C 
ATOM      7  C   UNL     1       7.496   4.806  18.115  0.00  0.00    +0.000 C 
ATOM      8  O   UNL     1       8.127   4.275  17.209  0.00  0.00    +0.000 OA
ENDBRANCH   5   7
ENDBRANCH   4   5
ENDBRANCH   1   4
BRANCH   1   9
ATOM      9  O   UNL     1       4.095   3.225  18.588  0.00  0.00    +0.000 OA
BRANCH   9  10
ATOM     10  C   UNL     1       2.939   2.483  18.562  0.00  0.00    +0.000 C 
ATOM     11  C   UNL     1       2.193   2.430  19.874  0.00  0.00    +0.000 C 
ATOM     12  O   UNL     1       2.494   1.937  17.574  0.00  0.00    +0.000 OA
ENDBRANCH   9  10
ENDBRANCH   1   9
TORSDOF 6
ENDMDL
MODEL 6
REMARK VINA RESULT:      -4.7      2.797      4.837
REMARK  Name = 
REMARK  8 active torsions:
REMARK  status: ('A' for Active; 'I' for Inactive)
REMARK    1  A    between atoms: C_1  and  C_2
REMARK    2  A    between atoms: C_2  and  O_4
REMARK    3  A    between atoms: O_4  and  C_5
REMARK    4  A    between atoms: C_5  and  C_6
REMARK    5  A    between atoms: C_6  and  C_7
REMARK    6  A    between atoms: C_6  and  O_9
REMARK    7  A    between atoms: O_9  and  C_10
REMARK    8  A    between atoms: C_10  and  C_11
REMARK                            x       y       z     vdW  Elec       q    Type
REMARK                         _______ _______ _______ _____ _____    ______ ____
ROOT
ATOM      1  C   UNL     1       4.564   3.802  18.158  0.00  0.00    +0.000 C 
ENDROOT
BRANCH   1   2
ATOM      2  C   UNL     1       3.244   4.314  17.574  0.00  0.00    +0.000 C 
ATOM      3  F   UNL     1       2.712   3.379  16.744  0.00  0.00    +0.000 F 
ENDBRANCH   1   2
BRANCH   1   4
ATOM      4  C   UNL     1       4.351   3.314  19.593  0.00  0.00    +0.000 C 
BRANCH   4   5
ATOM      5  O   UNL     1       3.116   2.584  19.681  0.00  0.00    +0.000 OA
BRANCH   5   7
ATOM      6  C   UNL     1       1.096   3.452  20.498  0.00  0.00    +0.000 C 
ATOM      7  C   UNL     1       2.401   2.794  20.821  0.00  0.00    +0.000 C 
ATOM      8  O   UNL     1       2.775   2.506  21.952  0.00  0.00    +0.000 OA
ENDBRANCH   5   7
ENDBRANCH   4   5
ENDBRANCH   1   4
BRANCH   1   9
ATOM      9  O   UNL     1       5.627   4.831  18.119  0.00  0.00    +0.000 OA
BRANCH   9  10
ATOM     10  C   UNL     1       6.812   4.554  17.481  0.00  0.00    +0.000 C 
ATOM     11  C   UNL     1       6.712   4.458  15.977  0.00  0.00    +0.000 C 
ATOM     12  O   UNL     1       7.882   4.436  18.040  0.00  0.00    +0.000 OA
ENDBRANCH   9  10
ENDBRANCH   1   9
TORSDOF 6
ENDMDL
MODEL 7
REMARK VINA RESULT:      -4.7      2.749      4.350
REMARK  Name = 
REMARK  8 active torsions:
REMARK  status: ('A' for Active; 'I' for Inactive)
REMARK    1  A    between atoms: C_1  and  C_2
REMARK    2  A    between atoms: C_2  and  O_4
REMARK    3  A    between atoms: O_4  and  C_5
REMARK    4  A    between atoms: C_5  and  C_6
REMARK    5  A    between atoms: C_6  and  C_7
REMARK    6  A    between atoms: C_6  and  O_9
REMARK    7  A    between atoms: O_9  and  C_10
REMARK    8  A    between atoms: C_10  and  C_11
REMARK                            x       y       z     vdW  Elec       q    Type
REMARK                         _______ _______ _______ _____ _____    ______ ____
ROOT
ATOM      1  C   UNL     1       3.827   4.388  18.939  0.00  0.00    +0.000 C 
ENDROOT
BRANCH   1   2
ATOM      2  C   UNL     1       4.027   2.903  18.620  0.00  0.00    +0.000 C 
ATOM      3  F   UNL     1       3.113   2.502  17.697  0.00  0.00    +0.000 F 
ENDBRANCH   1   2
BRANCH   1   4
ATOM      4  C   UNL     1       5.169   5.122  18.889  0.00  0.00    +0.000 C 
BRANCH   4   5
ATOM      5  O   UNL     1       6.218   4.196  18.559  0.00  0.00    +0.000 OA
BRANCH   5   7
ATOM      6  C   UNL     1       7.578   6.105  18.643  0.00  0.00    +0.000 C 
ATOM      7  C   UNL     1       7.341   4.759  18.032  0.00  0.00    +0.000 C 
ATOM      8  O   UNL     1       8.048   4.251  17.170  0.00  0.00    +0.000 OA
ENDBRANCH   5   7
ENDBRANCH   4   5
ENDBRANCH   1   4
BRANCH   1   9
ATOM      9  O   UNL     1       3.180   4.593  20.254  0.00  0.00    +0.000 OA
BRANCH   9  10
ATOM     10  C   UNL     1       1.984   3.973  20.521  0.00  0.00    +0.000 C 
ATOM     11  C   UNL     1       1.997   3.069  21.731  0.00  0.00    +0.000 C 
ATOM     12  O   UNL     1       0.963   4.146  19.889  0.00  0.00    +0.000 OA
ENDBRANCH   9  10
ENDBRANCH   1   9
TORSDOF 6
ENDMDL
MODEL 8
REMARK VINA RESULT:      -4.7      2.503      4.325
REMARK  Name = 
REMARK  8 active torsions:
REMARK  status: ('A' for Active; 'I' for Inactive)
REMARK    1  A    between atoms: C_1  and  C_2
REMARK    2  A    between atoms: C_2  and  O_4
REMARK    3  A    between atoms: O_4  and  C_5
REMARK    4  A    between atoms: C_5  and  C_6
REMARK    5  A    between atoms: C_6  and  C_7
REMARK    6  A    between atoms: C_6  and  O_9
REMARK    7  A    between atoms: O_9  and  C_10
REMARK    8  A    between atoms: C_10  and  C_11
REMARK                            x       y       z     vdW  Elec       q    Type
REMARK                         _______ _______ _______ _____ _____    ______ ____
ROOT
ATOM      1  C   UNL     1       3.976   4.557  19.332  0.00  0.00    +0.000 C 
ENDROOT
BRANCH   1   2
ATOM      2  C   UNL     1       2.983   5.604  19.848  0.00  0.00    +0.000 C 
ATOM      3  F   UNL     1       2.362   5.141  20.965  0.00  0.00    +0.000 F 
ENDBRANCH   1   2
BRANCH   1   4
ATOM      4  C   UNL     1       5.363   5.183  19.169  0.00  0.00    +0.000 C 
BRANCH   4   5
ATOM      5  O   UNL     1       6.258   4.233  18.567  0.00  0.00    +0.000 OA
BRANCH   5   7
ATOM      6  C   UNL     1       6.997   6.214  17.552  0.00  0.00    +0.000 C 
ATOM      7  C   UNL     1       7.286   4.778  17.858  0.00  0.00    +0.000 C 
ATOM      8  O   UNL     1       8.294   4.179  17.504  0.00  0.00    +0.000 OA
ENDBRANCH   5   7
ENDBRANCH   4   5
ENDBRANCH   1   4
BRANCH   1   9
ATOM      9  O   UNL     1       3.533   3.952  18.056  0.00  0.00    +0.000 OA
BRANCH   9  10
ATOM     10  C   UNL     1       2.283   3.389  17.974  0.00  0.00    +0.000 C 
ATOM     11  C   UNL     1       2.096   2.142  18.806  0.00  0.00    +0.000 C 
ATOM     12  O   UNL     1       1.362   3.851  17.335  0.00  0.00    +0.000 OA
ENDBRANCH   9  10
ENDBRANCH   1   9
TORSDOF 6
ENDMDL
MODEL 9
REMARK VINA RESULT:      -4.7      2.615      4.401
REMARK  Name = 
REMARK  8 active torsions:
REMARK  status: ('A' for Active; 'I' for Inactive)
REMARK    1  A    between atoms: C_1  and  C_2
REMARK    2  A    between atoms: C_2  and  O_4
REMARK    3  A    between atoms: O_4  and  C_5
REMARK    4  A    between atoms: C_5  and  C_6
REMARK    5  A    between atoms: C_6  and  C_7
REMARK    6  A    between atoms: C_6  and  O_9
REMARK    7  A    between atoms: O_9  and  C_10
REMARK    8  A    between atoms: C_10  and  C_11
REMARK                            x       y       z     vdW  Elec       q    Type
REMARK                         _______ _______ _______ _____ _____    ______ ____
ROOT
ATOM      1  C   UNL     1       4.152   5.434  18.026  0.00  0.00    +0.000 C 
ENDROOT
BRANCH   1   2
ATOM      2  C   UNL     1       4.419   6.531  16.991  0.00  0.00    +0.000 C 
ATOM      3  F   UNL     1       5.410   7.351  17.432  0.00  0.00    +0.000 F 
ENDBRANCH   1   2
BRANCH   1   4
ATOM      4  C   UNL     1       5.323   5.340  19.008  0.00  0.00    +0.000 C 
BRANCH   4   5
ATOM      5  O   UNL     1       6.242   4.324  18.574  0.00  0.00    +0.000 OA
BRANCH   5   7
ATOM      6  C   UNL     1       7.920   5.912  18.976  0.00  0.00    +0.000 C 
ATOM      7  C   UNL     1       7.439   4.785  18.116  0.00  0.00    +0.000 C 
ATOM      8  O   UNL     1       8.031   4.357  17.133  0.00  0.00    +0.000 OA
ENDBRANCH   5   7
ENDBRANCH   4   5
ENDBRANCH   1   4
BRANCH   1   9
ATOM      9  O   UNL     1       3.908   4.119  17.393  0.00  0.00    +0.000 OA
BRANCH   9  10
ATOM     10  C   UNL     1       2.662   3.548  17.482  0.00  0.00    +0.000 C 
ATOM     11  C   UNL     1       1.586   4.461  18.020  0.00  0.00    +0.000 C 
ATOM     12  O   UNL     1       2.395   2.420  17.123  0.00  0.00    +0.000 OA
ENDBRANCH   9  10
ENDBRANCH   1   9
TORSDOF 6
ENDMDL
