MODEL 1
REMARK VINA RESULT:      -7.6      0.000      0.000
REMARK  Name = 
REMARK  9 active torsions:
REMARK  status: ('A' for Active; 'I' for Inactive)
REMARK    1  A    between atoms: C_1  and  C_2
REMARK    2  A    between atoms: C_2  and  N_3
REMARK    3  A    between atoms: N_3  and  C_4
REMARK    4  A    between atoms: N_3  and  C_6
REMARK    5  A    between atoms: C_4  and  C_5
REMARK    6  A    between atoms: C_9  and  N_10
REMARK    7  A    between atoms: C_14  and  C_15
REMARK    8  A    between atoms: C_16  and  N_17
REMARK    9  A    between atoms: C_18  and  C_20
REMARK                            x       y       z     vdW  Elec       q    Type
REMARK                         _______ _______ _______ _____ _____    ______ ____
ROOT
ATOM      1  N   UNL     1       1.360   8.802  19.652  0.00  0.00    +0.000 N 
ATOM      2  N   UNL     1       0.667   9.592  18.812  0.00  0.00    +0.000 NA
ATOM      3  C   UNL     1       0.131  10.497  19.619  0.00  0.00    +0.000 A 
ATOM      4  C   UNL     1      -0.493  11.676  19.230  0.00  0.00    +0.000 A 
ATOM      5  C   UNL     1      -0.792  12.548  20.289  0.00  0.00    +0.000 A 
ATOM      6  C   UNL     1      -1.061  13.978  19.890  0.00  0.00    +0.000 C 
ATOM      7  C   UNL     1      -0.800  12.115  21.659  0.00  0.00    +0.000 A 
ATOM      8  C   UNL     1      -0.228  10.871  22.065  0.00  0.00    +0.000 A 
ATOM      9  C   UNL     1       0.338  10.101  21.004  0.00  0.00    +0.000 A 
ATOM     10  N   UNL     1       1.137   9.002  20.990  0.00  0.00    +0.000 NA
ENDROOT
BRANCH   1  14
ATOM     11  C   UNL     1       4.185   5.926  18.175  0.00  0.00    +0.000 A 
ATOM     12  C   UNL     1       3.426   5.717  19.326  0.00  0.00    +0.000 A 
ATOM     13  C   UNL     1       2.487   6.652  19.773  0.00  0.00    +0.000 A 
ATOM     14  C   UNL     1       2.254   7.849  19.075  0.00  0.00    +0.000 A 
ATOM     15  C   UNL     1       2.904   8.039  17.864  0.00  0.00    +0.000 A 
ATOM     16  C   UNL     1       3.849   7.079  17.428  0.00  0.00    +0.000 A 
BRANCH  11  17
ATOM     17  N   UNL     1       5.228   5.058  17.812  0.00  0.00    +0.000 N 
BRANCH  17  19
ATOM     18  C   UNL     1       7.407   6.231  18.134  0.00  0.00    +0.000 C 
ATOM     19  C   UNL     1       6.512   5.059  18.536  0.00  0.00    +0.000 C 
ENDBRANCH  17  19
BRANCH  17  20
ATOM     20  C   UNL     1       4.992   4.102  16.714  0.00  0.00    +0.000 C 
ATOM     21  C   UNL     1       5.469   4.508  15.329  0.00  0.00    +0.000 C 
ENDBRANCH  17  20
ENDBRANCH  11  17
ENDBRANCH   1  14
BRANCH   7  22
ATOM     22  N   UNL     1      -1.339  13.034  22.606  0.00  0.00    +0.000 N 
ATOM     23  C   UNL     1      -2.605  12.928  23.177  0.00  0.00    +0.000 C 
ATOM     24  O   UNL     1      -3.307  11.921  23.128  0.00  0.00    +0.000 OA
ATOM     25  H   UNL     1      -1.036  13.993  22.491  0.00  0.00    +0.000 HD
BRANCH  23  26
ATOM     26  C   UNL     1      -3.154  14.184  23.822  0.00  0.00    +0.000 A 
ATOM     27  C   UNL     1      -2.368  14.894  24.744  0.00  0.00    +0.000 A 
ATOM     28  C   UNL     1      -2.843  16.070  25.350  0.00  0.00    +0.000 A 
ATOM     29  C   UNL     1      -4.117  16.551  25.049  0.00  0.00    +0.000 A 
ATOM     30  C   UNL     1      -4.919  15.848  24.156  0.00  0.00    +0.000 A 
ATOM     31  C   UNL     1      -4.445  14.683  23.561  0.00  0.00    +0.000 A 
ATOM     32  F   UNL     1      -5.264  14.029  22.724  0.00  0.00    +0.000 F 
ENDBRANCH  23  26
ENDBRANCH   7  22
TORSDOF 6
ENDMDL
MODEL 2
REMARK VINA RESULT:      -7.6      4.220     11.925
REMARK  Name = 
REMARK  9 active torsions:
REMARK  status: ('A' for Active; 'I' for Inactive)
REMARK    1  A    between atoms: C_1  and  C_2
REMARK    2  A    between atoms: C_2  and  N_3
REMARK    3  A    between atoms: N_3  and  C_4
REMARK    4  A    between atoms: N_3  and  C_6
REMARK    5  A    between atoms: C_4  and  C_5
REMARK    6  A    between atoms: C_9  and  N_10
REMARK    7  A    between atoms: C_14  and  C_15
REMARK    8  A    between atoms: C_16  and  N_17
REMARK    9  A    between atoms: C_18  and  C_20
REMARK                            x       y       z     vdW  Elec       q    Type
REMARK                         _______ _______ _______ _____ _____    ______ ____
ROOT
ATOM      1  N   UNL     1       1.337   8.654  20.051  0.00  0.00    +0.000 N 
ATOM      2  N   UNL     1       1.575   7.494  20.688  0.00  0.00    +0.000 NA
ATOM      3  C   UNL     1       2.308   6.814  19.817  0.00  0.00    +0.000 A 
ATOM      4  C   UNL     1       3.008   5.641  20.073  0.00  0.00    +0.000 A 
ATOM      5  C   UNL     1       3.862   5.240  19.033  0.00  0.00    +0.000 A 
ATOM      6  C   UNL     1       4.933   4.252  19.423  0.00  0.00    +0.000 C 
ATOM      7  C   UNL     1       3.747   5.767  17.701  0.00  0.00    +0.000 A 
ATOM      8  C   UNL     1       2.970   6.929  17.409  0.00  0.00    +0.000 A 
ATOM      9  C   UNL     1       2.319   7.510  18.540  0.00  0.00    +0.000 A 
ATOM     10  N   UNL     1       1.684   8.697  18.725  0.00  0.00    +0.000 NA
ENDROOT
BRANCH   1  14
ATOM     11  C   UNL     1      -0.650  11.699  22.336  0.00  0.00    +0.000 A 
ATOM     12  C   UNL     1      -0.604  10.364  22.735  0.00  0.00    +0.000 A 
ATOM     13  C   UNL     1       0.076   9.393  21.994  0.00  0.00    +0.000 A 
ATOM     14  C   UNL     1       0.759   9.717  20.810  0.00  0.00    +0.000 A 
ATOM     15  C   UNL     1       0.834  11.054  20.442  0.00  0.00    +0.000 A 
ATOM     16  C   UNL     1       0.141  12.022  21.208  0.00  0.00    +0.000 A 
BRANCH  11  17
ATOM     17  N   UNL     1      -1.453  12.640  23.000  0.00  0.00    +0.000 N 
BRANCH  17  19
ATOM     18  C   UNL     1      -3.903  12.660  22.524  0.00  0.00    +0.000 C 
ATOM     19  C   UNL     1      -2.793  12.283  23.504  0.00  0.00    +0.000 C 
ENDBRANCH  17  19
BRANCH  17  20
ATOM     20  C   UNL     1      -0.906  13.989  23.230  0.00  0.00    +0.000 C 
ATOM     21  C   UNL     1      -1.438  14.756  24.430  0.00  0.00    +0.000 C 
ENDBRANCH  17  20
ENDBRANCH  11  17
ENDBRANCH   1  14
BRANCH   7  22
ATOM     22  N   UNL     1       4.518   5.112  16.697  0.00  0.00    +0.000 N 
ATOM     23  C   UNL     1       5.549   5.710  15.977  0.00  0.00    +0.000 C 
ATOM     24  O   UNL     1       6.078   6.778  16.277  0.00  0.00    +0.000 OA
ATOM     25  H   UNL     1       4.020   4.410  16.166  0.00  0.00    +0.000 HD
BRANCH  23  26
ATOM     26  C   UNL     1       5.964   5.012  14.698  0.00  0.00    +0.000 A 
ATOM     27  C   UNL     1       5.061   4.151  14.051  0.00  0.00    +0.000 A 
ATOM     28  C   UNL     1       5.410   3.498  12.857  0.00  0.00    +0.000 A 
ATOM     29  C   UNL     1       6.671   3.688  12.293  0.00  0.00    +0.000 A 
ATOM     30  C   UNL     1       7.586   4.517  12.932  0.00  0.00    +0.000 A 
ATOM     31  C   UNL     1       7.238   5.160  14.116  0.00  0.00    +0.000 A 
ATOM     32  F   UNL     1       8.163   5.932  14.707  0.00  0.00    +0.000 F 
ENDBRANCH  23  26
ENDBRANCH   7  22
TORSDOF 6
ENDMDL
MODEL 3
REMARK VINA RESULT:      -7.5      1.344      2.008
REMARK  Name = 
REMARK  9 active torsions:
REMARK  status: ('A' for Active; 'I' for Inactive)
REMARK    1  A    between atoms: C_1  and  C_2
REMARK    2  A    between atoms: C_2  and  N_3
REMARK    3  A    between atoms: N_3  and  C_4
REMARK    4  A    between atoms: N_3  and  C_6
REMARK    5  A    between atoms: C_4  and  C_5
REMARK    6  A    between atoms: C_9  and  N_10
REMARK    7  A    between atoms: C_14  and  C_15
REMARK    8  A    between atoms: C_16  and  N_17
REMARK    9  A    between atoms: C_18  and  C_20
REMARK                            x       y       z     vdW  Elec       q    Type
REMARK                         _______ _______ _______ _____ _____    ______ ____
ROOT
ATOM      1  N   UNL     1       2.258   8.053  18.832  0.00  0.00    +0.000 N 
ATOM      2  N   UNL     1       1.846   9.142  18.158  0.00  0.00    +0.000 NA
ATOM      3  C   UNL     1       1.243   9.866  19.090  0.00  0.00    +0.000 A 
ATOM      4  C   UNL     1       0.840  11.191  18.967  0.00  0.00    +0.000 A 
ATOM      5  C   UNL     1       0.411  11.777  20.169  0.00  0.00    +0.000 A 
ATOM      6  C   UNL     1       0.380  13.285  20.174  0.00  0.00    +0.000 C 
ATOM      7  C   UNL     1       0.065  10.994  21.323  0.00  0.00    +0.000 A 
ATOM      8  C   UNL     1       0.407   9.612  21.433  0.00  0.00    +0.000 A 
ATOM      9  C   UNL     1       1.107   9.081  20.307  0.00  0.00    +0.000 A 
ATOM     10  N   UNL     1       1.774   7.914  20.107  0.00  0.00    +0.000 NA
ENDROOT
BRANCH   1  14
ATOM     11  C   UNL     1       5.058   5.306  17.085  0.00  0.00    +0.000 A 
ATOM     12  C   UNL     1       4.162   4.936  18.087  0.00  0.00    +0.000 A 
ATOM     13  C   UNL     1       3.235   5.838  18.621  0.00  0.00    +0.000 A 
ATOM     14  C   UNL     1       3.154   7.163  18.163  0.00  0.00    +0.000 A 
ATOM     15  C   UNL     1       3.948   7.536  17.088  0.00  0.00    +0.000 A 
ATOM     16  C   UNL     1       4.878   6.607  16.560  0.00  0.00    +0.000 A 
BRANCH  11  17
ATOM     17  N   UNL     1       6.081   4.445  16.657  0.00  0.00    +0.000 N 
BRANCH  17  19
ATOM     18  C   UNL     1       6.309   4.119  14.192  0.00  0.00    +0.000 C 
ATOM     19  C   UNL     1       5.879   3.516  15.529  0.00  0.00    +0.000 C 
ENDBRANCH  17  19
BRANCH  17  20
ATOM     20  C   UNL     1       7.391   4.525  17.330  0.00  0.00    +0.000 C 
ATOM     21  C   UNL     1       7.546   5.578  18.416  0.00  0.00    +0.000 C 
ENDBRANCH  17  20
ENDBRANCH  11  17
ENDBRANCH   1  14
BRANCH   7  22
ATOM     22  N   UNL     1      -0.569  11.695  22.390  0.00  0.00    +0.000 N 
ATOM     23  C   UNL     1      -1.819  12.304  22.302  0.00  0.00    +0.000 C 
ATOM     24  O   UNL     1      -2.624  12.112  21.394  0.00  0.00    +0.000 OA
ATOM     25  H   UNL     1       0.060  12.172  23.022  0.00  0.00    +0.000 HD
BRANCH  23  26
ATOM     26  C   UNL     1      -2.138  13.330  23.371  0.00  0.00    +0.000 A 
ATOM     27  C   UNL     1      -1.206  14.338  23.668  0.00  0.00    +0.000 A 
ATOM     28  C   UNL     1      -1.476  15.312  24.645  0.00  0.00    +0.000 A 
ATOM     29  C   UNL     1      -2.681  15.289  25.346  0.00  0.00    +0.000 A 
ATOM     30  C   UNL     1      -3.606  14.284  25.082  0.00  0.00    +0.000 A 
ATOM     31  C   UNL     1      -3.332  13.321  24.117  0.00  0.00    +0.000 A 
ATOM     32  F   UNL     1      -4.246  12.359  23.914  0.00  0.00    +0.000 F 
ENDBRANCH  23  26
ENDBRANCH   7  22
TORSDOF 6
ENDMDL
MODEL 4
REMARK VINA RESULT:      -7.5      1.520      2.323
REMARK  Name = 
REMARK  9 active torsions:
REMARK  status: ('A' for Active; 'I' for Inactive)
REMARK    1  A    between atoms: C_1  and  C_2
REMARK    2  A    between atoms: C_2  and  N_3
REMARK    3  A    between atoms: N_3  and  C_4
REMARK    4  A    between atoms: N_3  and  C_6
REMARK    5  A    between atoms: C_4  and  C_5
REMARK    6  A    between atoms: C_9  and  N_10
REMARK    7  A    between atoms: C_14  and  C_15
REMARK    8  A    between atoms: C_16  and  N_17
REMARK    9  A    between atoms: C_18  and  C_20
REMARK                            x       y       z     vdW  Elec       q    Type
REMARK                         _______ _______ _______ _____ _____    ______ ____
ROOT
ATOM      1  N   UNL     1       2.083   8.030  18.875  0.00  0.00    +0.000 N 
ATOM      2  N   UNL     1       1.420   8.714  17.925  0.00  0.00    +0.000 NA
ATOM      3  C   UNL     1       0.717   9.597  18.621  0.00  0.00    +0.000 A 
ATOM      4  C   UNL     1       0.036  10.693  18.105  0.00  0.00    +0.000 A 
ATOM      5  C   UNL     1      -0.458  11.576  19.079  0.00  0.00    +0.000 A 
ATOM      6  C   UNL     1      -0.809  12.955  18.579  0.00  0.00    +0.000 C 
ATOM      7  C   UNL     1      -0.579  11.202  20.461  0.00  0.00    +0.000 A 
ATOM      8  C   UNL     1       0.054  10.037  20.991  0.00  0.00    +0.000 A 
ATOM      9  C   UNL     1       0.802   9.281  20.039  0.00  0.00    +0.000 A 
ATOM     10  N   UNL     1       1.694   8.264  20.169  0.00  0.00    +0.000 NA
ENDROOT
BRANCH   1  14
ATOM     11  C   UNL     1       5.108   5.410  17.319  0.00  0.00    +0.000 A 
ATOM     12  C   UNL     1       4.952   6.725  16.884  0.00  0.00    +0.000 A 
ATOM     13  C   UNL     1       3.981   7.574  17.427  0.00  0.00    +0.000 A 
ATOM     14  C   UNL     1       3.118   7.144  18.448  0.00  0.00    +0.000 A 
ATOM     15  C   UNL     1       3.319   5.880  18.987  0.00  0.00    +0.000 A 
ATOM     16  C   UNL     1       4.309   5.038  18.425  0.00  0.00    +0.000 A 
BRANCH  11  17
ATOM     17  N   UNL     1       5.980   4.519  16.673  0.00  0.00    +0.000 N 
BRANCH  17  19
ATOM     18  C   UNL     1       5.992   4.040  14.223  0.00  0.00    +0.000 C 
ATOM     19  C   UNL     1       5.503   3.617  15.608  0.00  0.00    +0.000 C 
ENDBRANCH  17  19
BRANCH  17  20
ATOM     20  C   UNL     1       7.406   4.538  17.049  0.00  0.00    +0.000 C 
ATOM     21  C   UNL     1       7.755   5.134  18.403  0.00  0.00    +0.000 C 
ENDBRANCH  17  20
ENDBRANCH  11  17
ENDBRANCH   1  14
BRANCH   7  22
ATOM     22  N   UNL     1      -1.302  12.105  21.294  0.00  0.00    +0.000 N 
ATOM     23  C   UNL     1      -0.714  13.034  22.149  0.00  0.00    +0.000 C 
ATOM     24  O   UNL     1       0.471  13.358  22.115  0.00  0.00    +0.000 OA
ATOM     25  H   UNL     1      -2.186  11.753  21.640  0.00  0.00    +0.000 HD
BRANCH  23  26
ATOM     26  C   UNL     1      -1.606  13.601  23.235  0.00  0.00    +0.000 A 
ATOM     27  C   UNL     1      -1.190  14.732  23.957  0.00  0.00    +0.000 A 
ATOM     28  C   UNL     1      -1.999  15.290  24.962  0.00  0.00    +0.000 A 
ATOM     29  C   UNL     1      -3.235  14.721  25.267  0.00  0.00    +0.000 A 
ATOM     30  C   UNL     1      -3.652  13.586  24.579  0.00  0.00    +0.000 A 
ATOM     31  C   UNL     1      -2.847  13.036  23.587  0.00  0.00    +0.000 A 
ATOM     32  F   UNL     1      -3.283  11.929  22.967  0.00  0.00    +0.000 F 
ENDBRANCH  23  26
ENDBRANCH   7  22
TORSDOF 6
ENDMDL
MODEL 5
REMARK VINA RESULT:      -7.5      0.454      1.241
REMARK  Name = 
REMARK  9 active torsions:
REMARK  status: ('A' for Active; 'I' for Inactive)
REMARK    1  A    between atoms: C_1  and  C_2
REMARK    2  A    between atoms: C_2  and  N_3
REMARK    3  A    between atoms: N_3  and  C_4
REMARK    4  A    between atoms: N_3  and  C_6
REMARK    5  A    between atoms: C_4  and  C_5
REMARK    6  A    between atoms: C_9  and  N_10
REMARK    7  A    between atoms: C_14  and  C_15
REMARK    8  A    between atoms: C_16  and  N_17
REMARK    9  A    between atoms: C_18  and  C_20
REMARK                            x       y       z     vdW  Elec       q    Type
REMARK                         _______ _______ _______ _____ _____    ______ ____
ROOT
ATOM      1  N   UNL     1       1.602   8.689  19.379  0.00  0.00    +0.000 N 
ATOM      2  N   UNL     1       0.941   9.500  18.534  0.00  0.00    +0.000 NA
ATOM      3  C   UNL     1       0.430  10.423  19.337  0.00  0.00    +0.000 A 
ATOM      4  C   UNL     1      -0.153  11.621  18.941  0.00  0.00    +0.000 A 
ATOM      5  C   UNL     1      -0.430  12.504  19.998  0.00  0.00    +0.000 A 
ATOM      6  C   UNL     1      -0.649  13.941  19.596  0.00  0.00    +0.000 C 
ATOM      7  C   UNL     1      -0.461  12.073  21.368  0.00  0.00    +0.000 A 
ATOM      8  C   UNL     1       0.067  10.811  21.779  0.00  0.00    +0.000 A 
ATOM      9  C   UNL     1       0.614  10.022  20.723  0.00  0.00    +0.000 A 
ATOM     10  N   UNL     1       1.377   8.897  20.716  0.00  0.00    +0.000 NA
ENDROOT
BRANCH   1  14
ATOM     11  C   UNL     1       4.333   5.710  17.928  0.00  0.00    +0.000 A 
ATOM     12  C   UNL     1       3.521   5.510  19.043  0.00  0.00    +0.000 A 
ATOM     13  C   UNL     1       2.614   6.480  19.481  0.00  0.00    +0.000 A 
ATOM     14  C   UNL     1       2.468   7.706  18.810  0.00  0.00    +0.000 A 
ATOM     15  C   UNL     1       3.174   7.894  17.630  0.00  0.00    +0.000 A 
ATOM     16  C   UNL     1       4.085   6.898  17.202  0.00  0.00    +0.000 A 
BRANCH  11  17
ATOM     17  N   UNL     1       5.343   4.798  17.580  0.00  0.00    +0.000 N 
BRANCH  17  19
ATOM     18  C   UNL     1       6.075   4.389  15.229  0.00  0.00    +0.000 C 
ATOM     19  C   UNL     1       5.211   3.923  16.400  0.00  0.00    +0.000 C 
ENDBRANCH  17  19
BRANCH  17  20
ATOM     20  C   UNL     1       6.572   4.770  18.394  0.00  0.00    +0.000 C 
ATOM     21  C   UNL     1       7.476   5.991  18.325  0.00  0.00    +0.000 C 
ENDBRANCH  17  20
ENDBRANCH  11  17
ENDBRANCH   1  14
BRANCH   7  22
ATOM     22  N   UNL     1      -0.976  13.010  22.310  0.00  0.00    +0.000 N 
ATOM     23  C   UNL     1      -2.052  12.766  23.161  0.00  0.00    +0.000 C 
ATOM     24  O   UNL     1      -2.528  11.654  23.377  0.00  0.00    +0.000 OA
ATOM     25  H   UNL     1      -0.906  13.980  22.031  0.00  0.00    +0.000 HD
BRANCH  23  26
ATOM     26  C   UNL     1      -2.707  13.985  23.777  0.00  0.00    +0.000 A 
ATOM     27  C   UNL     1      -1.992  14.769  24.698  0.00  0.00    +0.000 A 
ATOM     28  C   UNL     1      -2.566  15.913  25.277  0.00  0.00    +0.000 A 
ATOM     29  C   UNL     1      -3.868  16.288  24.952  0.00  0.00    +0.000 A 
ATOM     30  C   UNL     1      -4.601  15.511  24.061  0.00  0.00    +0.000 A 
ATOM     31  C   UNL     1      -4.029  14.378  23.491  0.00  0.00    +0.000 A 
ATOM     32  F   UNL     1      -4.783  13.649  22.654  0.00  0.00    +0.000 F 
ENDBRANCH  23  26
ENDBRANCH   7  22
TORSDOF 6
ENDMDL
MODEL 6
REMARK VINA RESULT:      -7.4      0.785      1.570
REMARK  Name = 
REMARK  9 active torsions:
REMARK  status: ('A' for Active; 'I' for Inactive)
REMARK    1  A    between atoms: C_1  and  C_2
REMARK    2  A    between atoms: C_2  and  N_3
REMARK    3  A    between atoms: N_3  and  C_4
REMARK    4  A    between atoms: N_3  and  C_6
REMARK    5  A    between atoms: C_4  and  C_5
REMARK    6  A    between atoms: C_9  and  N_10
REMARK    7  A    between atoms: C_14  and  C_15
REMARK    8  A    between atoms: C_16  and  N_17
REMARK    9  A    between atoms: C_18  and  C_20
REMARK                            x       y       z     vdW  Elec       q    Type
REMARK                         _______ _______ _______ _____ _____    ______ ____
ROOT
ATOM      1  N   UNL     1       1.100   8.756  20.155  0.00  0.00    +0.000 N 
ATOM      2  N   UNL     1       0.478   9.544  19.260  0.00  0.00    +0.000 NA
ATOM      3  C   UNL     1      -0.061  10.492  20.014  0.00  0.00    +0.000 A 
ATOM      4  C   UNL     1      -0.621  11.680  19.560  0.00  0.00    +0.000 A 
ATOM      5  C   UNL     1      -0.937  12.595  20.578  0.00  0.00    +0.000 A 
ATOM      6  C   UNL     1      -1.133  14.021  20.125  0.00  0.00    +0.000 C 
ATOM      7  C   UNL     1      -1.026  12.205  21.958  0.00  0.00    +0.000 A 
ATOM      8  C   UNL     1      -0.521  10.955  22.427  0.00  0.00    +0.000 A 
ATOM      9  C   UNL     1       0.065  10.132  21.418  0.00  0.00    +0.000 A 
ATOM     10  N   UNL     1       0.822   9.005  21.475  0.00  0.00    +0.000 NA
ENDROOT
BRANCH   1  14
ATOM     11  C   UNL     1       3.604   5.747  18.389  0.00  0.00    +0.000 A 
ATOM     12  C   UNL     1       3.368   6.982  17.788  0.00  0.00    +0.000 A 
ATOM     13  C   UNL     1       2.576   7.962  18.394  0.00  0.00    +0.000 A 
ATOM     14  C   UNL     1       1.984   7.753  19.651  0.00  0.00    +0.000 A 
ATOM     15  C   UNL     1       2.289   6.584  20.333  0.00  0.00    +0.000 A 
ATOM     16  C   UNL     1       3.096   5.606  19.702  0.00  0.00    +0.000 A 
BRANCH  11  17
ATOM     17  N   UNL     1       4.275   4.714  17.715  0.00  0.00    +0.000 N 
BRANCH  17  19
ATOM     18  C   UNL     1       2.431   3.075  17.337  0.00  0.00    +0.000 C 
ATOM     19  C   UNL     1       3.851   3.308  17.853  0.00  0.00    +0.000 C 
ENDBRANCH  17  19
BRANCH  17  20
ATOM     20  C   UNL     1       5.390   5.072  16.819  0.00  0.00    +0.000 C 
ATOM     21  C   UNL     1       5.452   4.362  15.476  0.00  0.00    +0.000 C 
ENDBRANCH  17  20
ENDBRANCH  11  17
ENDBRANCH   1  14
BRANCH   7  22
ATOM     22  N   UNL     1      -1.574  13.172  22.850  0.00  0.00    +0.000 N 
ATOM     23  C   UNL     1      -2.854  13.107  23.395  0.00  0.00    +0.000 C 
ATOM     24  O   UNL     1      -3.569  12.108  23.374  0.00  0.00    +0.000 OA
ATOM     25  H   UNL     1      -1.255  14.121  22.701  0.00  0.00    +0.000 HD
BRANCH  23  26
ATOM     26  C   UNL     1      -3.401  14.398  23.971  0.00  0.00    +0.000 A 
ATOM     27  C   UNL     1      -2.621  15.146  24.868  0.00  0.00    +0.000 A 
ATOM     28  C   UNL     1      -3.094  16.353  25.410  0.00  0.00    +0.000 A 
ATOM     29  C   UNL     1      -4.359  16.829  25.069  0.00  0.00    +0.000 A 
ATOM     30  C   UNL     1      -5.156  16.090  24.200  0.00  0.00    +0.000 A 
ATOM     31  C   UNL     1      -4.684  14.894  23.669  0.00  0.00    +0.000 A 
ATOM     32  F   UNL     1      -5.498  14.206  22.853  0.00  0.00    +0.000 F 
ENDBRANCH  23  26
ENDBRANCH   7  22
TORSDOF 6
ENDMDL
MODEL 7
REMARK VINA RESULT:      -7.4      4.234     11.870
REMARK  Name = 
REMARK  9 active torsions:
REMARK  status: ('A' for Active; 'I' for Inactive)
REMARK    1  A    between atoms: C_1  and  C_2
REMARK    2  A    between atoms: C_2  and  N_3
REMARK    3  A    between atoms: N_3  and  C_4
REMARK    4  A    between atoms: N_3  and  C_6
REMARK    5  A    between atoms: C_4  and  C_5
REMARK    6  A    between atoms: C_9  and  N_10
REMARK    7  A    between atoms: C_14  and  C_15
REMARK    8  A    between atoms: C_16  and  N_17
REMARK    9  A    between atoms: C_18  and  C_20
REMARK                            x       y       z     vdW  Elec       q    Type
REMARK                         _______ _______ _______ _____ _____    ______ ____
ROOT
ATOM      1  N   UNL     1       1.250   8.635  20.126  0.00  0.00    +0.000 N 
ATOM      2  N   UNL     1       1.497   7.476  20.762  0.00  0.00    +0.000 NA
ATOM      3  C   UNL     1       2.246   6.808  19.895  0.00  0.00    +0.000 A 
ATOM      4  C   UNL     1       2.959   5.643  20.154  0.00  0.00    +0.000 A 
ATOM      5  C   UNL     1       3.827   5.256  19.120  0.00  0.00    +0.000 A 
ATOM      6  C   UNL     1       4.907   4.280  19.518  0.00  0.00    +0.000 C 
ATOM      7  C   UNL     1       3.718   5.786  17.790  0.00  0.00    +0.000 A 
ATOM      8  C   UNL     1       2.930   6.940  17.494  0.00  0.00    +0.000 A 
ATOM      9  C   UNL     1       2.261   7.508  18.620  0.00  0.00    +0.000 A 
ATOM     10  N   UNL     1       1.609   8.686  18.803  0.00  0.00    +0.000 NA
ENDROOT
BRANCH   1  14
ATOM     11  C   UNL     1      -0.797  11.648  22.399  0.00  0.00    +0.000 A 
ATOM     12  C   UNL     1      -0.750  10.311  22.788  0.00  0.00    +0.000 A 
ATOM     13  C   UNL     1      -0.050   9.349  22.051  0.00  0.00    +0.000 A 
ATOM     14  C   UNL     1       0.652   9.688  20.883  0.00  0.00    +0.000 A 
ATOM     15  C   UNL     1       0.725  11.028  20.527  0.00  0.00    +0.000 A 
ATOM     16  C   UNL     1       0.012  11.986  21.288  0.00  0.00    +0.000 A 
BRANCH  11  17
ATOM     17  N   UNL     1      -1.619  12.579  23.056  0.00  0.00    +0.000 N 
BRANCH  17  19
ATOM     18  C   UNL     1      -1.533  15.043  22.667  0.00  0.00    +0.000 C 
ATOM     19  C   UNL     1      -1.084  13.867  23.535  0.00  0.00    +0.000 C 
ENDBRANCH  17  19
BRANCH  17  20
ATOM     20  C   UNL     1      -3.050  12.261  23.213  0.00  0.00    +0.000 C 
ATOM     21  C   UNL     1      -3.733  12.753  24.479  0.00  0.00    +0.000 C 
ENDBRANCH  17  20
ENDBRANCH  11  17
ENDBRANCH   1  14
BRANCH   7  22
ATOM     22  N   UNL     1       4.507   5.144  16.791  0.00  0.00    +0.000 N 
ATOM     23  C   UNL     1       5.458   5.786  16.001  0.00  0.00    +0.000 C 
ATOM     24  O   UNL     1       5.904   6.909  16.225  0.00  0.00    +0.000 OA
ATOM     25  H   UNL     1       4.053   4.375  16.316  0.00  0.00    +0.000 HD
BRANCH  23  26
ATOM     26  C   UNL     1       5.886   5.056  14.744  0.00  0.00    +0.000 A 
ATOM     27  C   UNL     1       4.965   4.239  14.067  0.00  0.00    +0.000 A 
ATOM     28  C   UNL     1       5.326   3.559  12.892  0.00  0.00    +0.000 A 
ATOM     29  C   UNL     1       6.617   3.678  12.378  0.00  0.00    +0.000 A 
ATOM     30  C   UNL     1       7.549   4.463  13.048  0.00  0.00    +0.000 A 
ATOM     31  C   UNL     1       7.188   5.133  14.213  0.00  0.00    +0.000 A 
ATOM     32  F   UNL     1       8.128   5.861  14.835  0.00  0.00    +0.000 F 
ENDBRANCH  23  26
ENDBRANCH   7  22
TORSDOF 6
ENDMDL
MODEL 8
REMARK VINA RESULT:      -7.4      0.728      1.415
REMARK  Name = 
REMARK  9 active torsions:
REMARK  status: ('A' for Active; 'I' for Inactive)
REMARK    1  A    between atoms: C_1  and  C_2
REMARK    2  A    between atoms: C_2  and  N_3
REMARK    3  A    between atoms: N_3  and  C_4
REMARK    4  A    between atoms: N_3  and  C_6
REMARK    5  A    between atoms: C_4  and  C_5
REMARK    6  A    between atoms: C_9  and  N_10
REMARK    7  A    between atoms: C_14  and  C_15
REMARK    8  A    between atoms: C_16  and  N_17
REMARK    9  A    between atoms: C_18  and  C_20
REMARK                            x       y       z     vdW  Elec       q    Type
REMARK                         _______ _______ _______ _____ _____    ______ ____
ROOT
ATOM      1  N   UNL     1       1.261   8.639  20.088  0.00  0.00    +0.000 N 
ATOM      2  N   UNL     1       0.628   9.416  19.192  0.00  0.00    +0.000 NA
ATOM      3  C   UNL     1       0.090  10.368  19.942  0.00  0.00    +0.000 A 
ATOM      4  C   UNL     1      -0.480  11.550  19.484  0.00  0.00    +0.000 A 
ATOM      5  C   UNL     1      -0.792  12.471  20.498  0.00  0.00    +0.000 A 
ATOM      6  C   UNL     1      -0.999  13.892  20.035  0.00  0.00    +0.000 C 
ATOM      7  C   UNL     1      -0.868  12.091  21.881  0.00  0.00    +0.000 A 
ATOM      8  C   UNL     1      -0.353  10.846  22.356  0.00  0.00    +0.000 A 
ATOM      9  C   UNL     1       0.229  10.019  21.348  0.00  0.00    +0.000 A 
ATOM     10  N   UNL     1       0.991   8.896  21.407  0.00  0.00    +0.000 NA
ENDROOT
BRANCH   1  14
ATOM     11  C   UNL     1       3.760   5.622  18.328  0.00  0.00    +0.000 A 
ATOM     12  C   UNL     1       3.483   6.835  17.699  0.00  0.00    +0.000 A 
ATOM     13  C   UNL     1       2.693   7.819  18.303  0.00  0.00    +0.000 A 
ATOM     14  C   UNL     1       2.145   7.637  19.584  0.00  0.00    +0.000 A 
ATOM     15  C   UNL     1       2.494   6.493  20.289  0.00  0.00    +0.000 A 
ATOM     16  C   UNL     1       3.297   5.511  19.661  0.00  0.00    +0.000 A 
BRANCH  11  17
ATOM     17  N   UNL     1       4.427   4.581  17.662  0.00  0.00    +0.000 N 
BRANCH  17  19
ATOM     18  C   UNL     1       5.489   4.747  15.409  0.00  0.00    +0.000 C 
ATOM     19  C   UNL     1       5.681   4.825  16.924  0.00  0.00    +0.000 C 
ENDBRANCH  17  19
BRANCH  17  20
ATOM     20  C   UNL     1       3.872   3.219  17.760  0.00  0.00    +0.000 C 
ATOM     21  C   UNL     1       2.416   3.036  17.365  0.00  0.00    +0.000 C 
ENDBRANCH  17  20
ENDBRANCH  11  17
ENDBRANCH   1  14
BRANCH   7  22
ATOM     22  N   UNL     1      -1.414  13.062  22.770  0.00  0.00    +0.000 N 
ATOM     23  C   UNL     1      -2.681  12.982  23.346  0.00  0.00    +0.000 C 
ATOM     24  O   UNL     1      -3.377  11.970  23.356  0.00  0.00    +0.000 OA
ATOM     25  H   UNL     1      -1.117  14.013  22.599  0.00  0.00    +0.000 HD
BRANCH  23  26
ATOM     26  C   UNL     1      -3.239  14.271  23.913  0.00  0.00    +0.000 A 
ATOM     27  C   UNL     1      -2.496  14.992  24.863  0.00  0.00    +0.000 A 
ATOM     28  C   UNL     1      -2.980  16.198  25.399  0.00  0.00    +0.000 A 
ATOM     29  C   UNL     1      -4.218  16.699  25.000  0.00  0.00    +0.000 A 
ATOM     30  C   UNL     1      -4.978  15.986  24.079  0.00  0.00    +0.000 A 
ATOM     31  C   UNL     1      -4.497  14.792  23.553  0.00  0.00    +0.000 A 
ATOM     32  F   UNL     1      -5.276  14.130  22.684  0.00  0.00    +0.000 F 
ENDBRANCH  23  26
ENDBRANCH   7  22
TORSDOF 6
ENDMDL
MODEL 9
REMARK VINA RESULT:      -7.4      1.760      2.613
REMARK  Name = 
REMARK  9 active torsions:
REMARK  status: ('A' for Active; 'I' for Inactive)
REMARK    1  A    between atoms: C_1  and  C_2
REMARK    2  A    between atoms: C_2  and  N_3
REMARK    3  A    between atoms: N_3  and  C_4
REMARK    4  A    between atoms: N_3  and  C_6
REMARK    5  A    between atoms: C_4  and  C_5
REMARK    6  A    between atoms: C_9  and  N_10
REMARK    7  A    between atoms: C_14  and  C_15
REMARK    8  A    between atoms: C_16  and  N_17
REMARK    9  A    between atoms: C_18  and  C_20
REMARK                            x       y       z     vdW  Elec       q    Type
REMARK                         _______ _______ _______ _____ _____    ______ ____
ROOT
ATOM      1  N   UNL     1       2.093   7.970  18.828  0.00  0.00    +0.000 N 
ATOM      2  N   UNL     1       1.395   8.625  17.883  0.00  0.00    +0.000 NA
ATOM      3  C   UNL     1       0.695   9.509  18.580  0.00  0.00    +0.000 A 
ATOM      4  C   UNL     1      -0.017  10.584  18.062  0.00  0.00    +0.000 A 
ATOM      5  C   UNL     1      -0.500  11.477  19.032  0.00  0.00    +0.000 A 
ATOM      6  C   UNL     1      -0.886  12.841  18.516  0.00  0.00    +0.000 C 
ATOM      7  C   UNL     1      -0.581  11.127  20.423  0.00  0.00    +0.000 A 
ATOM      8  C   UNL     1       0.085   9.983  20.958  0.00  0.00    +0.000 A 
ATOM      9  C   UNL     1       0.822   9.221  20.001  0.00  0.00    +0.000 A 
ATOM     10  N   UNL     1       1.733   8.221  20.127  0.00  0.00    +0.000 NA
ENDROOT
BRANCH   1  14
ATOM     11  C   UNL     1       5.132   5.384  17.242  0.00  0.00    +0.000 A 
ATOM     12  C   UNL     1       4.983   6.710  16.839  0.00  0.00    +0.000 A 
ATOM     13  C   UNL     1       4.007   7.546  17.391  0.00  0.00    +0.000 A 
ATOM     14  C   UNL     1       3.132   7.092  18.392  0.00  0.00    +0.000 A 
ATOM     15  C   UNL     1       3.325   5.816  18.901  0.00  0.00    +0.000 A 
ATOM     16  C   UNL     1       4.320   4.986  18.330  0.00  0.00    +0.000 A 
BRANCH  11  17
ATOM     17  N   UNL     1       6.011   4.507  16.584  0.00  0.00    +0.000 N 
BRANCH  17  19
ATOM     18  C   UNL     1       6.069   4.017  14.138  0.00  0.00    +0.000 C 
ATOM     19  C   UNL     1       5.538   3.612  15.512  0.00  0.00    +0.000 C 
ENDBRANCH  17  19
BRANCH  17  20
ATOM     20  C   UNL     1       7.437   4.537  16.955  0.00  0.00    +0.000 C 
ATOM     21  C   UNL     1       7.774   4.971  18.373  0.00  0.00    +0.000 C 
ENDBRANCH  17  20
ENDBRANCH  11  17
ENDBRANCH   1  14
BRANCH   7  22
ATOM     22  N   UNL     1      -1.298  12.033  21.258  0.00  0.00    +0.000 N 
ATOM     23  C   UNL     1      -0.704  12.979  22.090  0.00  0.00    +0.000 C 
ATOM     24  O   UNL     1       0.477  13.314  22.030  0.00  0.00    +0.000 OA
ATOM     25  H   UNL     1      -2.171  11.677  21.625  0.00  0.00    +0.000 HD
BRANCH  23  26
ATOM     26  C   UNL     1      -1.581  13.551  23.185  0.00  0.00    +0.000 A 
ATOM     27  C   UNL     1      -2.803  12.930  23.493  0.00  0.00    +0.000 A 
ATOM     28  C   UNL     1      -3.634  13.428  24.511  0.00  0.00    +0.000 A 
ATOM     29  C   UNL     1      -3.261  14.560  25.233  0.00  0.00    +0.000 A 
ATOM     30  C   UNL     1      -2.066  15.202  24.927  0.00  0.00    +0.000 A 
ATOM     31  C   UNL     1      -1.248  14.708  23.916  0.00  0.00    +0.000 A 
ATOM     32  F   UNL     1      -0.116  15.375  23.642  0.00  0.00    +0.000 F 
ENDBRANCH  23  26
ENDBRANCH   7  22
TORSDOF 6
ENDMDL
