MODEL 1
REMARK VINA RESULT:      -8.3      0.000      0.000
REMARK  Name = 
REMARK  5 active torsions:
REMARK  status: ('A' for Active; 'I' for Inactive)
REMARK    1  A    between atoms: C_1  and  C_2
REMARK    2  A    between atoms: C_2  and  C_4
REMARK    3  A    between atoms: C_8  and  C_10
REMARK    4  A    between atoms: C_17  and  C_18
REMARK    5  A    between atoms: C_21  and  N_22
REMARK                            x       y       z     vdW  Elec       q    Type
REMARK                         _______ _______ _______ _____ _____    ______ ____
ROOT
ATOM      1  C   UNL     1      -1.024  11.084  19.760  0.00  0.00    +0.000 A 
ATOM      2  N   UNL     1      -1.892  11.694  20.656  0.00  0.00    +0.000 NA
ATOM      3  C   UNL     1      -1.592  11.377  21.881  0.00  0.00    +0.000 A 
ATOM      4  N   UNL     1      -2.188  11.843  23.026  0.00  0.00    +0.000 N 
ATOM      5  C   UNL     1      -3.380  12.545  22.943  0.00  0.00    +0.000 C 
ATOM      6  O   UNL     1      -4.033  12.690  21.909  0.00  0.00    +0.000 OA
ATOM      7  S   UNL     1      -0.301  10.293  22.076  0.00  0.00    +0.000 S 
ATOM      8  C   UNL     1      -0.102  10.217  20.347  0.00  0.00    +0.000 A 
ATOM      9  H   UNL     1      -1.762  11.620  23.910  0.00  0.00    +0.000 HD
ENDROOT
BRANCH   5  10
ATOM     10  C   UNL     1      -3.858  13.169  24.273  0.00  0.00    +0.000 C 
ATOM     11  C   UNL     1      -4.241  14.663  24.048  0.00  0.00    +0.000 C 
ATOM     12  N   UNL     1      -5.494  14.856  23.285  0.00  0.00    +0.000 NA
ATOM     13  C   UNL     1      -6.577  14.109  23.937  0.00  0.00    +0.000 C 
ATOM     14  C   UNL     1      -6.242  12.623  24.192  0.00  0.00    +0.000 C 
ATOM     15  N   UNL     1      -4.969  12.404  24.893  0.00  0.00    +0.000 NA
ATOM     16  H   UNL     1      -5.334  14.462  22.350  0.00  0.00    +0.000 HD
ATOM     17  H   UNL     1      -4.771  11.414  24.965  0.00  0.00    +0.000 HD
ENDBRANCH   5  10
BRANCH   8  18
ATOM     18  C   UNL     1       0.928   9.352  19.740  0.00  0.00    +0.000 A 
ATOM     19  C   UNL     1       1.413   8.233  20.426  0.00  0.00    +0.000 A 
ATOM     20  C   UNL     1       2.233   7.285  19.797  0.00  0.00    +0.000 A 
ATOM     21  C   UNL     1       2.662   7.456  18.480  0.00  0.00    +0.000 A 
ATOM     22  C   UNL     1       2.272   8.636  17.832  0.00  0.00    +0.000 A 
ATOM     23  C   UNL     1       1.407   9.560  18.444  0.00  0.00    +0.000 A 
BRANCH  21  24
ATOM     24  N   UNL     1       3.450   6.473  17.815  0.00  0.00    +0.000 N 
ATOM     25  C   UNL     1       4.777   6.747  17.313  0.00  0.00    +0.000 C 
ATOM     26  C   UNL     1       5.079   5.590  16.385  0.00  0.00    +0.000 C 
ATOM     27  C   UNL     1       4.298   4.439  16.984  0.00  0.00    +0.000 C 
ATOM     28  C   UNL     1       3.125   5.116  17.652  0.00  0.00    +0.000 C 
ATOM     29  O   UNL     1       2.121   4.508  17.989  0.00  0.00    +0.000 OA
ENDBRANCH  21  24
ENDBRANCH   8  18
BRANCH   1  31
ATOM     30  C   UNL     1      -1.841  10.423  17.452  0.00  0.00    +0.000 C 
ATOM     31  C   UNL     1      -1.150  11.430  18.337  0.00  0.00    +0.000 C 
ATOM     32  O   UNL     1      -0.755  12.495  17.864  0.00  0.00    +0.000 OA
ENDBRANCH   1  31
TORSDOF 4
ENDMDL
MODEL 2
REMARK VINA RESULT:      -8.2      2.429      9.796
REMARK  Name = 
REMARK  5 active torsions:
REMARK  status: ('A' for Active; 'I' for Inactive)
REMARK    1  A    between atoms: C_1  and  C_2
REMARK    2  A    between atoms: C_2  and  C_4
REMARK    3  A    between atoms: C_8  and  C_10
REMARK    4  A    between atoms: C_17  and  C_18
REMARK    5  A    between atoms: C_21  and  N_22
REMARK                            x       y       z     vdW  Elec       q    Type
REMARK                         _______ _______ _______ _____ _____    ______ ____
ROOT
ATOM      1  C   UNL     1       0.081  10.300  20.009  0.00  0.00    +0.000 A 
ATOM      2  N   UNL     1       0.834   9.185  19.666  0.00  0.00    +0.000 NA
ATOM      3  C   UNL     1       1.220   8.541  20.728  0.00  0.00    +0.000 A 
ATOM      4  N   UNL     1       1.921   7.363  20.771  0.00  0.00    +0.000 N 
ATOM      5  C   UNL     1       2.507   6.868  19.617  0.00  0.00    +0.000 C 
ATOM      6  O   UNL     1       2.554   7.474  18.545  0.00  0.00    +0.000 OA
ATOM      7  S   UNL     1       0.778   9.226  22.216  0.00  0.00    +0.000 S 
ATOM      8  C   UNL     1      -0.017  10.532  21.382  0.00  0.00    +0.000 A 
ATOM      9  H   UNL     1       2.031   6.906  21.662  0.00  0.00    +0.000 HD
ENDROOT
BRANCH   5  10
ATOM     10  C   UNL     1       3.112   5.453  19.752  0.00  0.00    +0.000 C 
ATOM     11  C   UNL     1       2.357   4.658  20.859  0.00  0.00    +0.000 C 
ATOM     12  N   UNL     1       0.989   4.245  20.479  0.00  0.00    +0.000 NA
ATOM     13  C   UNL     1       1.043   3.499  19.215  0.00  0.00    +0.000 C 
ATOM     14  C   UNL     1       1.791   4.241  18.086  0.00  0.00    +0.000 C 
ATOM     15  N   UNL     1       3.130   4.718  18.463  0.00  0.00    +0.000 NA
ATOM     16  H   UNL     1       0.450   5.107  20.333  0.00  0.00    +0.000 HD
ATOM     17  H   UNL     1       3.538   5.257  17.709  0.00  0.00    +0.000 HD
ENDBRANCH   5  10
BRANCH   8  18
ATOM     18  C   UNL     1      -0.666  11.625  22.130  0.00  0.00    +0.000 A 
ATOM     19  C   UNL     1      -0.216  12.943  21.999  0.00  0.00    +0.000 A 
ATOM     20  C   UNL     1      -0.937  14.021  22.532  0.00  0.00    +0.000 A 
ATOM     21  C   UNL     1      -2.097  13.820  23.281  0.00  0.00    +0.000 A 
ATOM     22  C   UNL     1      -2.482  12.492  23.511  0.00  0.00    +0.000 A 
ATOM     23  C   UNL     1      -1.791  11.414  22.933  0.00  0.00    +0.000 A 
BRANCH  21  24
ATOM     24  N   UNL     1      -2.866  14.910  23.781  0.00  0.00    +0.000 N 
ATOM     25  C   UNL     1      -3.983  15.472  23.058  0.00  0.00    +0.000 C 
ATOM     26  C   UNL     1      -4.254  16.794  23.746  0.00  0.00    +0.000 C 
ATOM     27  C   UNL     1      -3.827  16.546  25.177  0.00  0.00    +0.000 C 
ATOM     28  C   UNL     1      -2.739  15.507  25.046  0.00  0.00    +0.000 C 
ATOM     29  O   UNL     1      -1.949  15.267  25.947  0.00  0.00    +0.000 OA
ENDBRANCH  21  24
ENDBRANCH   8  18
BRANCH   1  31
ATOM     30  C   UNL     1      -1.741  10.464  18.253  0.00  0.00    +0.000 C 
ATOM     31  C   UNL     1      -0.535  11.075  18.922  0.00  0.00    +0.000 C 
ATOM     32  O   UNL     1      -0.135  12.185  18.574  0.00  0.00    +0.000 OA
ENDBRANCH   1  31
TORSDOF 4
ENDMDL
MODEL 3
REMARK VINA RESULT:      -8.2      0.969      1.223
REMARK  Name = 
REMARK  5 active torsions:
REMARK  status: ('A' for Active; 'I' for Inactive)
REMARK    1  A    between atoms: C_1  and  C_2
REMARK    2  A    between atoms: C_2  and  C_4
REMARK    3  A    between atoms: C_8  and  C_10
REMARK    4  A    between atoms: C_17  and  C_18
REMARK    5  A    between atoms: C_21  and  N_22
REMARK                            x       y       z     vdW  Elec       q    Type
REMARK                         _______ _______ _______ _____ _____    ______ ____
ROOT
ATOM      1  C   UNL     1      -0.547  11.239  20.082  0.00  0.00    +0.000 A 
ATOM      2  N   UNL     1      -1.436  11.843  20.961  0.00  0.00    +0.000 NA
ATOM      3  C   UNL     1      -1.435  11.235  22.111  0.00  0.00    +0.000 A 
ATOM      4  N   UNL     1      -2.135  11.592  23.236  0.00  0.00    +0.000 N 
ATOM      5  C   UNL     1      -3.136  12.546  23.149  0.00  0.00    +0.000 C 
ATOM      6  O   UNL     1      -3.545  13.032  22.093  0.00  0.00    +0.000 OA
ATOM      7  S   UNL     1      -0.432   9.872  22.233  0.00  0.00    +0.000 S 
ATOM      8  C   UNL     1       0.068  10.089  20.579  0.00  0.00    +0.000 A 
ATOM      9  H   UNL     1      -1.931  11.112  24.097  0.00  0.00    +0.000 HD
ENDROOT
BRANCH   5  10
ATOM     10  C   UNL     1      -3.728  12.992  24.504  0.00  0.00    +0.000 C 
ATOM     11  C   UNL     1      -4.035  14.519  24.471  0.00  0.00    +0.000 C 
ATOM     12  N   UNL     1      -5.195  14.882  23.628  0.00  0.00    +0.000 NA
ATOM     13  C   UNL     1      -6.364  14.101  24.052  0.00  0.00    +0.000 C 
ATOM     14  C   UNL     1      -6.108  12.580  24.112  0.00  0.00    +0.000 C 
ATOM     15  N   UNL     1      -4.921  12.199  24.892  0.00  0.00    +0.000 NA
ATOM     16  H   UNL     1      -4.953  14.622  22.665  0.00  0.00    +0.000 HD
ATOM     17  H   UNL     1      -4.765  11.200  24.834  0.00  0.00    +0.000 HD
ENDBRANCH   5  10
BRANCH   8  18
ATOM     18  C   UNL     1       1.011   9.150  19.942  0.00  0.00    +0.000 A 
ATOM     19  C   UNL     1       1.506   8.049  20.649  0.00  0.00    +0.000 A 
ATOM     20  C   UNL     1       2.234   7.034  20.012  0.00  0.00    +0.000 A 
ATOM     21  C   UNL     1       2.561   7.116  18.657  0.00  0.00    +0.000 A 
ATOM     22  C   UNL     1       2.165   8.277  17.977  0.00  0.00    +0.000 A 
ATOM     23  C   UNL     1       1.391   9.268  18.602  0.00  0.00    +0.000 A 
BRANCH  21  24
ATOM     24  N   UNL     1       3.253   6.066  17.988  0.00  0.00    +0.000 N 
ATOM     25  C   UNL     1       2.681   4.755  17.795  0.00  0.00    +0.000 C 
ATOM     26  C   UNL     1       3.853   3.883  17.397  0.00  0.00    +0.000 C 
ATOM     27  C   UNL     1       4.784   4.841  16.684  0.00  0.00    +0.000 C 
ATOM     28  C   UNL     1       4.495   6.170  17.339  0.00  0.00    +0.000 C 
ATOM     29  O   UNL     1       5.249   7.126  17.244  0.00  0.00    +0.000 OA
ENDBRANCH  21  24
ENDBRANCH   8  18
BRANCH   1  31
ATOM     30  C   UNL     1      -1.424  11.680  17.742  0.00  0.00    +0.000 C 
ATOM     31  C   UNL     1      -0.338  11.874  18.772  0.00  0.00    +0.000 C 
ATOM     32  O   UNL     1       0.645  12.566  18.507  0.00  0.00    +0.000 OA
ENDBRANCH   1  31
TORSDOF 4
ENDMDL
MODEL 4
REMARK VINA RESULT:      -8.2      2.192      9.913
REMARK  Name = 
REMARK  5 active torsions:
REMARK  status: ('A' for Active; 'I' for Inactive)
REMARK    1  A    between atoms: C_1  and  C_2
REMARK    2  A    between atoms: C_2  and  C_4
REMARK    3  A    between atoms: C_8  and  C_10
REMARK    4  A    between atoms: C_17  and  C_18
REMARK    5  A    between atoms: C_21  and  N_22
REMARK                            x       y       z     vdW  Elec       q    Type
REMARK                         _______ _______ _______ _____ _____    ______ ____
ROOT
ATOM      1  C   UNL     1       1.415   8.848  19.253  0.00  0.00    +0.000 A 
ATOM      2  N   UNL     1       2.262   7.778  18.996  0.00  0.00    +0.000 NA
ATOM      3  C   UNL     1       2.301   6.965  20.010  0.00  0.00    +0.000 A 
ATOM      4  N   UNL     1       2.978   5.773  20.089  0.00  0.00    +0.000 N 
ATOM      5  C   UNL     1       3.913   5.448  19.120  0.00  0.00    +0.000 C 
ATOM      6  O   UNL     1       4.288   6.213  18.230  0.00  0.00    +0.000 OA
ATOM      7  S   UNL     1       1.391   7.421  21.367  0.00  0.00    +0.000 S 
ATOM      8  C   UNL     1       0.876   8.865  20.540  0.00  0.00    +0.000 A 
ATOM      9  H   UNL     1       2.806   5.180  20.884  0.00  0.00    +0.000 HD
ENDROOT
BRANCH   5  10
ATOM     10  C   UNL     1       4.474   4.012  19.216  0.00  0.00    +0.000 C 
ATOM     11  C   UNL     1       3.542   3.139  20.108  0.00  0.00    +0.000 C 
ATOM     12  N   UNL     1       2.249   2.797  19.476  0.00  0.00    +0.000 NA
ATOM     13  C   UNL     1       2.500   2.168  18.172  0.00  0.00    +0.000 C 
ATOM     14  C   UNL     1       3.429   2.991  17.253  0.00  0.00    +0.000 C 
ATOM     15  N   UNL     1       4.694   3.398  17.883  0.00  0.00    +0.000 NA
ATOM     16  H   UNL     1       1.750   3.681  19.328  0.00  0.00    +0.000 HD
ATOM     17  H   UNL     1       5.224   3.993  17.258  0.00  0.00    +0.000 HD
ENDBRANCH   5  10
BRANCH   8  18
ATOM     18  C   UNL     1      -0.002   9.846  21.204  0.00  0.00    +0.000 A 
ATOM     19  C   UNL     1      -0.430   9.644  22.520  0.00  0.00    +0.000 A 
ATOM     20  C   UNL     1      -1.090  10.650  23.240  0.00  0.00    +0.000 A 
ATOM     21  C   UNL     1      -1.416  11.871  22.650  0.00  0.00    +0.000 A 
ATOM     22  C   UNL     1      -1.092  12.029  21.294  0.00  0.00    +0.000 A 
ATOM     23  C   UNL     1      -0.383  11.042  20.588  0.00  0.00    +0.000 A 
BRANCH  21  24
ATOM     24  N   UNL     1      -2.038  12.919  23.387  0.00  0.00    +0.000 N 
ATOM     25  C   UNL     1      -1.387  14.182  23.646  0.00  0.00    +0.000 C 
ATOM     26  C   UNL     1      -2.220  14.822  24.738  0.00  0.00    +0.000 C 
ATOM     27  C   UNL     1      -3.612  14.283  24.486  0.00  0.00    +0.000 C 
ATOM     28  C   UNL     1      -3.361  12.934  23.857  0.00  0.00    +0.000 C 
ATOM     29  O   UNL     1      -4.226  12.074  23.782  0.00  0.00    +0.000 OA
ENDBRANCH  21  24
ENDBRANCH   8  18
BRANCH   1  31
ATOM     30  C   UNL     1       2.214  10.859  17.929  0.00  0.00    +0.000 C 
ATOM     31  C   UNL     1       1.163   9.802  18.162  0.00  0.00    +0.000 C 
ATOM     32  O   UNL     1       0.172   9.749  17.434  0.00  0.00    +0.000 OA
ENDBRANCH   1  31
TORSDOF 4
ENDMDL
MODEL 5
REMARK VINA RESULT:      -8.2      2.147      9.820
REMARK  Name = 
REMARK  5 active torsions:
REMARK  status: ('A' for Active; 'I' for Inactive)
REMARK    1  A    between atoms: C_1  and  C_2
REMARK    2  A    between atoms: C_2  and  C_4
REMARK    3  A    between atoms: C_8  and  C_10
REMARK    4  A    between atoms: C_17  and  C_18
REMARK    5  A    between atoms: C_21  and  N_22
REMARK                            x       y       z     vdW  Elec       q    Type
REMARK                         _______ _______ _______ _____ _____    ______ ____
ROOT
ATOM      1  C   UNL     1       1.479   8.912  19.253  0.00  0.00    +0.000 A 
ATOM      2  N   UNL     1       2.195   7.782  18.881  0.00  0.00    +0.000 NA
ATOM      3  C   UNL     1       2.341   6.973  19.889  0.00  0.00    +0.000 A 
ATOM      4  N   UNL     1       2.934   5.736  19.877  0.00  0.00    +0.000 N 
ATOM      5  C   UNL     1       3.673   5.338  18.775  0.00  0.00    +0.000 C 
ATOM      6  O   UNL     1       3.952   6.068  17.822  0.00  0.00    +0.000 OA
ATOM      7  S   UNL     1       1.699   7.502  21.368  0.00  0.00    +0.000 S 
ATOM      8  C   UNL     1       1.161   8.975  20.610  0.00  0.00    +0.000 A 
ATOM      9  H   UNL     1       2.852   5.161  20.699  0.00  0.00    +0.000 HD
ENDROOT
BRANCH   5  10
ATOM     10  C   UNL     1       4.139   3.865  18.803  0.00  0.00    +0.000 C 
ATOM     11  C   UNL     1       3.548   3.148  20.055  0.00  0.00    +0.000 C 
ATOM     12  N   UNL     1       2.095   2.888  19.971  0.00  0.00    +0.000 NA
ATOM     13  C   UNL     1       1.807   2.149  18.734  0.00  0.00    +0.000 C 
ATOM     14  C   UNL     1       2.380   2.814  17.464  0.00  0.00    +0.000 C 
ATOM     15  N   UNL     1       3.811   3.142  17.550  0.00  0.00    +0.000 NA
ATOM     16  H   UNL     1       1.633   3.803  19.926  0.00  0.00    +0.000 HD
ATOM     17  H   UNL     1       4.110   3.639  16.719  0.00  0.00    +0.000 HD
ENDBRANCH   5  10
BRANCH   8  18
ATOM     18  C   UNL     1       0.474  10.022  21.390  0.00  0.00    +0.000 A 
ATOM     19  C   UNL     1       0.576  11.368  21.021  0.00  0.00    +0.000 A 
ATOM     20  C   UNL     1      -0.224  12.354  21.615  0.00  0.00    +0.000 A 
ATOM     21  C   UNL     1      -1.105  12.048  22.653  0.00  0.00    +0.000 A 
ATOM     22  C   UNL     1      -1.120  10.719  23.102  0.00  0.00    +0.000 A 
ATOM     23  C   UNL     1      -0.357   9.721  22.473  0.00  0.00    +0.000 A 
BRANCH  21  24
ATOM     24  N   UNL     1      -1.961  13.032  23.226  0.00  0.00    +0.000 N 
ATOM     25  C   UNL     1      -1.457  14.216  23.882  0.00  0.00    +0.000 C 
ATOM     26  C   UNL     1      -2.646  14.764  24.642  0.00  0.00    +0.000 C 
ATOM     27  C   UNL     1      -3.833  14.339  23.803  0.00  0.00    +0.000 C 
ATOM     28  C   UNL     1      -3.363  13.064  23.146  0.00  0.00    +0.000 C 
ATOM     29  O   UNL     1      -4.134  12.269  22.629  0.00  0.00    +0.000 OA
ENDBRANCH  21  24
ENDBRANCH   8  18
BRANCH   1  31
ATOM     30  C   UNL     1      -0.345  10.004  17.869  0.00  0.00    +0.000 C 
ATOM     31  C   UNL     1       1.121   9.876  18.201  0.00  0.00    +0.000 C 
ATOM     32  O   UNL     1       1.946  10.584  17.626  0.00  0.00    +0.000 OA
ENDBRANCH   1  31
TORSDOF 4
ENDMDL
MODEL 6
REMARK VINA RESULT:      -8.1      2.595      9.699
REMARK  Name = 
REMARK  5 active torsions:
REMARK  status: ('A' for Active; 'I' for Inactive)
REMARK    1  A    between atoms: C_1  and  C_2
REMARK    2  A    between atoms: C_2  and  C_4
REMARK    3  A    between atoms: C_8  and  C_10
REMARK    4  A    between atoms: C_17  and  C_18
REMARK    5  A    between atoms: C_21  and  N_22
REMARK                            x       y       z     vdW  Elec       q    Type
REMARK                         _______ _______ _______ _____ _____    ______ ____
ROOT
ATOM      1  C   UNL     1       0.234  10.232  19.809  0.00  0.00    +0.000 A 
ATOM      2  N   UNL     1       0.947   9.070  19.549  0.00  0.00    +0.000 NA
ATOM      3  C   UNL     1       1.260   8.461  20.656  0.00  0.00    +0.000 A 
ATOM      4  N   UNL     1       1.904   7.256  20.783  0.00  0.00    +0.000 N 
ATOM      5  C   UNL     1       2.513   6.682  19.679  0.00  0.00    +0.000 C 
ATOM      6  O   UNL     1       2.632   7.233  18.584  0.00  0.00    +0.000 OA
ATOM      7  S   UNL     1       0.789   9.235  22.090  0.00  0.00    +0.000 S 
ATOM      8  C   UNL     1       0.090  10.534  21.164  0.00  0.00    +0.000 A 
ATOM      9  H   UNL     1       1.955   6.838  21.698  0.00  0.00    +0.000 HD
ENDROOT
BRANCH   5  10
ATOM     10  C   UNL     1       3.046   5.249  19.905  0.00  0.00    +0.000 C 
ATOM     11  C   UNL     1       2.208   4.541  21.011  0.00  0.00    +0.000 C 
ATOM     12  N   UNL     1       0.840   4.171  20.587  0.00  0.00    +0.000 NA
ATOM     13  C   UNL     1       0.915   3.365  19.362  0.00  0.00    +0.000 C 
ATOM     14  C   UNL     1       1.745   4.019  18.236  0.00  0.00    +0.000 C 
ATOM     15  N   UNL     1       3.087   4.454  18.652  0.00  0.00    +0.000 NA
ATOM     16  H   UNL     1       0.348   5.048  20.378  0.00  0.00    +0.000 HD
ATOM     17  H   UNL     1       3.551   4.939  17.894  0.00  0.00    +0.000 HD
ENDBRANCH   5  10
BRANCH   8  18
ATOM     18  C   UNL     1      -0.538  11.689  21.832  0.00  0.00    +0.000 A 
ATOM     19  C   UNL     1      -1.592  11.505  22.733  0.00  0.00    +0.000 A 
ATOM     20  C   UNL     1      -2.068  12.554  23.532  0.00  0.00    +0.000 A 
ATOM     21  C   UNL     1      -1.559  13.848  23.409  0.00  0.00    +0.000 A 
ATOM     22  C   UNL     1      -0.584  14.057  22.423  0.00  0.00    +0.000 A 
ATOM     23  C   UNL     1      -0.070  12.995  21.659  0.00  0.00    +0.000 A 
BRANCH  21  24
ATOM     24  N   UNL     1      -1.997  14.909  24.252  0.00  0.00    +0.000 N 
ATOM     25  C   UNL     1      -3.390  15.137  24.558  0.00  0.00    +0.000 C 
ATOM     26  C   UNL     1      -3.426  16.531  25.149  0.00  0.00    +0.000 C 
ATOM     27  C   UNL     1      -2.072  16.674  25.810  0.00  0.00    +0.000 C 
ATOM     28  C   UNL     1      -1.176  15.788  24.978  0.00  0.00    +0.000 C 
ATOM     29  O   UNL     1       0.042  15.868  25.015  0.00  0.00    +0.000 OA
ENDBRANCH  21  24
ENDBRANCH   8  18
BRANCH   1  31
ATOM     30  C   UNL     1      -1.420  10.328  17.888  0.00  0.00    +0.000 C 
ATOM     31  C   UNL     1      -0.301  10.981  18.662  0.00  0.00    +0.000 C 
ATOM     32  O   UNL     1       0.096  12.101  18.342  0.00  0.00    +0.000 OA
ENDBRANCH   1  31
TORSDOF 4
ENDMDL
MODEL 7
REMARK VINA RESULT:      -8.1      2.530      9.676
REMARK  Name = 
REMARK  5 active torsions:
REMARK  status: ('A' for Active; 'I' for Inactive)
REMARK    1  A    between atoms: C_1  and  C_2
REMARK    2  A    between atoms: C_2  and  C_4
REMARK    3  A    between atoms: C_8  and  C_10
REMARK    4  A    between atoms: C_17  and  C_18
REMARK    5  A    between atoms: C_21  and  N_22
REMARK                            x       y       z     vdW  Elec       q    Type
REMARK                         _______ _______ _______ _____ _____    ______ ____
ROOT
ATOM      1  C   UNL     1       0.458  10.078  19.822  0.00  0.00    +0.000 A 
ATOM      2  N   UNL     1       1.146   8.896  19.582  0.00  0.00    +0.000 NA
ATOM      3  C   UNL     1       1.379   8.261  20.693  0.00  0.00    +0.000 A 
ATOM      4  N   UNL     1       1.975   7.034  20.835  0.00  0.00    +0.000 N 
ATOM      5  C   UNL     1       2.623   6.455  19.756  0.00  0.00    +0.000 C 
ATOM      6  O   UNL     1       2.818   7.017  18.677  0.00  0.00    +0.000 OA
ATOM      7  S   UNL     1       0.859   9.030  22.114  0.00  0.00    +0.000 S 
ATOM      8  C   UNL     1       0.253  10.364  21.172  0.00  0.00    +0.000 A 
ATOM      9  H   UNL     1       1.965   6.601  21.744  0.00  0.00    +0.000 HD
ENDROOT
BRANCH   5  10
ATOM     10  C   UNL     1       3.096   5.002  19.986  0.00  0.00    +0.000 C 
ATOM     11  C   UNL     1       2.184   4.310  21.043  0.00  0.00    +0.000 C 
ATOM     12  N   UNL     1       0.825   3.993  20.552  0.00  0.00    +0.000 NA
ATOM     13  C   UNL     1       0.930   3.199  19.321  0.00  0.00    +0.000 C 
ATOM     14  C   UNL     1       1.832   3.838  18.244  0.00  0.00    +0.000 C 
ATOM     15  N   UNL     1       3.167   4.221  18.726  0.00  0.00    +0.000 NA
ATOM     16  H   UNL     1       0.374   4.888  20.333  0.00  0.00    +0.000 HD
ATOM     17  H   UNL     1       3.683   4.699  17.996  0.00  0.00    +0.000 HD
ENDBRANCH   5  10
BRANCH   8  18
ATOM     18  C   UNL     1      -0.372  11.530  21.825  0.00  0.00    +0.000 A 
ATOM     19  C   UNL     1      -1.434  11.362  22.720  0.00  0.00    +0.000 A 
ATOM     20  C   UNL     1      -1.907  12.423  23.505  0.00  0.00    +0.000 A 
ATOM     21  C   UNL     1      -1.388  13.711  23.374  0.00  0.00    +0.000 A 
ATOM     22  C   UNL     1      -0.405  13.904  22.393  0.00  0.00    +0.000 A 
ATOM     23  C   UNL     1       0.107  12.831  21.643  0.00  0.00    +0.000 A 
BRANCH  21  24
ATOM     24  N   UNL     1      -1.825  14.784  24.204  0.00  0.00    +0.000 N 
ATOM     25  C   UNL     1      -0.911  15.591  24.979  0.00  0.00    +0.000 C 
ATOM     26  C   UNL     1      -1.796  16.329  25.962  0.00  0.00    +0.000 C 
ATOM     27  C   UNL     1      -3.106  16.480  25.218  0.00  0.00    +0.000 C 
ATOM     28  C   UNL     1      -3.135  15.278  24.305  0.00  0.00    +0.000 C 
ATOM     29  O   UNL     1      -4.160  14.890  23.764  0.00  0.00    +0.000 OA
ENDBRANCH  21  24
ENDBRANCH   8  18
BRANCH   1  31
ATOM     30  C   UNL     1      -1.200  10.344  17.921  0.00  0.00    +0.000 C 
ATOM     31  C   UNL     1       0.010  10.860  18.660  0.00  0.00    +0.000 C 
ATOM     32  O   UNL     1       0.549  11.906  18.303  0.00  0.00    +0.000 OA
ENDBRANCH   1  31
TORSDOF 4
ENDMDL
MODEL 8
REMARK VINA RESULT:      -8.1      1.152      1.201
REMARK  Name = 
REMARK  5 active torsions:
REMARK  status: ('A' for Active; 'I' for Inactive)
REMARK    1  A    between atoms: C_1  and  C_2
REMARK    2  A    between atoms: C_2  and  C_4
REMARK    3  A    between atoms: C_8  and  C_10
REMARK    4  A    between atoms: C_17  and  C_18
REMARK    5  A    between atoms: C_21  and  N_22
REMARK                            x       y       z     vdW  Elec       q    Type
REMARK                         _______ _______ _______ _____ _____    ______ ____
ROOT
ATOM      1  C   UNL     1       0.129  11.551  20.414  0.00  0.00    +0.000 A 
ATOM      2  N   UNL     1      -0.790  12.196  21.233  0.00  0.00    +0.000 NA
ATOM      3  C   UNL     1      -1.208  11.402  22.175  0.00  0.00    +0.000 A 
ATOM      4  N   UNL     1      -2.065  11.714  23.199  0.00  0.00    +0.000 N 
ATOM      5  C   UNL     1      -2.773  12.905  23.165  0.00  0.00    +0.000 C 
ATOM      6  O   UNL     1      -2.789  13.679  22.206  0.00  0.00    +0.000 OA
ATOM      7  S   UNL     1      -0.599   9.819  22.140  0.00  0.00    +0.000 S 
ATOM      8  C   UNL     1       0.328  10.204  20.717  0.00  0.00    +0.000 A 
ATOM      9  H   UNL     1      -2.192  11.040  23.936  0.00  0.00    +0.000 HD
ENDROOT
BRANCH   5  10
ATOM     10  C   UNL     1      -3.563  13.227  24.453  0.00  0.00    +0.000 C 
ATOM     11  C   UNL     1      -3.902  14.747  24.499  0.00  0.00    +0.000 C 
ATOM     12  N   UNL     1      -4.938  15.164  23.529  0.00  0.00    +0.000 NA
ATOM     13  C   UNL     1      -6.136  14.334  23.715  0.00  0.00    +0.000 C 
ATOM     14  C   UNL     1      -5.851  12.817  23.688  0.00  0.00    +0.000 C 
ATOM     15  N   UNL     1      -4.779  12.388  24.598  0.00  0.00    +0.000 NA
ATOM     16  H   UNL     1      -4.554  14.989  22.593  0.00  0.00    +0.000 HD
ATOM     17  H   UNL     1      -4.591  11.400  24.482  0.00  0.00    +0.000 HD
ENDBRANCH   5  10
BRANCH   8  18
ATOM     18  C   UNL     1       1.162   9.182  20.056  0.00  0.00    +0.000 A 
ATOM     19  C   UNL     1       1.614   8.064  20.765  0.00  0.00    +0.000 A 
ATOM     20  C   UNL     1       2.229   6.983  20.117  0.00  0.00    +0.000 A 
ATOM     21  C   UNL     1       2.485   7.009  18.745  0.00  0.00    +0.000 A 
ATOM     22  C   UNL     1       2.138   8.180  18.056  0.00  0.00    +0.000 A 
ATOM     23  C   UNL     1       1.474   9.241  18.695  0.00  0.00    +0.000 A 
BRANCH  21  24
ATOM     24  N   UNL     1       3.060   5.895  18.068  0.00  0.00    +0.000 N 
ATOM     25  C   UNL     1       4.451   5.851  17.684  0.00  0.00    +0.000 C 
ATOM     26  C   UNL     1       4.537   4.705  16.698  0.00  0.00    +0.000 C 
ATOM     27  C   UNL     1       3.447   3.759  17.155  0.00  0.00    +0.000 C 
ATOM     28  C   UNL     1       2.425   4.675  17.784  0.00  0.00    +0.000 C 
ATOM     29  O   UNL     1       1.275   4.324  18.004  0.00  0.00    +0.000 OA
ENDBRANCH  21  24
ENDBRANCH   8  18
BRANCH   1  31
ATOM     30  C   UNL     1      -0.094  12.916  18.288  0.00  0.00    +0.000 C 
ATOM     31  C   UNL     1       0.791  12.344  19.368  0.00  0.00    +0.000 C 
ATOM     32  O   UNL     1       1.999  12.579  19.362  0.00  0.00    +0.000 OA
ENDBRANCH   1  31
TORSDOF 4
ENDMDL
MODEL 9
REMARK VINA RESULT:      -8.1      2.281      9.905
REMARK  Name = 
REMARK  5 active torsions:
REMARK  status: ('A' for Active; 'I' for Inactive)
REMARK    1  A    between atoms: C_1  and  C_2
REMARK    2  A    between atoms: C_2  and  C_4
REMARK    3  A    between atoms: C_8  and  C_10
REMARK    4  A    between atoms: C_17  and  C_18
REMARK    5  A    between atoms: C_21  and  N_22
REMARK                            x       y       z     vdW  Elec       q    Type
REMARK                         _______ _______ _______ _____ _____    ______ ____
ROOT
ATOM      1  C   UNL     1       1.521   8.852  19.233  0.00  0.00    +0.000 A 
ATOM      2  N   UNL     1       2.255   7.740  18.844  0.00  0.00    +0.000 NA
ATOM      3  C   UNL     1       2.404   6.912  19.836  0.00  0.00    +0.000 A 
ATOM      4  N   UNL     1       3.014   5.684  19.804  0.00  0.00    +0.000 N 
ATOM      5  C   UNL     1       3.768   5.319  18.700  0.00  0.00    +0.000 C 
ATOM      6  O   UNL     1       4.043   6.072  17.765  0.00  0.00    +0.000 OA
ATOM      7  S   UNL     1       1.743   7.402  21.321  0.00  0.00    +0.000 S 
ATOM      8  C   UNL     1       1.191   8.883  20.589  0.00  0.00    +0.000 A 
ATOM      9  H   UNL     1       2.934   5.091  20.613  0.00  0.00    +0.000 HD
ENDROOT
BRANCH   5  10
ATOM     10  C   UNL     1       4.253   3.852  18.701  0.00  0.00    +0.000 C 
ATOM     11  C   UNL     1       3.763   3.135  19.995  0.00  0.00    +0.000 C 
ATOM     12  N   UNL     1       2.311   2.855  20.016  0.00  0.00    +0.000 NA
ATOM     13  C   UNL     1       1.945   2.106  18.807  0.00  0.00    +0.000 C 
ATOM     14  C   UNL     1       2.417   2.772  17.496  0.00  0.00    +0.000 C 
ATOM     15  N   UNL     1       3.846   3.118  17.477  0.00  0.00    +0.000 NA
ATOM     16  H   UNL     1       1.835   3.765  20.001  0.00  0.00    +0.000 HD
ATOM     17  H   UNL     1       4.078   3.615  16.626  0.00  0.00    +0.000 HD
ENDBRANCH   5  10
BRANCH   8  18
ATOM     18  C   UNL     1       0.484   9.904  21.385  0.00  0.00    +0.000 A 
ATOM     19  C   UNL     1       0.522  11.251  21.011  0.00  0.00    +0.000 A 
ATOM     20  C   UNL     1      -0.301  12.207  21.624  0.00  0.00    +0.000 A 
ATOM     21  C   UNL     1      -1.141  11.868  22.686  0.00  0.00    +0.000 A 
ATOM     22  C   UNL     1      -1.091  10.542  23.138  0.00  0.00    +0.000 A 
ATOM     23  C   UNL     1      -0.306   9.573  22.490  0.00  0.00    +0.000 A 
BRANCH  21  24
ATOM     24  N   UNL     1      -2.020  12.819  23.279  0.00  0.00    +0.000 N 
ATOM     25  C   UNL     1      -3.418  12.544  23.519  0.00  0.00    +0.000 C 
ATOM     26  C   UNL     1      -4.029  13.901  23.798  0.00  0.00    +0.000 C 
ATOM     27  C   UNL     1      -2.894  14.682  24.424  0.00  0.00    +0.000 C 
ATOM     28  C   UNL     1      -1.660  14.070  23.807  0.00  0.00    +0.000 C 
ATOM     29  O   UNL     1      -0.569  14.620  23.835  0.00  0.00    +0.000 OA
ENDBRANCH  21  24
ENDBRANCH   8  18
BRANCH   1  31
ATOM     30  C   UNL     1      -0.307   9.948  17.858  0.00  0.00    +0.000 C 
ATOM     31  C   UNL     1       1.158   9.833  18.200  0.00  0.00    +0.000 C 
ATOM     32  O   UNL     1       1.978  10.564  17.646  0.00  0.00    +0.000 OA
ENDBRANCH   1  31
TORSDOF 4
ENDMDL
