MODEL 1
REMARK VINA RESULT:      -7.7      0.000      0.000
REMARK  Name = 
REMARK  3 active torsions:
REMARK  status: ('A' for Active; 'I' for Inactive)
REMARK    1  A    between atoms: S_2  and  C_4
REMARK    2  A    between atoms: S_2  and  N_11
REMARK    3  A    between atoms: C_4  and  C_5
REMARK                            x       y       z     vdW  Elec       q    Type
REMARK                         _______ _______ _______ _____ _____    ______ ____
ROOT
ATOM      1  N   UNL     1       5.097  16.101  19.021  0.00  0.00    +0.000 NA
ATOM      2  C   UNL     1       5.781  14.936  18.432  0.00  0.00    +0.000 C 
ATOM      3  C   UNL     1       6.930  15.420  17.571  0.00  0.00    +0.000 C 
ATOM      4  C   UNL     1       8.011  15.912  18.514  0.00  0.00    +0.000 C 
ATOM      5  C   UNL     1       7.473  16.942  19.514  0.00  0.00    +0.000 C 
ATOM      6  C   UNL     1       5.970  17.244  19.419  0.00  0.00    +0.000 C 
ATOM      7  O   UNL     1       9.112  16.427  17.773  0.00  0.00    +0.000 OA
ATOM      8  O   UNL     1       9.954  15.249  17.525  0.00  0.00    +0.000 OA
ATOM      9  C   UNL     1       9.734  14.418  18.663  0.00  0.00    +0.000 C 
ATOM     10  O   UNL     1       8.492  14.790  19.252  0.00  0.00    +0.000 OA
ATOM     11  C   UNL     1      10.851  14.603  19.712  0.00  0.00    +0.000 C 
ATOM     12  C   UNL     1      10.497  13.768  20.961  0.00  0.00    +0.000 C 
ATOM     13  C   UNL     1      10.390  12.277  20.586  0.00  0.00    +0.000 C 
ATOM     14  C   UNL     1      11.751  11.815  20.038  0.00  0.00    +0.000 C 
ATOM     15  C   UNL     1      12.118  12.628  18.783  0.00  0.00    +0.000 C 
ATOM     16  C   UNL     1      12.200  14.121  19.148  0.00  0.00    +0.000 C 
ATOM     17  C   UNL     1      11.031  12.442  17.712  0.00  0.00    +0.000 C 
ATOM     18  C   UNL     1       9.670  12.923  18.255  0.00  0.00    +0.000 C 
ATOM     19  C   UNL     1       9.320  12.074  19.495  0.00  0.00    +0.000 C 
ENDROOT
BRANCH   1  21
ATOM     20  O   UNL     1       3.310  17.042  20.570  0.00  0.00    +0.000 OA
ATOM     21  S   UNL     1       3.749  15.768  20.030  0.00  0.00    +0.000 S 
ATOM     22  O   UNL     1       4.150  14.673  20.895  0.00  0.00    +0.000 OA
BRANCH  21  23
ATOM     23  C   UNL     1       2.539  15.191  18.827  0.00  0.00    +0.000 C 
BRANCH  23  24
ATOM     24  C   UNL     1       1.646  16.297  18.323  0.00  0.00    +0.000 A 
ATOM     25  C   UNL     1       2.143  17.235  17.407  0.00  0.00    +0.000 A 
ATOM     26  C   UNL     1       1.304  18.192  16.832  0.00  0.00    +0.000 A 
ATOM     27  C   UNL     1      -0.045  18.227  17.168  0.00  0.00    +0.000 A 
ATOM     28  C   UNL     1      -0.555  17.307  18.082  0.00  0.00    +0.000 A 
ATOM     29  C   UNL     1       0.282  16.346  18.654  0.00  0.00    +0.000 A 
ENDBRANCH  23  24
ENDBRANCH  21  23
ENDBRANCH   1  21
TORSDOF 3
ENDMDL
MODEL 2
REMARK VINA RESULT:      -7.6      1.149      1.603
REMARK  Name = 
REMARK  3 active torsions:
REMARK  status: ('A' for Active; 'I' for Inactive)
REMARK    1  A    between atoms: S_2  and  C_4
REMARK    2  A    between atoms: S_2  and  N_11
REMARK    3  A    between atoms: C_4  and  C_5
REMARK                            x       y       z     vdW  Elec       q    Type
REMARK                         _______ _______ _______ _____ _____    ______ ____
ROOT
ATOM      1  N   UNL     1       5.806  17.292  19.631  0.00  0.00    +0.000 NA
ATOM      2  C   UNL     1       6.459  16.565  18.528  0.00  0.00    +0.000 C 
ATOM      3  C   UNL     1       7.917  16.970  18.462  0.00  0.00    +0.000 C 
ATOM      4  C   UNL     1       8.608  16.325  19.649  0.00  0.00    +0.000 C 
ATOM      5  C   UNL     1       7.903  16.654  20.970  0.00  0.00    +0.000 C 
ATOM      6  C   UNL     1       6.632  17.510  20.854  0.00  0.00    +0.000 C 
ATOM      7  O   UNL     1       9.981  16.699  19.681  0.00  0.00    +0.000 OA
ATOM      8  O   UNL     1      10.641  15.697  18.833  0.00  0.00    +0.000 OA
ATOM      9  C   UNL     1       9.855  14.519  19.009  0.00  0.00    +0.000 C 
ATOM     10  O   UNL     1       8.563  14.911  19.466  0.00  0.00    +0.000 OA
ATOM     11  C   UNL     1      10.484  13.583  20.063  0.00  0.00    +0.000 C 
ATOM     12  C   UNL     1       9.533  12.389  20.291  0.00  0.00    +0.000 C 
ATOM     13  C   UNL     1       9.332  11.615  18.974  0.00  0.00    +0.000 C 
ATOM     14  C   UNL     1      10.699  11.089  18.505  0.00  0.00    +0.000 C 
ATOM     15  C   UNL     1      11.661  12.266  18.260  0.00  0.00    +0.000 C 
ATOM     16  C   UNL     1      11.844  13.057  19.566  0.00  0.00    +0.000 C 
ATOM     17  C   UNL     1      11.067  13.205  17.196  0.00  0.00    +0.000 C 
ATOM     18  C   UNL     1       9.704  13.746  17.674  0.00  0.00    +0.000 C 
ATOM     19  C   UNL     1       8.758  12.546  17.888  0.00  0.00    +0.000 C 
ENDROOT
BRANCH   1  21
ATOM     20  O   UNL     1       3.517  18.255  20.192  0.00  0.00    +0.000 OA
ATOM     21  S   UNL     1       4.135  16.981  19.870  0.00  0.00    +0.000 S 
ATOM     22  O   UNL     1       4.059  15.848  20.775  0.00  0.00    +0.000 OA
BRANCH  21  23
ATOM     23  C   UNL     1       3.627  16.482  18.216  0.00  0.00    +0.000 C 
BRANCH  23  24
ATOM     24  C   UNL     1       2.199  16.858  17.907  0.00  0.00    +0.000 A 
ATOM     25  C   UNL     1       1.151  16.287  18.642  0.00  0.00    +0.000 A 
ATOM     26  C   UNL     1      -0.168  16.710  18.461  0.00  0.00    +0.000 A 
ATOM     27  C   UNL     1      -0.457  17.709  17.536  0.00  0.00    +0.000 A 
ATOM     28  C   UNL     1       0.572  18.283  16.792  0.00  0.00    +0.000 A 
ATOM     29  C   UNL     1       1.891  17.864  16.977  0.00  0.00    +0.000 A 
ENDBRANCH  23  24
ENDBRANCH  21  23
ENDBRANCH   1  21
TORSDOF 3
ENDMDL
MODEL 3
REMARK VINA RESULT:      -7.4      1.560      2.572
REMARK  Name = 
REMARK  3 active torsions:
REMARK  status: ('A' for Active; 'I' for Inactive)
REMARK    1  A    between atoms: S_2  and  C_4
REMARK    2  A    between atoms: S_2  and  N_11
REMARK    3  A    between atoms: C_4  and  C_5
REMARK                            x       y       z     vdW  Elec       q    Type
REMARK                         _______ _______ _______ _____ _____    ______ ____
ROOT
ATOM      1  N   UNL     1       5.131  15.898  18.776  0.00  0.00    +0.000 NA
ATOM      2  C   UNL     1       5.880  14.775  18.185  0.00  0.00    +0.000 C 
ATOM      3  C   UNL     1       7.067  15.320  17.417  0.00  0.00    +0.000 C 
ATOM      4  C   UNL     1       8.075  15.798  18.445  0.00  0.00    +0.000 C 
ATOM      5  C   UNL     1       7.451  16.772  19.450  0.00  0.00    +0.000 C 
ATOM      6  C   UNL     1       5.949  17.043  19.273  0.00  0.00    +0.000 C 
ATOM      7  O   UNL     1       9.206  16.368  17.796  0.00  0.00    +0.000 OA
ATOM      8  O   UNL     1      10.091  15.221  17.553  0.00  0.00    +0.000 OA
ATOM      9  C   UNL     1       9.823  14.338  18.641  0.00  0.00    +0.000 C 
ATOM     10  O   UNL     1       8.538  14.657  19.167  0.00  0.00    +0.000 OA
ATOM     11  C   UNL     1      10.868  14.505  19.765  0.00  0.00    +0.000 C 
ATOM     12  C   UNL     1      10.460  13.611  20.954  0.00  0.00    +0.000 C 
ATOM     13  C   UNL     1      10.414  12.135  20.514  0.00  0.00    +0.000 C 
ATOM     14  C   UNL     1      11.817  11.727  20.035  0.00  0.00    +0.000 C 
ATOM     15  C   UNL     1      12.240  12.600  18.838  0.00  0.00    +0.000 C 
ATOM     16  C   UNL     1      12.262  14.077  19.267  0.00  0.00    +0.000 C 
ATOM     17  C   UNL     1      11.225  12.434  17.695  0.00  0.00    +0.000 C 
ATOM     18  C   UNL     1       9.822  12.861  18.171  0.00  0.00    +0.000 C 
ATOM     19  C   UNL     1       9.418  11.953  19.351  0.00  0.00    +0.000 C 
ENDROOT
BRANCH   1  21
ATOM     20  O   UNL     1       3.211  16.738  20.222  0.00  0.00    +0.000 OA
ATOM     21  S   UNL     1       3.733  15.493  19.685  0.00  0.00    +0.000 S 
ATOM     22  O   UNL     1       4.116  14.393  20.551  0.00  0.00    +0.000 OA
BRANCH  21  23
ATOM     23  C   UNL     1       2.628  14.902  18.392  0.00  0.00    +0.000 C 
BRANCH  23  24
ATOM     24  C   UNL     1       1.994  13.576  18.728  0.00  0.00    +0.000 A 
ATOM     25  C   UNL     1       0.843  13.533  19.527  0.00  0.00    +0.000 A 
ATOM     26  C   UNL     1       0.167  12.331  19.750  0.00  0.00    +0.000 A 
ATOM     27  C   UNL     1       0.637  11.152  19.179  0.00  0.00    +0.000 A 
ATOM     28  C   UNL     1       1.784  11.175  18.388  0.00  0.00    +0.000 A 
ATOM     29  C   UNL     1       2.457  12.377  18.161  0.00  0.00    +0.000 A 
ENDBRANCH  23  24
ENDBRANCH  21  23
ENDBRANCH   1  21
TORSDOF 3
ENDMDL
MODEL 4
REMARK VINA RESULT:      -7.4      2.374      3.249
REMARK  Name = 
REMARK  3 active torsions:
REMARK  status: ('A' for Active; 'I' for Inactive)
REMARK    1  A    between atoms: S_2  and  C_4
REMARK    2  A    between atoms: S_2  and  N_11
REMARK    3  A    between atoms: C_4  and  C_5
REMARK                            x       y       z     vdW  Elec       q    Type
REMARK                         _______ _______ _______ _____ _____    ______ ____
ROOT
ATOM      1  N   UNL     1       4.390  15.319  19.803  0.00  0.00    +0.000 NA
ATOM      2  C   UNL     1       5.261  14.875  18.701  0.00  0.00    +0.000 C 
ATOM      3  C   UNL     1       6.473  15.783  18.632  0.00  0.00    +0.000 C 
ATOM      4  C   UNL     1       7.351  15.436  19.818  0.00  0.00    +0.000 C 
ATOM      5  C   UNL     1       6.577  15.490  21.140  0.00  0.00    +0.000 C 
ATOM      6  C   UNL     1       5.081  15.825  21.025  0.00  0.00    +0.000 C 
ATOM      7  O   UNL     1       8.495  16.283  19.847  0.00  0.00    +0.000 OA
ATOM      8  O   UNL     1       9.473  15.587  19.000  0.00  0.00    +0.000 OA
ATOM      9  C   UNL     1       9.169  14.205  19.181  0.00  0.00    +0.000 C 
ATOM     10  O   UNL     1       7.823  14.102  19.639  0.00  0.00    +0.000 OA
ATOM     11  C   UNL     1      10.096  13.564  20.236  0.00  0.00    +0.000 C 
ATOM     12  C   UNL     1       9.644  12.107  20.468  0.00  0.00    +0.000 C 
ATOM     13  C   UNL     1       9.736  11.309  19.153  0.00  0.00    +0.000 C 
ATOM     14  C   UNL     1      11.201  11.314  18.684  0.00  0.00    +0.000 C 
ATOM     15  C   UNL     1      11.669  12.760  18.433  0.00  0.00    +0.000 C 
ATOM     16  C   UNL     1      11.554  13.567  19.738  0.00  0.00    +0.000 C 
ATOM     17  C   UNL     1      10.774  13.415  17.369  0.00  0.00    +0.000 C 
ATOM     18  C   UNL     1       9.308  13.426  17.848  0.00  0.00    +0.000 C 
ATOM     19  C   UNL     1       8.863  11.965  18.066  0.00  0.00    +0.000 C 
ENDROOT
BRANCH   1  21
ATOM     20  O   UNL     1       1.871  15.392  20.166  0.00  0.00    +0.000 OA
ATOM     21  S   UNL     1       2.946  14.422  20.046  0.00  0.00    +0.000 S 
ATOM     22  O   UNL     1       3.233  13.470  21.104  0.00  0.00    +0.000 OA
BRANCH  21  23
ATOM     23  C   UNL     1       2.792  13.564  18.471  0.00  0.00    +0.000 C 
BRANCH  23  24
ATOM     24  C   UNL     1       1.887  12.360  18.549  0.00  0.00    +0.000 A 
ATOM     25  C   UNL     1       0.534  12.521  18.879  0.00  0.00    +0.000 A 
ATOM     26  C   UNL     1      -0.349  11.441  18.838  0.00  0.00    +0.000 A 
ATOM     27  C   UNL     1       0.109  10.180  18.469  0.00  0.00    +0.000 A 
ATOM     28  C   UNL     1       1.453  10.000  18.144  0.00  0.00    +0.000 A 
ATOM     29  C   UNL     1       2.336  11.081  18.181  0.00  0.00    +0.000 A 
ENDBRANCH  23  24
ENDBRANCH  21  23
ENDBRANCH   1  21
TORSDOF 3
ENDMDL
MODEL 5
REMARK VINA RESULT:      -7.3      2.056      2.724
REMARK  Name = 
REMARK  3 active torsions:
REMARK  status: ('A' for Active; 'I' for Inactive)
REMARK    1  A    between atoms: S_2  and  C_4
REMARK    2  A    between atoms: S_2  and  N_11
REMARK    3  A    between atoms: C_4  and  C_5
REMARK                            x       y       z     vdW  Elec       q    Type
REMARK                         _______ _______ _______ _____ _____    ______ ____
ROOT
ATOM      1  N   UNL     1       4.627  15.347  19.044  0.00  0.00    +0.000 NA
ATOM      2  C   UNL     1       5.488  14.520  18.180  0.00  0.00    +0.000 C 
ATOM      3  C   UNL     1       6.658  15.355  17.701  0.00  0.00    +0.000 C 
ATOM      4  C   UNL     1       7.581  15.543  18.890  0.00  0.00    +0.000 C 
ATOM      5  C   UNL     1       6.838  16.106  20.108  0.00  0.00    +0.000 C 
ATOM      6  C   UNL     1       5.328  16.324  19.928  0.00  0.00    +0.000 C 
ATOM      7  O   UNL     1       8.688  16.361  18.528  0.00  0.00    +0.000 OA
ATOM      8  O   UNL     1       9.672  15.409  17.996  0.00  0.00    +0.000 OA
ATOM      9  C   UNL     1       9.431  14.211  18.731  0.00  0.00    +0.000 C 
ATOM     10  O   UNL     1       8.103  14.265  19.246  0.00  0.00    +0.000 OA
ATOM     11  C   UNL     1      10.411  14.078  19.916  0.00  0.00    +0.000 C 
ATOM     12  C   UNL     1      10.027  12.828  20.736  0.00  0.00    +0.000 C 
ATOM     13  C   UNL     1      10.119  11.569  19.852  0.00  0.00    +0.000 C 
ATOM     14  C   UNL     1      11.569  11.424  19.361  0.00  0.00    +0.000 C 
ATOM     15  C   UNL     1      11.970  12.657  18.530  0.00  0.00    +0.000 C 
ATOM     16  C   UNL     1      11.854  13.920  19.401  0.00  0.00    +0.000 C 
ATOM     17  C   UNL     1      11.020  12.800  17.328  0.00  0.00    +0.000 C 
ATOM     18  C   UNL     1       9.569  12.963  17.822  0.00  0.00    +0.000 C 
ATOM     19  C   UNL     1       9.191  11.704  18.629  0.00  0.00    +0.000 C 
ENDROOT
BRANCH   1  21
ATOM     20  O   UNL     1       2.212  15.616  19.803  0.00  0.00    +0.000 OA
ATOM     21  S   UNL     1       3.229  14.586  19.686  0.00  0.00    +0.000 S 
ATOM     22  O   UNL     1       3.675  13.824  20.838  0.00  0.00    +0.000 OA
BRANCH  21  23
ATOM     23  C   UNL     1       2.784  13.470  18.344  0.00  0.00    +0.000 C 
BRANCH  23  24
ATOM     24  C   UNL     1       1.488  12.743  18.597  0.00  0.00    +0.000 A 
ATOM     25  C   UNL     1       1.502  11.465  19.173  0.00  0.00    +0.000 A 
ATOM     26  C   UNL     1       0.314  10.824  19.530  0.00  0.00    +0.000 A 
ATOM     27  C   UNL     1      -0.908  11.451  19.312  0.00  0.00    +0.000 A 
ATOM     28  C   UNL     1      -0.942  12.720  18.735  0.00  0.00    +0.000 A 
ATOM     29  C   UNL     1       0.246  13.363  18.382  0.00  0.00    +0.000 A 
ENDBRANCH  23  24
ENDBRANCH  21  23
ENDBRANCH   1  21
TORSDOF 3
ENDMDL
MODEL 6
REMARK VINA RESULT:      -7.3      0.950      1.079
REMARK  Name = 
REMARK  3 active torsions:
REMARK  status: ('A' for Active; 'I' for Inactive)
REMARK    1  A    between atoms: S_2  and  C_4
REMARK    2  A    between atoms: S_2  and  N_11
REMARK    3  A    between atoms: C_4  and  C_5
REMARK                            x       y       z     vdW  Elec       q    Type
REMARK                         _______ _______ _______ _____ _____    ______ ____
ROOT
ATOM      1  N   UNL     1       4.872  15.488  19.106  0.00  0.00    +0.000 NA
ATOM      2  C   UNL     1       5.675  14.551  18.302  0.00  0.00    +0.000 C 
ATOM      3  C   UNL     1       6.823  15.305  17.662  0.00  0.00    +0.000 C 
ATOM      4  C   UNL     1       7.813  15.622  18.766  0.00  0.00    +0.000 C 
ATOM      5  C   UNL     1       7.146  16.337  19.946  0.00  0.00    +0.000 C 
ATOM      6  C   UNL     1       5.629  16.554  19.825  0.00  0.00    +0.000 C 
ATOM      7  O   UNL     1       8.904  16.374  18.247  0.00  0.00    +0.000 OA
ATOM      8  O   UNL     1       9.849  15.351  17.779  0.00  0.00    +0.000 OA
ATOM      9  C   UNL     1       9.641  14.254  18.667  0.00  0.00    +0.000 C 
ATOM     10  O   UNL     1       8.345  14.388  19.244  0.00  0.00    +0.000 OA
ATOM     11  C   UNL     1      10.686  14.250  19.802  0.00  0.00    +0.000 C 
ATOM     12  C   UNL     1      10.340  13.113  20.787  0.00  0.00    +0.000 C 
ATOM     13  C   UNL     1      10.371  11.755  20.058  0.00  0.00    +0.000 C 
ATOM     14  C   UNL     1      11.791  11.532  19.509  0.00  0.00    +0.000 C 
ATOM     15  C   UNL     1      12.153  12.650  18.513  0.00  0.00    +0.000 C 
ATOM     16  C   UNL     1      12.096  14.010  19.231  0.00  0.00    +0.000 C 
ATOM     17  C   UNL     1      11.137  12.661  17.358  0.00  0.00    +0.000 C 
ATOM     18  C   UNL     1       9.717  12.904  17.908  0.00  0.00    +0.000 C 
ATOM     19  C   UNL     1       9.376  11.756  18.881  0.00  0.00    +0.000 C 
ENDROOT
BRANCH   1  21
ATOM     20  O   UNL     1       4.016  14.079  21.046  0.00  0.00    +0.000 OA
ATOM     21  S   UNL     1       3.507  14.830  19.913  0.00  0.00    +0.000 S 
ATOM     22  O   UNL     1       2.694  14.202  18.887  0.00  0.00    +0.000 OA
BRANCH  21  23
ATOM     23  C   UNL     1       2.696  16.322  20.513  0.00  0.00    +0.000 C 
BRANCH  23  24
ATOM     24  C   UNL     1       1.582  16.783  19.607  0.00  0.00    +0.000 A 
ATOM     25  C   UNL     1       1.881  17.471  18.423  0.00  0.00    +0.000 A 
ATOM     26  C   UNL     1       0.878  17.799  17.509  0.00  0.00    +0.000 A 
ATOM     27  C   UNL     1      -0.443  17.447  17.768  0.00  0.00    +0.000 A 
ATOM     28  C   UNL     1      -0.760  16.768  18.944  0.00  0.00    +0.000 A 
ATOM     29  C   UNL     1       0.244  16.436  19.856  0.00  0.00    +0.000 A 
ENDBRANCH  23  24
ENDBRANCH  21  23
ENDBRANCH   1  21
TORSDOF 3
ENDMDL
MODEL 7
REMARK VINA RESULT:      -7.3      1.424      1.995
REMARK  Name = 
REMARK  3 active torsions:
REMARK  status: ('A' for Active; 'I' for Inactive)
REMARK    1  A    between atoms: S_2  and  C_4
REMARK    2  A    between atoms: S_2  and  N_11
REMARK    3  A    between atoms: C_4  and  C_5
REMARK                            x       y       z     vdW  Elec       q    Type
REMARK                         _______ _______ _______ _____ _____    ______ ____
ROOT
ATOM      1  N   UNL     1       4.391  15.402  19.794  0.00  0.00    +0.000 NA
ATOM      2  C   UNL     1       5.366  15.214  18.705  0.00  0.00    +0.000 C 
ATOM      3  C   UNL     1       6.611  16.023  19.010  0.00  0.00    +0.000 C 
ATOM      4  C   UNL     1       7.334  15.313  20.138  0.00  0.00    +0.000 C 
ATOM      5  C   UNL     1       6.415  15.061  21.339  0.00  0.00    +0.000 C 
ATOM      6  C   UNL     1       4.956  15.514  21.170  0.00  0.00    +0.000 C 
ATOM      7  O   UNL     1       8.497  16.042  20.512  0.00  0.00    +0.000 OA
ATOM      8  O   UNL     1       9.539  15.535  19.610  0.00  0.00    +0.000 OA
ATOM      9  C   UNL     1       9.165  14.179  19.373  0.00  0.00    +0.000 C 
ATOM     10  O   UNL     1       7.773  14.047  19.647  0.00  0.00    +0.000 OA
ATOM     11  C   UNL     1       9.941  13.218  20.299  0.00  0.00    +0.000 C 
ATOM     12  C   UNL     1       9.412  11.785  20.076  0.00  0.00    +0.000 C 
ATOM     13  C   UNL     1       9.625  11.366  18.608  0.00  0.00    +0.000 C 
ATOM     14  C   UNL     1      11.133  11.399  18.308  0.00  0.00    +0.000 C 
ATOM     15  C   UNL     1      11.680  12.824  18.513  0.00  0.00    +0.000 C 
ATOM     16  C   UNL     1      11.445  13.256  19.970  0.00  0.00    +0.000 C 
ATOM     17  C   UNL     1      10.938  13.800  17.584  0.00  0.00    +0.000 C 
ATOM     18  C   UNL     1       9.428  13.779  17.899  0.00  0.00    +0.000 C 
ATOM     19  C   UNL     1       8.907  12.347  17.661  0.00  0.00    +0.000 C 
ENDROOT
BRANCH   1  21
ATOM     20  O   UNL     1       2.896  13.522  20.638  0.00  0.00    +0.000 OA
ATOM     21  S   UNL     1       2.897  14.572  19.635  0.00  0.00    +0.000 S 
ATOM     22  O   UNL     1       2.746  14.274  18.222  0.00  0.00    +0.000 OA
BRANCH  21  23
ATOM     23  C   UNL     1       1.727  15.852  20.122  0.00  0.00    +0.000 C 
BRANCH  23  24
ATOM     24  C   UNL     1       1.148  16.592  18.942  0.00  0.00    +0.000 A 
ATOM     25  C   UNL     1      -0.242  16.687  18.790  0.00  0.00    +0.000 A 
ATOM     26  C   UNL     1      -0.802  17.469  17.778  0.00  0.00    +0.000 A 
ATOM     27  C   UNL     1       0.022  18.165  16.899  0.00  0.00    +0.000 A 
ATOM     28  C   UNL     1       1.407  18.077  17.031  0.00  0.00    +0.000 A 
ATOM     29  C   UNL     1       1.967  17.298  18.047  0.00  0.00    +0.000 A 
ENDBRANCH  23  24
ENDBRANCH  21  23
ENDBRANCH   1  21
TORSDOF 3
ENDMDL
MODEL 8
REMARK VINA RESULT:      -7.3      2.939      4.575
REMARK  Name = 
REMARK  3 active torsions:
REMARK  status: ('A' for Active; 'I' for Inactive)
REMARK    1  A    between atoms: S_2  and  C_4
REMARK    2  A    between atoms: S_2  and  N_11
REMARK    3  A    between atoms: C_4  and  C_5
REMARK                            x       y       z     vdW  Elec       q    Type
REMARK                         _______ _______ _______ _____ _____    ______ ____
ROOT
ATOM      1  N   UNL     1       5.534  16.119  20.370  0.00  0.00    +0.000 NA
ATOM      2  C   UNL     1       5.991  15.081  19.429  0.00  0.00    +0.000 C 
ATOM      3  C   UNL     1       6.890  15.717  18.389  0.00  0.00    +0.000 C 
ATOM      4  C   UNL     1       8.201  16.042  19.079  0.00  0.00    +0.000 C 
ATOM      5  C   UNL     1       7.989  16.874  20.349  0.00  0.00    +0.000 C 
ATOM      6  C   UNL     1       6.527  17.179  20.711  0.00  0.00    +0.000 C 
ATOM      7  O   UNL     1       9.088  16.687  18.172  0.00  0.00    +0.000 OA
ATOM      8  O   UNL     1       9.785  15.576  17.509  0.00  0.00    +0.000 OA
ATOM      9  C   UNL     1       9.840  14.555  18.504  0.00  0.00    +0.000 C 
ATOM     10  O   UNL     1       8.813  14.810  19.459  0.00  0.00    +0.000 OA
ATOM     11  C   UNL     1      11.200  14.560  19.233  0.00  0.00    +0.000 C 
ATOM     12  C   UNL     1      11.154  13.515  20.368  0.00  0.00    +0.000 C 
ATOM     13  C   UNL     1      10.891  12.113  19.784  0.00  0.00    +0.000 C 
ATOM     14  C   UNL     1      12.040  11.764  18.822  0.00  0.00    +0.000 C 
ATOM     15  C   UNL     1      12.096  12.788  17.674  0.00  0.00    +0.000 C 
ATOM     16  C   UNL     1      12.332  14.193  18.255  0.00  0.00    +0.000 C 
ATOM     17  C   UNL     1      10.758  12.788  16.916  0.00  0.00    +0.000 C 
ATOM     18  C   UNL     1       9.609  13.156  17.877  0.00  0.00    +0.000 C 
ATOM     19  C   UNL     1       9.564  12.099  19.000  0.00  0.00    +0.000 C 
ENDROOT
BRANCH   1  21
ATOM     20  O   UNL     1       4.009  14.284  21.258  0.00  0.00    +0.000 OA
ATOM     21  S   UNL     1       4.487  15.604  21.629  0.00  0.00    +0.000 S 
ATOM     22  O   UNL     1       3.572  16.704  21.871  0.00  0.00    +0.000 OA
BRANCH  21  23
ATOM     23  C   UNL     1       5.638  15.447  23.005  0.00  0.00    +0.000 C 
BRANCH  23  24
ATOM     24  C   UNL     1       6.307  14.096  23.054  0.00  0.00    +0.000 A 
ATOM     25  C   UNL     1       7.537  13.900  22.410  0.00  0.00    +0.000 A 
ATOM     26  C   UNL     1       8.234  12.698  22.544  0.00  0.00    +0.000 A 
ATOM     27  C   UNL     1       7.710  11.671  23.322  0.00  0.00    +0.000 A 
ATOM     28  C   UNL     1       6.485  11.846  23.965  0.00  0.00    +0.000 A 
ATOM     29  C   UNL     1       5.789  13.050  23.835  0.00  0.00    +0.000 A 
ENDBRANCH  23  24
ENDBRANCH  21  23
ENDBRANCH   1  21
TORSDOF 3
ENDMDL
MODEL 9
REMARK VINA RESULT:      -7.2      8.518     12.626
REMARK  Name = 
REMARK  3 active torsions:
REMARK  status: ('A' for Active; 'I' for Inactive)
REMARK    1  A    between atoms: S_2  and  C_4
REMARK    2  A    between atoms: S_2  and  N_11
REMARK    3  A    between atoms: C_4  and  C_5
REMARK                            x       y       z     vdW  Elec       q    Type
REMARK                         _______ _______ _______ _____ _____    ______ ____
ROOT
ATOM      1  N   UNL     1      -0.335  12.266  20.869  0.00  0.00    +0.000 NA
ATOM      2  C   UNL     1      -1.542  11.686  21.485  0.00  0.00    +0.000 C 
ATOM      3  C   UNL     1      -1.725  12.276  22.868  0.00  0.00    +0.000 C 
ATOM      4  C   UNL     1      -2.189  13.708  22.678  0.00  0.00    +0.000 C 
ATOM      5  C   UNL     1      -1.251  14.496  21.757  0.00  0.00    +0.000 C 
ATOM      6  C   UNL     1      -0.073  13.705  21.167  0.00  0.00    +0.000 C 
ATOM      7  O   UNL     1      -2.340  14.347  23.941  0.00  0.00    +0.000 OA
ATOM      8  O   UNL     1      -3.716  14.021  24.339  0.00  0.00    +0.000 OA
ATOM      9  C   UNL     1      -4.424  13.927  23.105  0.00  0.00    +0.000 C 
ATOM     10  O   UNL     1      -3.478  13.674  22.069  0.00  0.00    +0.000 OA
ATOM     11  C   UNL     1      -5.162  15.243  22.784  0.00  0.00    +0.000 C 
ATOM     12  C   UNL     1      -5.810  15.117  21.388  0.00  0.00    +0.000 C 
ATOM     13  C   UNL     1      -6.816  13.950  21.376  0.00  0.00    +0.000 C 
ATOM     14  C   UNL     1      -7.911  14.242  22.416  0.00  0.00    +0.000 C 
ATOM     15  C   UNL     1      -7.288  14.360  23.820  0.00  0.00    +0.000 C 
ATOM     16  C   UNL     1      -6.263  15.507  23.828  0.00  0.00    +0.000 C 
ATOM     17  C   UNL     1      -6.563  13.050  24.173  0.00  0.00    +0.000 C 
ATOM     18  C   UNL     1      -5.452  12.768  23.140  0.00  0.00    +0.000 C 
ATOM     19  C   UNL     1      -6.111  12.632  21.752  0.00  0.00    +0.000 C 
ENDROOT
BRANCH   1  21
ATOM     20  O   UNL     1       1.403  11.171  19.366  0.00  0.00    +0.000 OA
ATOM     21  S   UNL     1       0.060  11.718  19.291  0.00  0.00    +0.000 S 
ATOM     22  O   UNL     1      -0.270  12.806  18.389  0.00  0.00    +0.000 OA
BRANCH  21  23
ATOM     23  C   UNL     1      -1.113  10.367  19.082  0.00  0.00    +0.000 C 
BRANCH  23  24
ATOM     24  C   UNL     1      -2.099  10.620  17.969  0.00  0.00    +0.000 A 
ATOM     25  C   UNL     1      -1.909  10.020  16.716  0.00  0.00    +0.000 A 
ATOM     26  C   UNL     1      -2.870  10.138  15.710  0.00  0.00    +0.000 A 
ATOM     27  C   UNL     1      -4.036  10.862  15.941  0.00  0.00    +0.000 A 
ATOM     28  C   UNL     1      -4.239  11.470  17.179  0.00  0.00    +0.000 A 
ATOM     29  C   UNL     1      -3.280  11.348  18.187  0.00  0.00    +0.000 A 
ENDBRANCH  23  24
ENDBRANCH  21  23
ENDBRANCH   1  21
TORSDOF 3
ENDMDL
