MODEL 1
REMARK VINA RESULT:      -7.5      0.000      0.000
REMARK  Name = 
REMARK  4 active torsions:
REMARK  status: ('A' for Active; 'I' for Inactive)
REMARK    1  A    between atoms: C_1  and  C_2
REMARK    2  A    between atoms: C_4  and  C_5
REMARK    3  A    between atoms: C_10  and  C_11
REMARK    4  A    between atoms: N_21  and  C_22
REMARK                            x       y       z     vdW  Elec       q    Type
REMARK                         _______ _______ _______ _____ _____    ______ ____
ROOT
ATOM      1  C   UNL     1       0.930   9.540  18.612  0.00  0.00    +0.000 C 
ATOM      2  C   UNL     1       0.252   9.848  19.972  0.00  0.00    +0.000 C 
ATOM      3  N   UNL     1      -0.618  11.021  19.786  0.00  0.00    +0.000 N 
ATOM      4  C   UNL     1      -0.712  12.055  20.692  0.00  0.00    +0.000 A 
ATOM      5  N   UNL     1      -1.867  12.343  21.226  0.00  0.00    +0.000 NA
ATOM      6  C   UNL     1      -1.950  13.385  22.122  0.00  0.00    +0.000 A 
ATOM      7  C   UNL     1      -0.880  14.081  22.524  0.00  0.00    +0.000 A 
ATOM      8  C   UNL     1       0.413  13.810  21.911  0.00  0.00    +0.000 A 
ATOM      9  O   UNL     1       1.380  14.498  22.227  0.00  0.00    +0.000 OA
ATOM     10  N   UNL     1       0.432  12.797  20.975  0.00  0.00    +0.000 N 
ATOM     11  C   UNL     1       1.648  12.661  20.190  0.00  0.00    +0.000 C 
ATOM     12  C   UNL     1      -1.668  10.757  18.796  0.00  0.00    +0.000 C 
ATOM     13  C   UNL     1      -0.969  10.416  17.466  0.00  0.00    +0.000 C 
ATOM     14  O   UNL     1      -0.075   9.292  17.601  0.00  0.00    +0.000 OA
ENDROOT
BRANCH   1  18
ATOM     15  C   UNL     1       4.636   6.755  16.620  0.00  0.00    +0.000 C 
ATOM     16  C   UNL     1       3.676   6.996  17.752  0.00  0.00    +0.000 A 
ATOM     17  C   UNL     1       2.790   8.083  17.673  0.00  0.00    +0.000 A 
ATOM     18  C   UNL     1       1.882   8.366  18.705  0.00  0.00    +0.000 A 
ATOM     19  C   UNL     1       1.856   7.526  19.827  0.00  0.00    +0.000 A 
ATOM     20  C   UNL     1       2.728   6.443  19.921  0.00  0.00    +0.000 A 
ATOM     21  C   UNL     1       3.634   6.178  18.890  0.00  0.00    +0.000 A 
ATOM     22 BR   UNL     1       4.793   4.687  19.100  0.00  0.00    +0.000 Br
ENDBRANCH   1  18
BRANCH   6  23
ATOM     23  C   UNL     1      -3.283  13.709  22.699  0.00  0.00    +0.000 A 
ATOM     24  C   UNL     1      -3.928  14.904  22.349  0.00  0.00    +0.000 A 
ATOM     25  C   UNL     1      -5.179  15.182  22.887  0.00  0.00    +0.000 A 
ATOM     26  N   UNL     1      -5.828  14.370  23.749  0.00  0.00    +0.000 NA
ATOM     27  C   UNL     1      -5.187  13.234  24.096  0.00  0.00    +0.000 A 
ATOM     28  C   UNL     1      -3.937  12.877  23.617  0.00  0.00    +0.000 A 
ATOM     29  F   UNL     1      -3.385  11.734  24.051  0.00  0.00    +0.000 F 
ENDBRANCH   6  23
TORSDOF 2
ENDMDL
MODEL 2
REMARK VINA RESULT:      -7.4      2.708      3.208
REMARK  Name = 
REMARK  4 active torsions:
REMARK  status: ('A' for Active; 'I' for Inactive)
REMARK    1  A    between atoms: C_1  and  C_2
REMARK    2  A    between atoms: C_4  and  C_5
REMARK    3  A    between atoms: C_10  and  C_11
REMARK    4  A    between atoms: N_21  and  C_22
REMARK                            x       y       z     vdW  Elec       q    Type
REMARK                         _______ _______ _______ _____ _____    ______ ____
ROOT
ATOM      1  C   UNL     1       0.676  10.596  19.726  0.00  0.00    +0.000 C 
ATOM      2  C   UNL     1      -0.874  10.535  19.712  0.00  0.00    +0.000 C 
ATOM      3  N   UNL     1      -1.380  11.916  19.780  0.00  0.00    +0.000 N 
ATOM      4  C   UNL     1      -2.444  12.303  20.565  0.00  0.00    +0.000 A 
ATOM      5  N   UNL     1      -3.492  12.847  20.010  0.00  0.00    +0.000 NA
ATOM      6  C   UNL     1      -4.545  13.239  20.805  0.00  0.00    +0.000 A 
ATOM      7  C   UNL     1      -4.573  13.027  22.126  0.00  0.00    +0.000 A 
ATOM      8  C   UNL     1      -3.398  12.463  22.777  0.00  0.00    +0.000 A 
ATOM      9  O   UNL     1      -3.396  12.336  23.999  0.00  0.00    +0.000 OA
ATOM     10  N   UNL     1      -2.346  12.143  21.945  0.00  0.00    +0.000 N 
ATOM     11  C   UNL     1      -1.090  11.795  22.589  0.00  0.00    +0.000 C 
ATOM     12  C   UNL     1      -0.938  12.706  18.626  0.00  0.00    +0.000 C 
ATOM     13  C   UNL     1       0.603  12.718  18.641  0.00  0.00    +0.000 C 
ATOM     14  O   UNL     1       1.151  11.385  18.611  0.00  0.00    +0.000 OA
ENDROOT
BRANCH   1  18
ATOM     15  C   UNL     1       3.436   7.100  17.358  0.00  0.00    +0.000 C 
ATOM     16  C   UNL     1       2.631   7.502  18.563  0.00  0.00    +0.000 A 
ATOM     17  C   UNL     1       2.049   8.781  18.596  0.00  0.00    +0.000 A 
ATOM     18  C   UNL     1       1.299   9.217  19.698  0.00  0.00    +0.000 A 
ATOM     19  C   UNL     1       1.118   8.341  20.778  0.00  0.00    +0.000 A 
ATOM     20  C   UNL     1       1.688   7.069  20.761  0.00  0.00    +0.000 A 
ATOM     21  C   UNL     1       2.441   6.650  19.660  0.00  0.00    +0.000 A 
ATOM     22 BR   UNL     1       3.189   4.904  19.719  0.00  0.00    +0.000 Br
ENDBRANCH   1  18
BRANCH   6  23
ATOM     23  C   UNL     1      -5.719  13.879  20.151  0.00  0.00    +0.000 A 
ATOM     24  C   UNL     1      -5.792  15.275  20.052  0.00  0.00    +0.000 A 
ATOM     25  C   UNL     1      -6.889  15.853  19.423  0.00  0.00    +0.000 A 
ATOM     26  N   UNL     1      -7.916  15.151  18.899  0.00  0.00    +0.000 NA
ATOM     27  C   UNL     1      -7.845  13.808  19.021  0.00  0.00    +0.000 A 
ATOM     28  C   UNL     1      -6.795  13.145  19.636  0.00  0.00    +0.000 A 
ATOM     29  F   UNL     1      -6.843  11.808  19.721  0.00  0.00    +0.000 F 
ENDBRANCH   6  23
TORSDOF 2
ENDMDL
MODEL 3
REMARK VINA RESULT:      -7.3      0.893      1.245
REMARK  Name = 
REMARK  4 active torsions:
REMARK  status: ('A' for Active; 'I' for Inactive)
REMARK    1  A    between atoms: C_1  and  C_2
REMARK    2  A    between atoms: C_4  and  C_5
REMARK    3  A    between atoms: C_10  and  C_11
REMARK    4  A    between atoms: N_21  and  C_22
REMARK                            x       y       z     vdW  Elec       q    Type
REMARK                         _______ _______ _______ _____ _____    ______ ____
ROOT
ATOM      1  C   UNL     1       1.091   9.369  18.551  0.00  0.00    +0.000 C 
ATOM      2  C   UNL     1       0.456   9.666  19.934  0.00  0.00    +0.000 C 
ATOM      3  N   UNL     1      -0.459  10.808  19.774  0.00  0.00    +0.000 N 
ATOM      4  C   UNL     1      -0.553  11.846  20.676  0.00  0.00    +0.000 A 
ATOM      5  N   UNL     1      -1.695  12.100  21.252  0.00  0.00    +0.000 NA
ATOM      6  C   UNL     1      -1.778  13.146  22.143  0.00  0.00    +0.000 A 
ATOM      7  C   UNL     1      -0.718  13.881  22.499  0.00  0.00    +0.000 A 
ATOM      8  C   UNL     1       0.559  13.647  21.838  0.00  0.00    +0.000 A 
ATOM      9  O   UNL     1       1.514  14.370  22.112  0.00  0.00    +0.000 OA
ATOM     10  N   UNL     1       0.576  12.628  20.909  0.00  0.00    +0.000 N 
ATOM     11  C   UNL     1       1.765  12.525  20.079  0.00  0.00    +0.000 C 
ATOM     12  C   UNL     1      -1.537  10.502  18.828  0.00  0.00    +0.000 C 
ATOM     13  C   UNL     1      -0.879  10.173  17.474  0.00  0.00    +0.000 C 
ATOM     14  O   UNL     1       0.056   9.080  17.582  0.00  0.00    +0.000 OA
ENDROOT
BRANCH   1  18
ATOM     15  C   UNL     1       4.921   6.795  16.513  0.00  0.00    +0.000 C 
ATOM     16  C   UNL     1       3.939   6.959  17.640  0.00  0.00    +0.000 A 
ATOM     17  C   UNL     1       3.015   8.016  17.588  0.00  0.00    +0.000 A 
ATOM     18  C   UNL     1       2.084   8.228  18.615  0.00  0.00    +0.000 A 
ATOM     19  C   UNL     1       2.075   7.348  19.707  0.00  0.00    +0.000 A 
ATOM     20  C   UNL     1       2.985   6.295  19.774  0.00  0.00    +0.000 A 
ATOM     21  C   UNL     1       3.913   6.099  18.748  0.00  0.00    +0.000 A 
ATOM     22 BR   UNL     1       5.123   4.645  18.920  0.00  0.00    +0.000 Br
ENDBRANCH   1  18
BRANCH   6  23
ATOM     23  C   UNL     1      -3.098  13.431  22.770  0.00  0.00    +0.000 A 
ATOM     24  C   UNL     1      -3.635  12.541  23.711  0.00  0.00    +0.000 A 
ATOM     25  C   UNL     1      -4.862  12.833  24.296  0.00  0.00    +0.000 A 
ATOM     26  N   UNL     1      -5.594  13.931  24.010  0.00  0.00    +0.000 NA
ATOM     27  C   UNL     1      -5.077  14.768  23.085  0.00  0.00    +0.000 A 
ATOM     28  C   UNL     1      -3.866  14.557  22.446  0.00  0.00    +0.000 A 
ATOM     29  F   UNL     1      -3.463  15.445  21.525  0.00  0.00    +0.000 F 
ENDBRANCH   6  23
TORSDOF 2
ENDMDL
MODEL 4
REMARK VINA RESULT:      -7.3      1.367      1.778
REMARK  Name = 
REMARK  4 active torsions:
REMARK  status: ('A' for Active; 'I' for Inactive)
REMARK    1  A    between atoms: C_1  and  C_2
REMARK    2  A    between atoms: C_4  and  C_5
REMARK    3  A    between atoms: C_10  and  C_11
REMARK    4  A    between atoms: N_21  and  C_22
REMARK                            x       y       z     vdW  Elec       q    Type
REMARK                         _______ _______ _______ _____ _____    ______ ____
ROOT
ATOM      1  C   UNL     1       0.043  10.524  19.246  0.00  0.00    +0.000 C 
ATOM      2  C   UNL     1      -0.978  10.534  20.413  0.00  0.00    +0.000 C 
ATOM      3  N   UNL     1      -1.784  11.761  20.297  0.00  0.00    +0.000 N 
ATOM      4  C   UNL     1      -2.130  12.553  21.370  0.00  0.00    +0.000 A 
ATOM      5  N   UNL     1      -3.389  12.765  21.636  0.00  0.00    +0.000 NA
ATOM      6  C   UNL     1      -3.723  13.567  22.704  0.00  0.00    +0.000 A 
ATOM      7  C   UNL     1      -2.810  14.092  23.529  0.00  0.00    +0.000 A 
ATOM      8  C   UNL     1      -1.396  13.907  23.229  0.00  0.00    +0.000 A 
ATOM      9  O   UNL     1      -0.559  14.450  23.946  0.00  0.00    +0.000 OA
ATOM     10  N   UNL     1      -1.114  13.147  22.114  0.00  0.00    +0.000 N 
ATOM     11  C   UNL     1       0.270  13.139  21.667  0.00  0.00    +0.000 C 
ATOM     12  C   UNL     1      -2.527  11.795  19.033  0.00  0.00    +0.000 C 
ATOM     13  C   UNL     1      -1.494  11.744  17.891  0.00  0.00    +0.000 C 
ATOM     14  O   UNL     1      -0.653  10.576  17.979  0.00  0.00    +0.000 OA
ENDROOT
BRANCH   1  18
ATOM     15  C   UNL     1       3.424   7.507  17.028  0.00  0.00    +0.000 C 
ATOM     16  C   UNL     1       2.589   7.831  18.236  0.00  0.00    +0.000 A 
ATOM     17  C   UNL     1       1.743   8.953  18.197  0.00  0.00    +0.000 A 
ATOM     18  C   UNL     1       0.951   9.314  19.297  0.00  0.00    +0.000 A 
ATOM     19  C   UNL     1       1.001   8.519  20.451  0.00  0.00    +0.000 A 
ATOM     20  C   UNL     1       1.835   7.404  20.507  0.00  0.00    +0.000 A 
ATOM     21  C   UNL     1       2.625   7.060  19.406  0.00  0.00    +0.000 A 
ATOM     22 BR   UNL     1       3.739   5.529  19.567  0.00  0.00    +0.000 Br
ENDBRANCH   1  18
BRANCH   6  23
ATOM     23  C   UNL     1      -5.167  13.813  22.973  0.00  0.00    +0.000 A 
ATOM     24  C   UNL     1      -5.852  14.810  22.264  0.00  0.00    +0.000 A 
ATOM     25  C   UNL     1      -7.203  15.015  22.519  0.00  0.00    +0.000 A 
ATOM     26  N   UNL     1      -7.916  14.313  23.426  0.00  0.00    +0.000 NA
ATOM     27  C   UNL     1      -7.239  13.371  24.117  0.00  0.00    +0.000 A 
ATOM     28  C   UNL     1      -5.893  13.102  23.936  0.00  0.00    +0.000 A 
ATOM     29  F   UNL     1      -5.318  12.159  24.699  0.00  0.00    +0.000 F 
ENDBRANCH   6  23
TORSDOF 2
ENDMDL
MODEL 5
REMARK VINA RESULT:      -7.3      0.307      1.293
REMARK  Name = 
REMARK  4 active torsions:
REMARK  status: ('A' for Active; 'I' for Inactive)
REMARK    1  A    between atoms: C_1  and  C_2
REMARK    2  A    between atoms: C_4  and  C_5
REMARK    3  A    between atoms: C_10  and  C_11
REMARK    4  A    between atoms: N_21  and  C_22
REMARK                            x       y       z     vdW  Elec       q    Type
REMARK                         _______ _______ _______ _____ _____    ______ ____
ROOT
ATOM      1  C   UNL     1       0.889   9.534  18.555  0.00  0.00    +0.000 C 
ATOM      2  C   UNL     1       0.220   9.836  19.921  0.00  0.00    +0.000 C 
ATOM      3  N   UNL     1      -0.636  11.021  19.751  0.00  0.00    +0.000 N 
ATOM      4  C   UNL     1      -0.713  12.047  20.669  0.00  0.00    +0.000 A 
ATOM      5  N   UNL     1      -1.862  12.343  21.210  0.00  0.00    +0.000 NA
ATOM      6  C   UNL     1      -1.928  13.376  22.118  0.00  0.00    +0.000 A 
ATOM      7  C   UNL     1      -0.849  14.055  22.524  0.00  0.00    +0.000 A 
ATOM      8  C   UNL     1       0.438  13.774  21.902  0.00  0.00    +0.000 A 
ATOM      9  O   UNL     1       1.415  14.447  22.222  0.00  0.00    +0.000 OA
ATOM     10  N   UNL     1       0.441  12.772  20.955  0.00  0.00    +0.000 N 
ATOM     11  C   UNL     1       1.653  12.629  20.164  0.00  0.00    +0.000 C 
ATOM     12  C   UNL     1      -1.693  10.782  18.763  0.00  0.00    +0.000 C 
ATOM     13  C   UNL     1      -1.003  10.446  17.427  0.00  0.00    +0.000 C 
ATOM     14  O   UNL     1      -0.124   9.310  17.546  0.00  0.00    +0.000 OA
ENDROOT
BRANCH   1  18
ATOM     15  C   UNL     1       2.350   5.262  20.807  0.00  0.00    +0.000 C 
ATOM     16  C   UNL     1       2.557   6.274  19.714  0.00  0.00    +0.000 A 
ATOM     17  C   UNL     1       1.691   7.378  19.637  0.00  0.00    +0.000 A 
ATOM     18  C   UNL     1       1.826   8.347  18.631  0.00  0.00    +0.000 A 
ATOM     19  C   UNL     1       2.863   8.208  17.698  0.00  0.00    +0.000 A 
ATOM     20  C   UNL     1       3.730   7.119  17.760  0.00  0.00    +0.000 A 
ATOM     21  C   UNL     1       3.580   6.156  18.762  0.00  0.00    +0.000 A 
ATOM     22 BR   UNL     1       4.799   4.699  18.772  0.00  0.00    +0.000 Br
ENDBRANCH   1  18
BRANCH   6  23
ATOM     23  C   UNL     1      -3.255  13.711  22.705  0.00  0.00    +0.000 A 
ATOM     24  C   UNL     1      -3.881  14.922  22.378  0.00  0.00    +0.000 A 
ATOM     25  C   UNL     1      -5.127  15.210  22.924  0.00  0.00    +0.000 A 
ATOM     26  N   UNL     1      -5.787  14.393  23.772  0.00  0.00    +0.000 NA
ATOM     27  C   UNL     1      -5.163  13.240  24.097  0.00  0.00    +0.000 A 
ATOM     28  C   UNL     1      -3.920  12.873  23.608  0.00  0.00    +0.000 A 
ATOM     29  F   UNL     1      -3.386  11.714  24.020  0.00  0.00    +0.000 F 
ENDBRANCH   6  23
TORSDOF 2
ENDMDL
MODEL 6
REMARK VINA RESULT:      -7.3      4.767      9.885
REMARK  Name = 
REMARK  4 active torsions:
REMARK  status: ('A' for Active; 'I' for Inactive)
REMARK    1  A    between atoms: C_1  and  C_2
REMARK    2  A    between atoms: C_4  and  C_5
REMARK    3  A    between atoms: C_10  and  C_11
REMARK    4  A    between atoms: N_21  and  C_22
REMARK                            x       y       z     vdW  Elec       q    Type
REMARK                         _______ _______ _______ _____ _____    ______ ____
ROOT
ATOM      1  C   UNL     1       0.139   9.821  19.773  0.00  0.00    +0.000 C 
ATOM      2  C   UNL     1       1.569   9.281  20.035  0.00  0.00    +0.000 C 
ATOM      3  N   UNL     1       1.841   8.226  19.046  0.00  0.00    +0.000 N 
ATOM      4  C   UNL     1       2.466   7.035  19.349  0.00  0.00    +0.000 A 
ATOM      5  N   UNL     1       3.573   6.714  18.740  0.00  0.00    +0.000 NA
ATOM      6  C   UNL     1       4.183   5.517  19.044  0.00  0.00    +0.000 A 
ATOM      7  C   UNL     1       3.723   4.690  19.990  0.00  0.00    +0.000 A 
ATOM      8  C   UNL     1       2.464   5.003  20.653  0.00  0.00    +0.000 A 
ATOM      9  O   UNL     1       2.006   4.208  21.469  0.00  0.00    +0.000 OA
ATOM     10  N   UNL     1       1.862   6.183  20.270  0.00  0.00    +0.000 N 
ATOM     11  C   UNL     1       0.506   6.404  20.745  0.00  0.00    +0.000 C 
ATOM     12  C   UNL     1       1.789   8.749  17.677  0.00  0.00    +0.000 C 
ATOM     13  C   UNL     1       0.373   9.314  17.455  0.00  0.00    +0.000 C 
ATOM     14  O   UNL     1       0.042  10.330  18.423  0.00  0.00    +0.000 OA
ENDROOT
BRANCH   1  18
ATOM     15  C   UNL     1      -0.513  14.691  20.918  0.00  0.00    +0.000 C 
ATOM     16  C   UNL     1      -0.572  13.251  21.348  0.00  0.00    +0.000 A 
ATOM     17  C   UNL     1      -0.208  12.252  20.430  0.00  0.00    +0.000 A 
ATOM     18  C   UNL     1      -0.256  10.891  20.769  0.00  0.00    +0.000 A 
ATOM     19  C   UNL     1      -0.663  10.534  22.062  0.00  0.00    +0.000 A 
ATOM     20  C   UNL     1      -1.028  11.512  22.984  0.00  0.00    +0.000 A 
ATOM     21  C   UNL     1      -0.984  12.864  22.632  0.00  0.00    +0.000 A 
ATOM     22 BR   UNL     1      -1.504  14.134  23.945  0.00  0.00    +0.000 Br
ENDBRANCH   1  18
BRANCH   6  23
ATOM     23  C   UNL     1       5.433   5.162  18.318  0.00  0.00    +0.000 A 
ATOM     24  C   UNL     1       6.680   5.374  18.924  0.00  0.00    +0.000 A 
ATOM     25  C   UNL     1       7.836   5.022  18.236  0.00  0.00    +0.000 A 
ATOM     26  N   UNL     1       7.844   4.487  16.996  0.00  0.00    +0.000 NA
ATOM     27  C   UNL     1       6.638   4.309  16.415  0.00  0.00    +0.000 A 
ATOM     28  C   UNL     1       5.436   4.636  17.020  0.00  0.00    +0.000 A 
ATOM     29  F   UNL     1       4.299   4.438  16.337  0.00  0.00    +0.000 F 
ENDBRANCH   6  23
TORSDOF 2
ENDMDL
MODEL 7
REMARK VINA RESULT:      -7.3      4.729      9.849
REMARK  Name = 
REMARK  4 active torsions:
REMARK  status: ('A' for Active; 'I' for Inactive)
REMARK    1  A    between atoms: C_1  and  C_2
REMARK    2  A    between atoms: C_4  and  C_5
REMARK    3  A    between atoms: C_10  and  C_11
REMARK    4  A    between atoms: N_21  and  C_22
REMARK                            x       y       z     vdW  Elec       q    Type
REMARK                         _______ _______ _______ _____ _____    ______ ____
ROOT
ATOM      1  C   UNL     1       0.183   9.869  19.780  0.00  0.00    +0.000 C 
ATOM      2  C   UNL     1       1.623   9.330  19.982  0.00  0.00    +0.000 C 
ATOM      3  N   UNL     1       1.843   8.253  19.003  0.00  0.00    +0.000 N 
ATOM      4  C   UNL     1       2.478   7.067  19.300  0.00  0.00    +0.000 A 
ATOM      5  N   UNL     1       3.553   6.729  18.644  0.00  0.00    +0.000 NA
ATOM      6  C   UNL     1       4.174   5.536  18.943  0.00  0.00    +0.000 A 
ATOM      7  C   UNL     1       3.759   4.731  19.927  0.00  0.00    +0.000 A 
ATOM      8  C   UNL     1       2.535   5.063  20.645  0.00  0.00    +0.000 A 
ATOM      9  O   UNL     1       2.115   4.286  21.499  0.00  0.00    +0.000 OA
ATOM     10  N   UNL     1       1.918   6.237  20.268  0.00  0.00    +0.000 N 
ATOM     11  C   UNL     1       0.588   6.473  20.805  0.00  0.00    +0.000 C 
ATOM     12  C   UNL     1       1.724   8.748  17.627  0.00  0.00    +0.000 C 
ATOM     13  C   UNL     1       0.300   9.313  17.464  0.00  0.00    +0.000 C 
ATOM     14  O   UNL     1       0.020  10.351  18.425  0.00  0.00    +0.000 OA
ENDROOT
BRANCH   1  18
ATOM     15  C   UNL     1       0.161  14.748  21.063  0.00  0.00    +0.000 C 
ATOM     16  C   UNL     1      -0.173  13.326  21.417  0.00  0.00    +0.000 A 
ATOM     17  C   UNL     1       0.141  12.306  20.502  0.00  0.00    +0.000 A 
ATOM     18  C   UNL     1      -0.159  10.962  20.770  0.00  0.00    +0.000 A 
ATOM     19  C   UNL     1      -0.772  10.640  21.989  0.00  0.00    +0.000 A 
ATOM     20  C   UNL     1      -1.090  11.639  22.907  0.00  0.00    +0.000 A 
ATOM     21  C   UNL     1      -0.794  12.975  22.625  0.00  0.00    +0.000 A 
ATOM     22 BR   UNL     1      -1.267  14.276  23.926  0.00  0.00    +0.000 Br
ENDBRANCH   1  18
BRANCH   6  23
ATOM     23  C   UNL     1       5.386   5.161  18.164  0.00  0.00    +0.000 A 
ATOM     24  C   UNL     1       5.257   4.691  16.850  0.00  0.00    +0.000 A 
ATOM     25  C   UNL     1       6.402   4.359  16.134  0.00  0.00    +0.000 A 
ATOM     26  N   UNL     1       7.656   4.453  16.627  0.00  0.00    +0.000 NA
ATOM     27  C   UNL     1       7.764   4.886  17.902  0.00  0.00    +0.000 A 
ATOM     28  C   UNL     1       6.681   5.231  18.693  0.00  0.00    +0.000 A 
ATOM     29  F   UNL     1       6.907   5.626  19.955  0.00  0.00    +0.000 F 
ENDBRANCH   6  23
TORSDOF 2
ENDMDL
MODEL 8
REMARK VINA RESULT:      -7.2      2.726      3.291
REMARK  Name = 
REMARK  4 active torsions:
REMARK  status: ('A' for Active; 'I' for Inactive)
REMARK    1  A    between atoms: C_1  and  C_2
REMARK    2  A    between atoms: C_4  and  C_5
REMARK    3  A    between atoms: C_10  and  C_11
REMARK    4  A    between atoms: N_21  and  C_22
REMARK                            x       y       z     vdW  Elec       q    Type
REMARK                         _______ _______ _______ _____ _____    ______ ____
ROOT
ATOM      1  C   UNL     1       0.688  10.549  19.722  0.00  0.00    +0.000 C 
ATOM      2  C   UNL     1      -0.861  10.507  19.707  0.00  0.00    +0.000 C 
ATOM      3  N   UNL     1      -1.350  11.894  19.773  0.00  0.00    +0.000 N 
ATOM      4  C   UNL     1      -2.411  12.296  20.556  0.00  0.00    +0.000 A 
ATOM      5  N   UNL     1      -3.451  12.852  20.000  0.00  0.00    +0.000 NA
ATOM      6  C   UNL     1      -4.499  13.258  20.794  0.00  0.00    +0.000 A 
ATOM      7  C   UNL     1      -4.530  13.049  22.115  0.00  0.00    +0.000 A 
ATOM      8  C   UNL     1      -3.363  12.471  22.768  0.00  0.00    +0.000 A 
ATOM      9  O   UNL     1      -3.364  12.346  23.990  0.00  0.00    +0.000 OA
ATOM     10  N   UNL     1      -2.315  12.137  21.936  0.00  0.00    +0.000 N 
ATOM     11  C   UNL     1      -1.064  11.774  22.582  0.00  0.00    +0.000 C 
ATOM     12  C   UNL     1      -0.898  12.676  18.617  0.00  0.00    +0.000 C 
ATOM     13  C   UNL     1       0.642  12.670  18.633  0.00  0.00    +0.000 C 
ATOM     14  O   UNL     1       1.174  11.330  18.605  0.00  0.00    +0.000 OA
ENDROOT
BRANCH   1  18
ATOM     15  C   UNL     1       3.433   7.026  17.375  0.00  0.00    +0.000 C 
ATOM     16  C   UNL     1       2.618   7.434  18.571  0.00  0.00    +0.000 A 
ATOM     17  C   UNL     1       2.053   8.720  18.602  0.00  0.00    +0.000 A 
ATOM     18  C   UNL     1       1.294   9.162  19.697  0.00  0.00    +0.000 A 
ATOM     19  C   UNL     1       1.090   8.285  20.771  0.00  0.00    +0.000 A 
ATOM     20  C   UNL     1       1.643   7.006  20.756  0.00  0.00    +0.000 A 
ATOM     21  C   UNL     1       2.404   6.581  19.663  0.00  0.00    +0.000 A 
ATOM     22 BR   UNL     1       3.129   4.826  19.725  0.00  0.00    +0.000 Br
ENDBRANCH   1  18
BRANCH   6  23
ATOM     23  C   UNL     1      -5.665  13.911  20.138  0.00  0.00    +0.000 A 
ATOM     24  C   UNL     1      -6.685  13.128  19.579  0.00  0.00    +0.000 A 
ATOM     25  C   UNL     1      -7.773  13.757  18.983  0.00  0.00    +0.000 A 
ATOM     26  N   UNL     1      -7.916  15.097  18.895  0.00  0.00    +0.000 NA
ATOM     27  C   UNL     1      -6.916  15.839  19.418  0.00  0.00    +0.000 A 
ATOM     28  C   UNL     1      -5.792  15.301  20.023  0.00  0.00    +0.000 A 
ATOM     29  F   UNL     1      -4.850  16.136  20.485  0.00  0.00    +0.000 F 
ENDBRANCH   6  23
TORSDOF 2
ENDMDL
MODEL 9
REMARK VINA RESULT:      -7.2      2.573      3.355
REMARK  Name = 
REMARK  4 active torsions:
REMARK  status: ('A' for Active; 'I' for Inactive)
REMARK    1  A    between atoms: C_1  and  C_2
REMARK    2  A    between atoms: C_4  and  C_5
REMARK    3  A    between atoms: C_10  and  C_11
REMARK    4  A    between atoms: N_21  and  C_22
REMARK                            x       y       z     vdW  Elec       q    Type
REMARK                         _______ _______ _______ _____ _____    ______ ____
ROOT
ATOM      1  C   UNL     1       0.905  10.854  19.444  0.00  0.00    +0.000 C 
ATOM      2  C   UNL     1      -0.644  10.861  19.380  0.00  0.00    +0.000 C 
ATOM      3  N   UNL     1      -1.103  12.218  19.719  0.00  0.00    +0.000 N 
ATOM      4  C   UNL     1      -2.179  12.480  20.541  0.00  0.00    +0.000 A 
ATOM      5  N   UNL     1      -3.187  13.168  20.085  0.00  0.00    +0.000 NA
ATOM      6  C   UNL     1      -4.251  13.431  20.918  0.00  0.00    +0.000 A 
ATOM      7  C   UNL     1      -4.329  12.954  22.166  0.00  0.00    +0.000 A 
ATOM      8  C   UNL     1      -3.197  12.220  22.715  0.00  0.00    +0.000 A 
ATOM      9  O   UNL     1      -3.239  11.845  23.884  0.00  0.00    +0.000 OA
ATOM     10  N   UNL     1      -2.131  12.035  21.860  0.00  0.00    +0.000 N 
ATOM     11  C   UNL     1      -0.909  11.510  22.449  0.00  0.00    +0.000 C 
ATOM     12  C   UNL     1      -0.597  13.209  18.764  0.00  0.00    +0.000 C 
ATOM     13  C   UNL     1       0.942  13.155  18.818  0.00  0.00    +0.000 C 
ATOM     14  O   UNL     1       1.443  11.835  18.527  0.00  0.00    +0.000 OA
ENDROOT
BRANCH   1  18
ATOM     15  C   UNL     1       1.789   6.090  20.850  0.00  0.00    +0.000 C 
ATOM     16  C   UNL     1       1.925   7.170  19.812  0.00  0.00    +0.000 A 
ATOM     17  C   UNL     1       1.394   8.443  20.081  0.00  0.00    +0.000 A 
ATOM     18  C   UNL     1       1.479   9.485  19.147  0.00  0.00    +0.000 A 
ATOM     19  C   UNL     1       2.126   9.244  17.926  0.00  0.00    +0.000 A 
ATOM     20  C   UNL     1       2.658   7.987  17.644  0.00  0.00    +0.000 A 
ATOM     21  C   UNL     1       2.559   6.954  18.580  0.00  0.00    +0.000 A 
ATOM     22 BR   UNL     1       3.304   5.269  18.115  0.00  0.00    +0.000 Br
ENDBRANCH   1  18
BRANCH   6  23
ATOM     23  C   UNL     1      -5.380  14.240  20.382  0.00  0.00    +0.000 A 
ATOM     24  C   UNL     1      -5.326  15.640  20.431  0.00  0.00    +0.000 A 
ATOM     25  C   UNL     1      -6.384  16.378  19.911  0.00  0.00    +0.000 A 
ATOM     26  N   UNL     1      -7.487  15.830  19.358  0.00  0.00    +0.000 NA
ATOM     27  C   UNL     1      -7.538  14.481  19.338  0.00  0.00    +0.000 A 
ATOM     28  C   UNL     1      -6.536  13.665  19.838  0.00  0.00    +0.000 A 
ATOM     29  F   UNL     1      -6.706  12.336  19.786  0.00  0.00    +0.000 F 
ENDBRANCH   6  23
TORSDOF 2
ENDMDL
