MODEL 1
REMARK VINA RESULT:      -7.9      0.000      0.000
REMARK  Name = 
REMARK  8 active torsions:
REMARK  status: ('A' for Active; 'I' for Inactive)
REMARK    1  A    between atoms: C_1  and  O_2
REMARK    2  A    between atoms: O_2  and  C_3
REMARK    3  A    between atoms: C_8  and  N_9
REMARK    4  A    between atoms: C_15  and  C_16
REMARK    5  A    between atoms: C_19  and  O_20
REMARK    6  A    between atoms: O_20  and  C_21
REMARK    7  A    between atoms: C_22  and  O_23
REMARK    8  A    between atoms: O_23  and  C_24
REMARK                            x       y       z     vdW  Elec       q    Type
REMARK                         _______ _______ _______ _____ _____    ______ ____
ROOT
ATOM      1  N   UNL     1       0.171   9.271  20.831  0.00  0.00    +0.000 N 
ATOM      2  C   UNL     1       1.094   8.488  20.141  0.00  0.00    +0.000 C 
ATOM      3  O   UNL     1       1.584   8.810  19.064  0.00  0.00    +0.000 OA
ATOM      4  N   UNL     1       1.365   7.301  20.793  0.00  0.00    +0.000 N 
ATOM      5  C   UNL     1       2.230   6.386  20.241  0.00  0.00    +0.000 A 
ATOM      6  N   UNL     1       3.131   6.549  19.304  0.00  0.00    +0.000 NA
ATOM      7  C   UNL     1       3.711   5.331  18.979  0.00  0.00    +0.000 A 
ATOM      8  C   UNL     1       3.268   4.266  19.742  0.00  0.00    +0.000 A 
ATOM      9  S   UNL     1       2.093   4.805  20.876  0.00  0.00    +0.000 S 
ATOM     10  H   UNL     1       0.146   9.204  21.838  0.00  0.00    +0.000 HD
ATOM     11  H   UNL     1       0.717   6.961  21.482  0.00  0.00    +0.000 HD
ENDROOT
BRANCH   1  17
ATOM     12  C   UNL     1      -0.804  11.509  21.108  0.00  0.00    +0.000 A 
ATOM     13  C   UNL     1      -1.517  12.596  20.577  0.00  0.00    +0.000 A 
ATOM     14  C   UNL     1      -1.870  12.628  19.229  0.00  0.00    +0.000 A 
ATOM     15  C   UNL     1      -1.545  11.559  18.408  0.00  0.00    +0.000 A 
ATOM     16  C   UNL     1      -0.885  10.450  18.938  0.00  0.00    +0.000 A 
ATOM     17  C   UNL     1      -0.496  10.406  20.285  0.00  0.00    +0.000 A 
BRANCH  12  19
ATOM     18  C   UNL     1      -1.414  11.630  23.389  0.00  0.00    +0.000 C 
ATOM     19  O   UNL     1      -0.373  11.468  22.419  0.00  0.00    +0.000 OA
ENDBRANCH  12  19
ENDBRANCH   1  17
BRANCH   7  20
ATOM     20  C   UNL     1       4.715   5.221  17.923  0.00  0.00    +0.000 A 
ATOM     21  C   UNL     1       4.662   4.163  17.014  0.00  0.00    +0.000 A 
ATOM     22  C   UNL     1       5.617   4.060  16.002  0.00  0.00    +0.000 A 
ATOM     23  C   UNL     1       6.662   4.990  15.880  0.00  0.00    +0.000 A 
ATOM     24  C   UNL     1       6.741   6.052  16.803  0.00  0.00    +0.000 A 
ATOM     25  C   UNL     1       5.760   6.155  17.807  0.00  0.00    +0.000 A 
BRANCH  23  26
ATOM     26  O   UNL     1       7.481   4.713  14.819  0.00  0.00    +0.000 OA
ATOM     27  C   UNL     1       6.905   4.372  13.565  0.00  0.00    +0.000 C 
ENDBRANCH  23  26
BRANCH  24  28
ATOM     28  O   UNL     1       7.781   6.935  16.684  0.00  0.00    +0.000 OA
ATOM     29  C   UNL     1       7.819   8.055  17.557  0.00  0.00    +0.000 C 
ENDBRANCH  24  28
ENDBRANCH   7  20
TORSDOF 5
ENDMDL
MODEL 2
REMARK VINA RESULT:      -7.8      0.969      1.149
REMARK  Name = 
REMARK  8 active torsions:
REMARK  status: ('A' for Active; 'I' for Inactive)
REMARK    1  A    between atoms: C_1  and  O_2
REMARK    2  A    between atoms: O_2  and  C_3
REMARK    3  A    between atoms: C_8  and  N_9
REMARK    4  A    between atoms: C_15  and  C_16
REMARK    5  A    between atoms: C_19  and  O_20
REMARK    6  A    between atoms: O_20  and  C_21
REMARK    7  A    between atoms: C_22  and  O_23
REMARK    8  A    between atoms: O_23  and  C_24
REMARK                            x       y       z     vdW  Elec       q    Type
REMARK                         _______ _______ _______ _____ _____    ______ ____
ROOT
ATOM      1  N   UNL     1       0.252   9.725  20.708  0.00  0.00    +0.000 N 
ATOM      2  C   UNL     1       1.134   8.884  20.032  0.00  0.00    +0.000 C 
ATOM      3  O   UNL     1       1.674   9.181  18.972  0.00  0.00    +0.000 OA
ATOM      4  N   UNL     1       1.300   7.674  20.675  0.00  0.00    +0.000 N 
ATOM      5  C   UNL     1       2.112   6.703  20.134  0.00  0.00    +0.000 A 
ATOM      6  N   UNL     1       3.046   6.810  19.222  0.00  0.00    +0.000 NA
ATOM      7  C   UNL     1       3.545   5.557  18.897  0.00  0.00    +0.000 A 
ATOM      8  C   UNL     1       3.005   4.519  19.635  0.00  0.00    +0.000 A 
ATOM      9  S   UNL     1       1.843   5.131  20.746  0.00  0.00    +0.000 S 
ATOM     10  H   UNL     1       0.197   9.649  21.713  0.00  0.00    +0.000 HD
ATOM     11  H   UNL     1       0.612   7.374  21.344  0.00  0.00    +0.000 HD
ENDROOT
BRANCH   1  17
ATOM     12  C   UNL     1       0.232  12.171  20.479  0.00  0.00    +0.000 A 
ATOM     13  C   UNL     1      -0.373  13.339  19.986  0.00  0.00    +0.000 A 
ATOM     14  C   UNL     1      -1.471  13.266  19.131  0.00  0.00    +0.000 A 
ATOM     15  C   UNL     1      -1.997  12.029  18.790  0.00  0.00    +0.000 A 
ATOM     16  C   UNL     1      -1.437  10.866  19.319  0.00  0.00    +0.000 A 
ATOM     17  C   UNL     1      -0.316  10.912  20.160  0.00  0.00    +0.000 A 
BRANCH  12  19
ATOM     18  C   UNL     1       2.369  13.118  20.837  0.00  0.00    +0.000 C 
ATOM     19  O   UNL     1       1.363  12.194  21.270  0.00  0.00    +0.000 OA
ENDBRANCH  12  19
ENDBRANCH   1  17
BRANCH   7  20
ATOM     20  C   UNL     1       4.565   5.386  17.865  0.00  0.00    +0.000 A 
ATOM     21  C   UNL     1       4.495   4.305  16.984  0.00  0.00    +0.000 A 
ATOM     22  C   UNL     1       5.466   4.143  15.995  0.00  0.00    +0.000 A 
ATOM     23  C   UNL     1       6.543   5.035  15.870  0.00  0.00    +0.000 A 
ATOM     24  C   UNL     1       6.640   6.119  16.767  0.00  0.00    +0.000 A 
ATOM     25  C   UNL     1       5.643   6.281  17.746  0.00  0.00    +0.000 A 
BRANCH  23  26
ATOM     26  O   UNL     1       7.374   4.702  14.835  0.00  0.00    +0.000 OA
ATOM     27  C   UNL     1       6.814   4.221  13.621  0.00  0.00    +0.000 C 
ENDBRANCH  23  26
BRANCH  24  28
ATOM     28  O   UNL     1       7.711   6.963  16.646  0.00  0.00    +0.000 OA
ATOM     29  C   UNL     1       7.792   8.080  17.520  0.00  0.00    +0.000 C 
ENDBRANCH  24  28
ENDBRANCH   7  20
TORSDOF 5
ENDMDL
MODEL 3
REMARK VINA RESULT:      -7.8      1.094      1.740
REMARK  Name = 
REMARK  8 active torsions:
REMARK  status: ('A' for Active; 'I' for Inactive)
REMARK    1  A    between atoms: C_1  and  O_2
REMARK    2  A    between atoms: O_2  and  C_3
REMARK    3  A    between atoms: C_8  and  N_9
REMARK    4  A    between atoms: C_15  and  C_16
REMARK    5  A    between atoms: C_19  and  O_20
REMARK    6  A    between atoms: O_20  and  C_21
REMARK    7  A    between atoms: C_22  and  O_23
REMARK    8  A    between atoms: O_23  and  C_24
REMARK                            x       y       z     vdW  Elec       q    Type
REMARK                         _______ _______ _______ _____ _____    ______ ____
ROOT
ATOM      1  N   UNL     1       0.389   9.640  20.940  0.00  0.00    +0.000 N 
ATOM      2  C   UNL     1       1.237   8.818  20.201  0.00  0.00    +0.000 C 
ATOM      3  O   UNL     1       1.828   9.189  19.192  0.00  0.00    +0.000 OA
ATOM      4  N   UNL     1       1.306   7.539  20.715  0.00  0.00    +0.000 N 
ATOM      5  C   UNL     1       2.070   6.579  20.093  0.00  0.00    +0.000 A 
ATOM      6  N   UNL     1       3.038   6.719  19.221  0.00  0.00    +0.000 NA
ATOM      7  C   UNL     1       3.466   5.476  18.776  0.00  0.00    +0.000 A 
ATOM      8  C   UNL     1       2.838   4.405  19.385  0.00  0.00    +0.000 A 
ATOM      9  S   UNL     1       1.683   4.972  20.526  0.00  0.00    +0.000 S 
ATOM     10  H   UNL     1       0.297   9.463  21.930  0.00  0.00    +0.000 HD
ATOM     11  H   UNL     1       0.578   7.217  21.330  0.00  0.00    +0.000 HD
ENDROOT
BRANCH   1  17
ATOM     12  C   UNL     1      -1.003  11.001  19.443  0.00  0.00    +0.000 A 
ATOM     13  C   UNL     1      -1.416  12.263  18.982  0.00  0.00    +0.000 A 
ATOM     14  C   UNL     1      -0.978  13.429  19.607  0.00  0.00    +0.000 A 
ATOM     15  C   UNL     1      -0.097  13.347  20.676  0.00  0.00    +0.000 A 
ATOM     16  C   UNL     1       0.362  12.101  21.105  0.00  0.00    +0.000 A 
ATOM     17  C   UNL     1      -0.085  10.913  20.508  0.00  0.00    +0.000 A 
BRANCH  12  19
ATOM     18  C   UNL     1      -2.145   9.973  17.646  0.00  0.00    +0.000 C 
ATOM     19  O   UNL     1      -1.467   9.821  18.899  0.00  0.00    +0.000 OA
ENDBRANCH  12  19
ENDBRANCH   1  17
BRANCH   7  20
ATOM     20  C   UNL     1       4.505   5.347  17.757  0.00  0.00    +0.000 A 
ATOM     21  C   UNL     1       4.458   4.296  16.840  0.00  0.00    +0.000 A 
ATOM     22  C   UNL     1       5.448   4.174  15.863  0.00  0.00    +0.000 A 
ATOM     23  C   UNL     1       6.521   5.077  15.787  0.00  0.00    +0.000 A 
ATOM     24  C   UNL     1       6.593   6.131  16.721  0.00  0.00    +0.000 A 
ATOM     25  C   UNL     1       5.578   6.253  17.687  0.00  0.00    +0.000 A 
BRANCH  23  26
ATOM     26  O   UNL     1       7.372   4.785  14.756  0.00  0.00    +0.000 OA
ATOM     27  C   UNL     1       6.843   4.262  13.545  0.00  0.00    +0.000 C 
ENDBRANCH  23  26
BRANCH  24  28
ATOM     28  O   UNL     1       7.660   6.986  16.647  0.00  0.00    +0.000 OA
ATOM     29  C   UNL     1       7.770   8.014  17.622  0.00  0.00    +0.000 C 
ENDBRANCH  24  28
ENDBRANCH   7  20
TORSDOF 5
ENDMDL
MODEL 4
REMARK VINA RESULT:      -7.2      3.191      9.482
REMARK  Name = 
REMARK  8 active torsions:
REMARK  status: ('A' for Active; 'I' for Inactive)
REMARK    1  A    between atoms: C_1  and  O_2
REMARK    2  A    between atoms: O_2  and  C_3
REMARK    3  A    between atoms: C_8  and  N_9
REMARK    4  A    between atoms: C_15  and  C_16
REMARK    5  A    between atoms: C_19  and  O_20
REMARK    6  A    between atoms: O_20  and  C_21
REMARK    7  A    between atoms: C_22  and  O_23
REMARK    8  A    between atoms: O_23  and  C_24
REMARK                            x       y       z     vdW  Elec       q    Type
REMARK                         _______ _______ _______ _____ _____    ______ ____
ROOT
ATOM      1  N   UNL     1       3.137   7.054  18.938  0.00  0.00    +0.000 N 
ATOM      2  C   UNL     1       2.024   7.878  18.789  0.00  0.00    +0.000 C 
ATOM      3  O   UNL     1       1.341   7.916  17.771  0.00  0.00    +0.000 OA
ATOM      4  N   UNL     1       1.802   8.665  19.902  0.00  0.00    +0.000 N 
ATOM      5  C   UNL     1       0.763   9.566  19.921  0.00  0.00    +0.000 A 
ATOM      6  N   UNL     1      -0.302   9.629  19.161  0.00  0.00    +0.000 NA
ATOM      7  C   UNL     1      -1.039  10.765  19.461  0.00  0.00    +0.000 A 
ATOM      8  C   UNL     1      -0.532  11.515  20.506  0.00  0.00    +0.000 A 
ATOM      9  S   UNL     1       0.902  10.784  21.112  0.00  0.00    +0.000 S 
ATOM     10  H   UNL     1       3.373   6.734  19.866  0.00  0.00    +0.000 HD
ATOM     11  H   UNL     1       2.553   8.817  20.553  0.00  0.00    +0.000 HD
ENDROOT
BRANCH   1  17
ATOM     12  C   UNL     1       3.584   4.945  17.759  0.00  0.00    +0.000 A 
ATOM     13  C   UNL     1       4.255   4.239  16.747  0.00  0.00    +0.000 A 
ATOM     14  C   UNL     1       5.048   4.908  15.816  0.00  0.00    +0.000 A 
ATOM     15  C   UNL     1       5.204   6.283  15.907  0.00  0.00    +0.000 A 
ATOM     16  C   UNL     1       4.585   6.986  16.942  0.00  0.00    +0.000 A 
ATOM     17  C   UNL     1       3.763   6.339  17.875  0.00  0.00    +0.000 A 
BRANCH  12  19
ATOM     18  C   UNL     1       1.481   3.920  18.101  0.00  0.00    +0.000 C 
ATOM     19  O   UNL     1       2.734   4.333  18.658  0.00  0.00    +0.000 OA
ENDBRANCH  12  19
ENDBRANCH   1  17
BRANCH   7  20
ATOM     20  C   UNL     1      -2.254  11.104  18.722  0.00  0.00    +0.000 A 
ATOM     21  C   UNL     1      -3.223  11.921  19.306  0.00  0.00    +0.000 A 
ATOM     22  C   UNL     1      -4.381  12.249  18.599  0.00  0.00    +0.000 A 
ATOM     23  C   UNL     1      -4.616  11.757  17.305  0.00  0.00    +0.000 A 
ATOM     24  C   UNL     1      -3.657  10.913  16.711  0.00  0.00    +0.000 A 
ATOM     25  C   UNL     1      -2.485  10.606  17.427  0.00  0.00    +0.000 A 
BRANCH  23  26
ATOM     26  O   UNL     1      -5.802  12.204  16.788  0.00  0.00    +0.000 OA
ATOM     27  C   UNL     1      -6.936  12.310  17.639  0.00  0.00    +0.000 C 
ENDBRANCH  23  26
BRANCH  24  28
ATOM     28  O   UNL     1      -3.916  10.421  15.459  0.00  0.00    +0.000 OA
ATOM     29  C   UNL     1      -2.816  10.074  14.629  0.00  0.00    +0.000 C 
ENDBRANCH  24  28
ENDBRANCH   7  20
TORSDOF 5
ENDMDL
MODEL 5
REMARK VINA RESULT:      -7.1      1.743      8.981
REMARK  Name = 
REMARK  8 active torsions:
REMARK  status: ('A' for Active; 'I' for Inactive)
REMARK    1  A    between atoms: C_1  and  O_2
REMARK    2  A    between atoms: O_2  and  C_3
REMARK    3  A    between atoms: C_8  and  N_9
REMARK    4  A    between atoms: C_15  and  C_16
REMARK    5  A    between atoms: C_19  and  O_20
REMARK    6  A    between atoms: O_20  and  C_21
REMARK    7  A    between atoms: C_22  and  O_23
REMARK    8  A    between atoms: O_23  and  C_24
REMARK                            x       y       z     vdW  Elec       q    Type
REMARK                         _______ _______ _______ _____ _____    ______ ____
ROOT
ATOM      1  N   UNL     1       4.886   3.854  16.076  0.00  0.00    +0.000 N 
ATOM      2  C   UNL     1       4.256   4.806  16.875  0.00  0.00    +0.000 C 
ATOM      3  O   UNL     1       4.276   6.009  16.637  0.00  0.00    +0.000 OA
ATOM      4  N   UNL     1       3.640   4.243  17.974  0.00  0.00    +0.000 N 
ATOM      5  C   UNL     1       2.995   5.037  18.894  0.00  0.00    +0.000 A 
ATOM      6  N   UNL     1       2.571   6.271  18.779  0.00  0.00    +0.000 NA
ATOM      7  C   UNL     1       2.066   6.720  19.991  0.00  0.00    +0.000 A 
ATOM      8  C   UNL     1       2.065   5.769  20.996  0.00  0.00    +0.000 A 
ATOM      9  S   UNL     1       2.722   4.292  20.407  0.00  0.00    +0.000 S 
ATOM     10  H   UNL     1       4.493   2.925  16.042  0.00  0.00    +0.000 HD
ATOM     11  H   UNL     1       3.919   3.326  18.277  0.00  0.00    +0.000 HD
ENDROOT
BRANCH   1  17
ATOM     12  C   UNL     1       7.046   4.768  15.346  0.00  0.00    +0.000 A 
ATOM     13  C   UNL     1       7.929   5.117  14.310  0.00  0.00    +0.000 A 
ATOM     14  C   UNL     1       7.630   4.809  12.984  0.00  0.00    +0.000 A 
ATOM     15  C   UNL     1       6.433   4.179  12.677  0.00  0.00    +0.000 A 
ATOM     16  C   UNL     1       5.525   3.878  13.693  0.00  0.00    +0.000 A 
ATOM     17  C   UNL     1       5.815   4.155  15.037  0.00  0.00    +0.000 A 
BRANCH  12  19
ATOM     18  C   UNL     1       7.476   6.372  17.029  0.00  0.00    +0.000 C 
ATOM     19  O   UNL     1       7.334   4.990  16.677  0.00  0.00    +0.000 OA
ENDBRANCH  12  19
ENDBRANCH   1  17
BRANCH   7  20
ATOM     20  C   UNL     1       1.573   8.086  20.153  0.00  0.00    +0.000 A 
ATOM     21  C   UNL     1       1.484   8.934  19.048  0.00  0.00    +0.000 A 
ATOM     22  C   UNL     1       1.009  10.237  19.202  0.00  0.00    +0.000 A 
ATOM     23  C   UNL     1       0.631  10.738  20.458  0.00  0.00    +0.000 A 
ATOM     24  C   UNL     1       0.736   9.900  21.587  0.00  0.00    +0.000 A 
ATOM     25  C   UNL     1       1.198   8.583  21.414  0.00  0.00    +0.000 A 
BRANCH  23  26
ATOM     26  O   UNL     1       0.186  12.031  20.388  0.00  0.00    +0.000 OA
ATOM     27  C   UNL     1      -0.574  12.445  19.261  0.00  0.00    +0.000 C 
ENDBRANCH  23  26
BRANCH  24  28
ATOM     28  O   UNL     1       0.387  10.414  22.807  0.00  0.00    +0.000 OA
ATOM     29  C   UNL     1      -0.979  10.369  23.195  0.00  0.00    +0.000 C 
ENDBRANCH  24  28
ENDBRANCH   7  20
TORSDOF 5
ENDMDL
MODEL 6
REMARK VINA RESULT:      -7.0      2.694      8.851
REMARK  Name = 
REMARK  8 active torsions:
REMARK  status: ('A' for Active; 'I' for Inactive)
REMARK    1  A    between atoms: C_1  and  O_2
REMARK    2  A    between atoms: O_2  and  C_3
REMARK    3  A    between atoms: C_8  and  N_9
REMARK    4  A    between atoms: C_15  and  C_16
REMARK    5  A    between atoms: C_19  and  O_20
REMARK    6  A    between atoms: O_20  and  C_21
REMARK    7  A    between atoms: C_22  and  O_23
REMARK    8  A    between atoms: O_23  and  C_24
REMARK                            x       y       z     vdW  Elec       q    Type
REMARK                         _______ _______ _______ _____ _____    ______ ____
ROOT
ATOM      1  N   UNL     1       3.859   5.305  18.088  0.00  0.00    +0.000 N 
ATOM      2  C   UNL     1       3.299   6.558  18.330  0.00  0.00    +0.000 C 
ATOM      3  O   UNL     1       3.569   7.558  17.673  0.00  0.00    +0.000 OA
ATOM      4  N   UNL     1       2.437   6.547  19.407  0.00  0.00    +0.000 N 
ATOM      5  C   UNL     1       1.816   7.705  19.814  0.00  0.00    +0.000 A 
ATOM      6  N   UNL     1       1.641   8.830  19.165  0.00  0.00    +0.000 NA
ATOM      7  C   UNL     1       1.052   9.775  19.993  0.00  0.00    +0.000 A 
ATOM      8  C   UNL     1       0.732   9.307  21.255  0.00  0.00    +0.000 A 
ATOM      9  S   UNL     1       1.193   7.657  21.404  0.00  0.00    +0.000 S 
ATOM     10  H   UNL     1       3.315   4.487  18.321  0.00  0.00    +0.000 HD
ATOM     11  H   UNL     1       2.499   5.801  20.079  0.00  0.00    +0.000 HD
ENDROOT
BRANCH   1  17
ATOM     12  C   UNL     1       6.271   4.975  17.761  0.00  0.00    +0.000 A 
ATOM     13  C   UNL     1       7.367   4.803  16.898  0.00  0.00    +0.000 A 
ATOM     14  C   UNL     1       7.178   4.659  15.525  0.00  0.00    +0.000 A 
ATOM     15  C   UNL     1       5.897   4.719  14.997  0.00  0.00    +0.000 A 
ATOM     16  C   UNL     1       4.807   4.944  15.839  0.00  0.00    +0.000 A 
ATOM     17  C   UNL     1       4.970   5.067  17.227  0.00  0.00    +0.000 A 
BRANCH  12  19
ATOM     18  C   UNL     1       7.616   5.680  19.573  0.00  0.00    +0.000 C 
ATOM     19  O   UNL     1       6.407   5.051  19.132  0.00  0.00    +0.000 OA
ENDBRANCH  12  19
ENDBRANCH   1  17
BRANCH   7  20
ATOM     20  C   UNL     1       0.792  11.137  19.533  0.00  0.00    +0.000 A 
ATOM     21  C   UNL     1      -0.481  11.691  19.672  0.00  0.00    +0.000 A 
ATOM     22  C   UNL     1      -0.730  12.994  19.237  0.00  0.00    +0.000 A 
ATOM     23  C   UNL     1       0.273  13.771  18.633  0.00  0.00    +0.000 A 
ATOM     24  C   UNL     1       1.558  13.217  18.467  0.00  0.00    +0.000 A 
ATOM     25  C   UNL     1       1.799  11.909  18.928  0.00  0.00    +0.000 A 
BRANCH  23  26
ATOM     26  O   UNL     1      -0.174  15.018  18.289  0.00  0.00    +0.000 OA
ATOM     27  C   UNL     1      -0.543  15.932  19.313  0.00  0.00    +0.000 C 
ENDBRANCH  23  26
BRANCH  24  28
ATOM     28  O   UNL     1       2.516  13.979  17.853  0.00  0.00    +0.000 OA
ATOM     29  C   UNL     1       3.327  14.823  18.659  0.00  0.00    +0.000 C 
ENDBRANCH  24  28
ENDBRANCH   7  20
TORSDOF 5
ENDMDL
MODEL 7
REMARK VINA RESULT:      -7.0      2.546      9.433
REMARK  Name = 
REMARK  8 active torsions:
REMARK  status: ('A' for Active; 'I' for Inactive)
REMARK    1  A    between atoms: C_1  and  O_2
REMARK    2  A    between atoms: O_2  and  C_3
REMARK    3  A    between atoms: C_8  and  N_9
REMARK    4  A    between atoms: C_15  and  C_16
REMARK    5  A    between atoms: C_19  and  O_20
REMARK    6  A    between atoms: O_20  and  C_21
REMARK    7  A    between atoms: C_22  and  O_23
REMARK    8  A    between atoms: O_23  and  C_24
REMARK                            x       y       z     vdW  Elec       q    Type
REMARK                         _______ _______ _______ _____ _____    ______ ____
ROOT
ATOM      1  N   UNL     1       5.617   3.805  14.999  0.00  0.00    +0.000 N 
ATOM      2  C   UNL     1       4.939   4.646  15.879  0.00  0.00    +0.000 C 
ATOM      3  O   UNL     1       4.799   5.850  15.691  0.00  0.00    +0.000 OA
ATOM      4  N   UNL     1       4.477   3.975  16.993  0.00  0.00    +0.000 N 
ATOM      5  C   UNL     1       3.812   4.653  17.988  0.00  0.00    +0.000 A 
ATOM      6  N   UNL     1       3.237   5.830  17.955  0.00  0.00    +0.000 NA
ATOM      7  C   UNL     1       2.773   6.173  19.217  0.00  0.00    +0.000 A 
ATOM      8  C   UNL     1       2.959   5.196  20.178  0.00  0.00    +0.000 A 
ATOM      9  S   UNL     1       3.741   3.831  19.484  0.00  0.00    +0.000 S 
ATOM     10  H   UNL     1       5.336   2.836  14.953  0.00  0.00    +0.000 HD
ATOM     11  H   UNL     1       4.885   3.089  17.237  0.00  0.00    +0.000 HD
ENDROOT
BRANCH   1  17
ATOM     12  C   UNL     1       6.230   3.719  12.621  0.00  0.00    +0.000 A 
ATOM     13  C   UNL     1       7.072   4.118  11.570  0.00  0.00    +0.000 A 
ATOM     14  C   UNL     1       8.059   5.080  11.772  0.00  0.00    +0.000 A 
ATOM     15  C   UNL     1       8.236   5.629  13.033  0.00  0.00    +0.000 A 
ATOM     16  C   UNL     1       7.441   5.199  14.097  0.00  0.00    +0.000 A 
ATOM     17  C   UNL     1       6.425   4.251  13.912  0.00  0.00    +0.000 A 
BRANCH  12  19
ATOM     18  C   UNL     1       4.252   3.194  11.437  0.00  0.00    +0.000 C 
ATOM     19  O   UNL     1       5.195   2.822  12.449  0.00  0.00    +0.000 OA
ENDBRANCH  12  19
ENDBRANCH   1  17
BRANCH   7  20
ATOM     20  C   UNL     1       2.134   7.462  19.470  0.00  0.00    +0.000 A 
ATOM     21  C   UNL     1       1.924   8.358  18.421  0.00  0.00    +0.000 A 
ATOM     22  C   UNL     1       1.310   9.588  18.661  0.00  0.00    +0.000 A 
ATOM     23  C   UNL     1       0.908   9.969  19.952  0.00  0.00    +0.000 A 
ATOM     24  C   UNL     1       1.133   9.084  21.026  0.00  0.00    +0.000 A 
ATOM     25  C   UNL     1       1.736   7.839  20.765  0.00  0.00    +0.000 A 
BRANCH  23  26
ATOM     26  O   UNL     1       0.320  11.205  19.968  0.00  0.00    +0.000 OA
ATOM     27  C   UNL     1       1.061  12.333  19.523  0.00  0.00    +0.000 C 
ENDBRANCH  23  26
BRANCH  24  28
ATOM     28  O   UNL     1       0.759   9.483  22.281  0.00  0.00    +0.000 OA
ATOM     29  C   UNL     1      -0.576   9.234  22.699  0.00  0.00    +0.000 C 
ENDBRANCH  24  28
ENDBRANCH   7  20
TORSDOF 5
ENDMDL
MODEL 8
REMARK VINA RESULT:      -6.9      1.341      2.255
REMARK  Name = 
REMARK  8 active torsions:
REMARK  status: ('A' for Active; 'I' for Inactive)
REMARK    1  A    between atoms: C_1  and  O_2
REMARK    2  A    between atoms: O_2  and  C_3
REMARK    3  A    between atoms: C_8  and  N_9
REMARK    4  A    between atoms: C_15  and  C_16
REMARK    5  A    between atoms: C_19  and  O_20
REMARK    6  A    between atoms: O_20  and  C_21
REMARK    7  A    between atoms: C_22  and  O_23
REMARK    8  A    between atoms: O_23  and  C_24
REMARK                            x       y       z     vdW  Elec       q    Type
REMARK                         _______ _______ _______ _____ _____    ______ ____
ROOT
ATOM      1  N   UNL     1       0.960   8.540  20.601  0.00  0.00    +0.000 N 
ATOM      2  C   UNL     1       1.853   7.865  19.772  0.00  0.00    +0.000 C 
ATOM      3  O   UNL     1       2.325   8.351  18.749  0.00  0.00    +0.000 OA
ATOM      4  N   UNL     1       2.116   6.585  20.216  0.00  0.00    +0.000 N 
ATOM      5  C   UNL     1       2.953   5.759  19.502  0.00  0.00    +0.000 A 
ATOM      6  N   UNL     1       3.835   6.058  18.581  0.00  0.00    +0.000 NA
ATOM      7  C   UNL     1       4.385   4.901  18.050  0.00  0.00    +0.000 A 
ATOM      8  C   UNL     1       3.940   3.733  18.642  0.00  0.00    +0.000 A 
ATOM      9  S   UNL     1       2.800   4.099  19.877  0.00  0.00    +0.000 S 
ATOM     10  H   UNL     1       0.957   8.312  21.585  0.00  0.00    +0.000 HD
ATOM     11  H   UNL     1       1.478   6.147  20.858  0.00  0.00    +0.000 HD
ENDROOT
BRANCH   1  17
ATOM     12  C   UNL     1       0.030  10.716  21.261  0.00  0.00    +0.000 A 
ATOM     13  C   UNL     1      -0.675  11.885  20.930  0.00  0.00    +0.000 A 
ATOM     14  C   UNL     1      -1.055  12.141  19.614  0.00  0.00    +0.000 A 
ATOM     15  C   UNL     1      -0.764  11.216  18.622  0.00  0.00    +0.000 A 
ATOM     16  C   UNL     1      -0.113  10.026  18.950  0.00  0.00    +0.000 A 
ATOM     17  C   UNL     1       0.301   9.758  20.263  0.00  0.00    +0.000 A 
BRANCH  12  19
ATOM     18  C   UNL     1      -0.482   9.843  23.398  0.00  0.00    +0.000 C 
ATOM     19  O   UNL     1       0.486  10.456  22.538  0.00  0.00    +0.000 OA
ENDBRANCH  12  19
ENDBRANCH   1  17
BRANCH   7  20
ATOM     20  C   UNL     1       5.363   4.949  16.965  0.00  0.00    +0.000 A 
ATOM     21  C   UNL     1       6.418   5.862  17.013  0.00  0.00    +0.000 A 
ATOM     22  C   UNL     1       7.354   5.906  15.979  0.00  0.00    +0.000 A 
ATOM     23  C   UNL     1       7.255   5.061  14.862  0.00  0.00    +0.000 A 
ATOM     24  C   UNL     1       6.184   4.149  14.789  0.00  0.00    +0.000 A 
ATOM     25  C   UNL     1       5.258   4.102  15.847  0.00  0.00    +0.000 A 
BRANCH  23  26
ATOM     26  O   UNL     1       8.276   5.258  13.972  0.00  0.00    +0.000 OA
ATOM     27  C   UNL     1       7.975   5.698  12.654  0.00  0.00    +0.000 C 
ENDBRANCH  23  26
BRANCH  24  28
ATOM     28  O   UNL     1       6.089   3.351  13.680  0.00  0.00    +0.000 OA
ATOM     29  C   UNL     1       5.025   3.585  12.768  0.00  0.00    +0.000 C 
ENDBRANCH  24  28
ENDBRANCH   7  20
TORSDOF 5
ENDMDL
MODEL 9
REMARK VINA RESULT:      -6.9      3.662      5.326
REMARK  Name = 
REMARK  8 active torsions:
REMARK  status: ('A' for Active; 'I' for Inactive)
REMARK    1  A    between atoms: C_1  and  O_2
REMARK    2  A    between atoms: O_2  and  C_3
REMARK    3  A    between atoms: C_8  and  N_9
REMARK    4  A    between atoms: C_15  and  C_16
REMARK    5  A    between atoms: C_19  and  O_20
REMARK    6  A    between atoms: O_20  and  C_21
REMARK    7  A    between atoms: C_22  and  O_23
REMARK    8  A    between atoms: O_23  and  C_24
REMARK                            x       y       z     vdW  Elec       q    Type
REMARK                         _______ _______ _______ _____ _____    ______ ____
ROOT
ATOM      1  N   UNL     1      -3.378  12.178  18.307  0.00  0.00    +0.000 N 
ATOM      2  C   UNL     1      -2.272  11.337  18.411  0.00  0.00    +0.000 C 
ATOM      3  O   UNL     1      -2.348  10.156  18.733  0.00  0.00    +0.000 OA
ATOM      4  N   UNL     1      -1.088  11.994  18.142  0.00  0.00    +0.000 N 
ATOM      5  C   UNL     1       0.113  11.328  18.230  0.00  0.00    +0.000 A 
ATOM      6  N   UNL     1       0.354  10.040  18.233  0.00  0.00    +0.000 NA
ATOM      7  C   UNL     1       1.706   9.807  18.443  0.00  0.00    +0.000 A 
ATOM      8  C   UNL     1       2.476  10.952  18.531  0.00  0.00    +0.000 A 
ATOM      9  S   UNL     1       1.481  12.344  18.359  0.00  0.00    +0.000 S 
ATOM     10  H   UNL     1      -3.336  12.942  17.648  0.00  0.00    +0.000 HD
ATOM     11  H   UNL     1      -1.060  12.998  18.196  0.00  0.00    +0.000 HD
ENDROOT
BRANCH   1  17
ATOM     12  C   UNL     1      -5.125  12.350  20.025  0.00  0.00    +0.000 A 
ATOM     13  C   UNL     1      -6.391  11.979  20.511  0.00  0.00    +0.000 A 
ATOM     14  C   UNL     1      -7.242  11.183  19.748  0.00  0.00    +0.000 A 
ATOM     15  C   UNL     1      -6.826  10.722  18.508  0.00  0.00    +0.000 A 
ATOM     16  C   UNL     1      -5.550  11.039  18.041  0.00  0.00    +0.000 A 
ATOM     17  C   UNL     1      -4.685  11.860  18.779  0.00  0.00    +0.000 A 
BRANCH  12  19
ATOM     18  C   UNL     1      -3.907  12.722  22.017  0.00  0.00    +0.000 C 
ATOM     19  O   UNL     1      -4.279  13.193  20.716  0.00  0.00    +0.000 OA
ENDBRANCH  12  19
ENDBRANCH   1  17
BRANCH   7  20
ATOM     20  C   UNL     1       2.239   8.450  18.544  0.00  0.00    +0.000 A 
ATOM     21  C   UNL     1       3.091   7.958  17.554  0.00  0.00    +0.000 A 
ATOM     22  C   UNL     1       3.605   6.663  17.652  0.00  0.00    +0.000 A 
ATOM     23  C   UNL     1       3.268   5.818  18.722  0.00  0.00    +0.000 A 
ATOM     24  C   UNL     1       2.391   6.294  19.717  0.00  0.00    +0.000 A 
ATOM     25  C   UNL     1       1.896   7.607  19.616  0.00  0.00    +0.000 A 
BRANCH  23  26
ATOM     26  O   UNL     1       3.884   4.599  18.632  0.00  0.00    +0.000 OA
ATOM     27  C   UNL     1       5.223   4.461  19.087  0.00  0.00    +0.000 C 
ENDBRANCH  23  26
BRANCH  24  28
ATOM     28  O   UNL     1       2.053   5.446  20.739  0.00  0.00    +0.000 OA
ATOM     29  C   UNL     1       1.087   4.436  20.487  0.00  0.00    +0.000 C 
ENDBRANCH  24  28
ENDBRANCH   7  20
TORSDOF 5
ENDMDL
