MODEL 1
REMARK VINA RESULT:      -8.7      0.000      0.000
REMARK  Name = 
REMARK  9 active torsions:
REMARK  status: ('A' for Active; 'I' for Inactive)
REMARK    1  A    between atoms: C_1  and  O_2
REMARK    2  A    between atoms: O_2  and  C_3
REMARK    3  A    between atoms: C_3  and  C_5
REMARK    4  A    between atoms: C_8  and  O_9
REMARK    5  A    between atoms: O_9  and  C_10
REMARK    6  A    between atoms: C_11  and  C_12
REMARK    7  A    between atoms: C_15  and  S_16
REMARK    8  A    between atoms: S_16  and  C_17
REMARK    9  A    between atoms: C_23  and  C_24
REMARK                            x       y       z     vdW  Elec       q    Type
REMARK                         _______ _______ _______ _____ _____    ______ ____
ROOT
ATOM      1  C   UNL     1       3.860   4.777  19.368  0.00  0.00    +0.000 A 
ATOM      2  C   UNL     1       2.612   5.274  19.454  0.00  0.00    +0.000 A 
ATOM      3  O   UNL     1       1.482   4.493  19.665  0.00  0.00    +0.000 OA
ATOM      4  C   UNL     1       1.609   3.117  19.696  0.00  0.00    +0.000 A 
ATOM      5  C   UNL     1       0.327   2.355  19.786  0.00  0.00    +0.000 C 
ATOM      6  C   UNL     1       2.796   2.500  19.681  0.00  0.00    +0.000 A 
ATOM      7  C   UNL     1       4.022   3.311  19.643  0.00  0.00    +0.000 A 
ATOM      8  O   UNL     1       5.102   2.765  19.831  0.00  0.00    +0.000 OA
ENDROOT
BRANCH   2   9
ATOM      9  C   UNL     1       2.293   6.704  19.343  0.00  0.00    +0.000 A 
ATOM     10  C   UNL     1       2.373   7.372  18.113  0.00  0.00    +0.000 A 
ATOM     11  C   UNL     1       1.969   8.706  18.006  0.00  0.00    +0.000 A 
ATOM     12  C   UNL     1       1.471   9.372  19.129  0.00  0.00    +0.000 A 
ATOM     13  C   UNL     1       1.422   8.732  20.370  0.00  0.00    +0.000 A 
ATOM     14  C   UNL     1       1.826   7.397  20.471  0.00  0.00    +0.000 A 
BRANCH  12  15
ATOM     15  S   UNL     1       0.906  11.050  18.988  0.00  0.00    +0.000 S 
ATOM     16  C   UNL     1       0.778  11.581  20.676  0.00  0.00    +0.000 C 
ATOM     17  O   UNL     1       1.964  11.815  18.353  0.00  0.00    +0.000 OA
ATOM     18  O   UNL     1      -0.427  11.019  18.417  0.00  0.00    +0.000 OA
ENDBRANCH  12  15
ENDBRANCH   2   9
BRANCH   1  19
ATOM     19  O   UNL     1       4.969   5.581  19.084  0.00  0.00    +0.000 OA
BRANCH  19  23
ATOM     20  C   UNL     1       6.749   5.119  15.327  0.00  0.00    +0.000 A 
ATOM     21  C   UNL     1       5.490   5.725  15.425  0.00  0.00    +0.000 A 
ATOM     22  C   UNL     1       4.904   5.937  16.672  0.00  0.00    +0.000 A 
ATOM     23  C   UNL     1       5.539   5.485  17.833  0.00  0.00    +0.000 A 
ATOM     24  C   UNL     1       6.810   4.913  17.749  0.00  0.00    +0.000 A 
ATOM     25  C   UNL     1       7.417   4.731  16.498  0.00  0.00    +0.000 A 
BRANCH  20  26
ATOM     26  C   UNL     1       7.311   4.934  13.962  0.00  0.00    +0.000 C 
ATOM     27  O   UNL     1       8.209   5.626  13.510  0.00  0.00    +0.000 OA
BRANCH  26  29
ATOM     28  C   UNL     1       6.938   3.897  11.913  0.00  0.00    +0.000 C 
ATOM     29  O   UNL     1       6.709   3.901  13.323  0.00  0.00    +0.000 OA
ENDBRANCH  26  29
ENDBRANCH  20  26
ENDBRANCH  19  23
ENDBRANCH   1  19
TORSDOF 6
ENDMDL
MODEL 2
REMARK VINA RESULT:      -8.3      0.698      1.227
REMARK  Name = 
REMARK  9 active torsions:
REMARK  status: ('A' for Active; 'I' for Inactive)
REMARK    1  A    between atoms: C_1  and  O_2
REMARK    2  A    between atoms: O_2  and  C_3
REMARK    3  A    between atoms: C_3  and  C_5
REMARK    4  A    between atoms: C_8  and  O_9
REMARK    5  A    between atoms: O_9  and  C_10
REMARK    6  A    between atoms: C_11  and  C_12
REMARK    7  A    between atoms: C_15  and  S_16
REMARK    8  A    between atoms: S_16  and  C_17
REMARK    9  A    between atoms: C_23  and  C_24
REMARK                            x       y       z     vdW  Elec       q    Type
REMARK                         _______ _______ _______ _____ _____    ______ ____
ROOT
ATOM      1  C   UNL     1       3.836   4.780  19.346  0.00  0.00    +0.000 A 
ATOM      2  C   UNL     1       2.599   5.283  19.516  0.00  0.00    +0.000 A 
ATOM      3  O   UNL     1       1.480   4.508  19.794  0.00  0.00    +0.000 OA
ATOM      4  C   UNL     1       1.600   3.131  19.808  0.00  0.00    +0.000 A 
ATOM      5  C   UNL     1       0.321   2.377  19.976  0.00  0.00    +0.000 C 
ATOM      6  C   UNL     1       2.779   2.507  19.712  0.00  0.00    +0.000 A 
ATOM      7  C   UNL     1       4.005   3.310  19.600  0.00  0.00    +0.000 A 
ATOM      8  O   UNL     1       5.092   2.757  19.714  0.00  0.00    +0.000 OA
ENDROOT
BRANCH   2   9
ATOM      9  C   UNL     1       2.283   6.716  19.435  0.00  0.00    +0.000 A 
ATOM     10  C   UNL     1       2.329   7.402  18.214  0.00  0.00    +0.000 A 
ATOM     11  C   UNL     1       1.927   8.739  18.138  0.00  0.00    +0.000 A 
ATOM     12  C   UNL     1       1.467   9.391  19.285  0.00  0.00    +0.000 A 
ATOM     13  C   UNL     1       1.453   8.733  20.517  0.00  0.00    +0.000 A 
ATOM     14  C   UNL     1       1.855   7.395  20.587  0.00  0.00    +0.000 A 
BRANCH  12  15
ATOM     15  S   UNL     1       0.906  11.073  19.185  0.00  0.00    +0.000 S 
ATOM     16  C   UNL     1      -0.673  10.931  18.389  0.00  0.00    +0.000 C 
ATOM     17  O   UNL     1       0.689  11.542  20.541  0.00  0.00    +0.000 OA
ATOM     18  O   UNL     1       1.804  11.783  18.293  0.00  0.00    +0.000 OA
ENDBRANCH  12  15
ENDBRANCH   2   9
BRANCH   1  19
ATOM     19  O   UNL     1       4.929   5.578  18.996  0.00  0.00    +0.000 OA
BRANCH  19  23
ATOM     20  C   UNL     1       6.680   5.107  15.226  0.00  0.00    +0.000 A 
ATOM     21  C   UNL     1       7.378   4.694  16.368  0.00  0.00    +0.000 A 
ATOM     22  C   UNL     1       6.790   4.792  17.628  0.00  0.00    +0.000 A 
ATOM     23  C   UNL     1       5.523   5.368  17.770  0.00  0.00    +0.000 A 
ATOM     24  C   UNL     1       4.806   5.750  16.635  0.00  0.00    +0.000 A 
ATOM     25  C   UNL     1       5.381   5.619  15.363  0.00  0.00    +0.000 A 
BRANCH  20  26
ATOM     26  C   UNL     1       7.371   4.964  13.917  0.00  0.00    +0.000 C 
ATOM     27  O   UNL     1       8.263   5.710  13.547  0.00  0.00    +0.000 OA
BRANCH  26  29
ATOM     28  C   UNL     1       7.000   4.049  11.809  0.00  0.00    +0.000 C 
ATOM     29  O   UNL     1       6.892   3.900  13.226  0.00  0.00    +0.000 OA
ENDBRANCH  26  29
ENDBRANCH  20  26
ENDBRANCH  19  23
ENDBRANCH   1  19
TORSDOF 6
ENDMDL
MODEL 3
REMARK VINA RESULT:      -8.2      0.845      1.275
REMARK  Name = 
REMARK  9 active torsions:
REMARK  status: ('A' for Active; 'I' for Inactive)
REMARK    1  A    between atoms: C_1  and  O_2
REMARK    2  A    between atoms: O_2  and  C_3
REMARK    3  A    between atoms: C_3  and  C_5
REMARK    4  A    between atoms: C_8  and  O_9
REMARK    5  A    between atoms: O_9  and  C_10
REMARK    6  A    between atoms: C_11  and  C_12
REMARK    7  A    between atoms: C_15  and  S_16
REMARK    8  A    between atoms: S_16  and  C_17
REMARK    9  A    between atoms: C_23  and  C_24
REMARK                            x       y       z     vdW  Elec       q    Type
REMARK                         _______ _______ _______ _____ _____    ______ ____
ROOT
ATOM      1  C   UNL     1       3.934   5.314  19.391  0.00  0.00    +0.000 A 
ATOM      2  C   UNL     1       2.695   5.711  19.736  0.00  0.00    +0.000 A 
ATOM      3  O   UNL     1       1.725   4.858  20.249  0.00  0.00    +0.000 OA
ATOM      4  C   UNL     1       1.992   3.504  20.329  0.00  0.00    +0.000 A 
ATOM      5  C   UNL     1       0.844   2.648  20.758  0.00  0.00    +0.000 C 
ATOM      6  C   UNL     1       3.199   2.989  20.074  0.00  0.00    +0.000 A 
ATOM      7  C   UNL     1       4.298   3.893  19.705  0.00  0.00    +0.000 A 
ATOM      8  O   UNL     1       5.442   3.455  19.668  0.00  0.00    +0.000 OA
ENDROOT
BRANCH   2   9
ATOM      9  C   UNL     1       2.220   7.096  19.620  0.00  0.00    +0.000 A 
ATOM     10  C   UNL     1       2.213   7.760  18.385  0.00  0.00    +0.000 A 
ATOM     11  C   UNL     1       1.663   9.041  18.274  0.00  0.00    +0.000 A 
ATOM     12  C   UNL     1       1.107   9.657  19.398  0.00  0.00    +0.000 A 
ATOM     13  C   UNL     1       1.142   9.024  20.644  0.00  0.00    +0.000 A 
ATOM     14  C   UNL     1       1.691   7.743  20.749  0.00  0.00    +0.000 A 
BRANCH  12  15
ATOM     15  S   UNL     1       0.360  11.262  19.253  0.00  0.00    +0.000 S 
ATOM     16  C   UNL     1       1.721  12.306  18.800  0.00  0.00    +0.000 C 
ATOM     17  O   UNL     1      -0.565  11.214  18.136  0.00  0.00    +0.000 OA
ATOM     18  O   UNL     1      -0.096  11.655  20.573  0.00  0.00    +0.000 OA
ENDBRANCH  12  15
ENDBRANCH   2   9
BRANCH   1  19
ATOM     19  O   UNL     1       4.865   6.182  18.811  0.00  0.00    +0.000 OA
BRANCH  19  23
ATOM     20  C   UNL     1       6.539   5.177  15.112  0.00  0.00    +0.000 A 
ATOM     21  C   UNL     1       7.366   5.287  16.237  0.00  0.00    +0.000 A 
ATOM     22  C   UNL     1       6.821   5.567  17.489  0.00  0.00    +0.000 A 
ATOM     23  C   UNL     1       5.449   5.809  17.620  0.00  0.00    +0.000 A 
ATOM     24  C   UNL     1       4.613   5.666  16.512  0.00  0.00    +0.000 A 
ATOM     25  C   UNL     1       5.155   5.348  15.258  0.00  0.00    +0.000 A 
BRANCH  20  26
ATOM     26  C   UNL     1       7.195   4.868  13.813  0.00  0.00    +0.000 C 
ATOM     27  O   UNL     1       8.130   5.512  13.367  0.00  0.00    +0.000 OA
BRANCH  26  29
ATOM     28  C   UNL     1       6.902   3.690  11.827  0.00  0.00    +0.000 C 
ATOM     29  O   UNL     1       6.629   3.783  13.226  0.00  0.00    +0.000 OA
ENDBRANCH  26  29
ENDBRANCH  20  26
ENDBRANCH  19  23
ENDBRANCH   1  19
TORSDOF 6
ENDMDL
MODEL 4
REMARK VINA RESULT:      -8.1      1.026      1.437
REMARK  Name = 
REMARK  9 active torsions:
REMARK  status: ('A' for Active; 'I' for Inactive)
REMARK    1  A    between atoms: C_1  and  O_2
REMARK    2  A    between atoms: O_2  and  C_3
REMARK    3  A    between atoms: C_3  and  C_5
REMARK    4  A    between atoms: C_8  and  O_9
REMARK    5  A    between atoms: O_9  and  C_10
REMARK    6  A    between atoms: C_11  and  C_12
REMARK    7  A    between atoms: C_15  and  S_16
REMARK    8  A    between atoms: S_16  and  C_17
REMARK    9  A    between atoms: C_23  and  C_24
REMARK                            x       y       z     vdW  Elec       q    Type
REMARK                         _______ _______ _______ _____ _____    ______ ____
ROOT
ATOM      1  C   UNL     1       3.928   5.432  19.415  0.00  0.00    +0.000 A 
ATOM      2  C   UNL     1       2.681   5.758  19.803  0.00  0.00    +0.000 A 
ATOM      3  O   UNL     1       1.789   4.858  20.374  0.00  0.00    +0.000 OA
ATOM      4  C   UNL     1       2.145   3.526  20.472  0.00  0.00    +0.000 A 
ATOM      5  C   UNL     1       1.072   2.610  20.968  0.00  0.00    +0.000 C 
ATOM      6  C   UNL     1       3.371   3.081  20.178  0.00  0.00    +0.000 A 
ATOM      7  C   UNL     1       4.395   4.044  19.745  0.00  0.00    +0.000 A 
ATOM      8  O   UNL     1       5.561   3.679  19.670  0.00  0.00    +0.000 OA
ENDROOT
BRANCH   2   9
ATOM      9  C   UNL     1       2.114   7.107  19.677  0.00  0.00    +0.000 A 
ATOM     10  C   UNL     1       1.587   7.780  20.789  0.00  0.00    +0.000 A 
ATOM     11  C   UNL     1       1.144   9.101  20.671  0.00  0.00    +0.000 A 
ATOM     12  C   UNL     1       1.239   9.757  19.441  0.00  0.00    +0.000 A 
ATOM     13  C   UNL     1       1.724   9.087  18.315  0.00  0.00    +0.000 A 
ATOM     14  C   UNL     1       2.167   7.767  18.438  0.00  0.00    +0.000 A 
BRANCH  12  15
ATOM     15  S   UNL     1       0.727  11.452  19.297  0.00  0.00    +0.000 S 
ATOM     16  C   UNL     1       2.084  12.218  18.449  0.00  0.00    +0.000 C 
ATOM     17  O   UNL     1      -0.430  11.486  18.422  0.00  0.00    +0.000 OA
ATOM     18  O   UNL     1       0.657  12.004  20.637  0.00  0.00    +0.000 OA
ENDBRANCH  12  15
ENDBRANCH   2   9
BRANCH   1  19
ATOM     19  O   UNL     1       4.778   6.342  18.779  0.00  0.00    +0.000 OA
BRANCH  19  23
ATOM     20  C   UNL     1       6.499   5.224  15.134  0.00  0.00    +0.000 A 
ATOM     21  C   UNL     1       5.134   4.999  15.351  0.00  0.00    +0.000 A 
ATOM     22  C   UNL     1       4.530   5.413  16.537  0.00  0.00    +0.000 A 
ATOM     23  C   UNL     1       5.298   5.998  17.549  0.00  0.00    +0.000 A 
ATOM     24  C   UNL     1       6.651   6.259  17.329  0.00  0.00    +0.000 A 
ATOM     25  C   UNL     1       7.253   5.875  16.121  0.00  0.00    +0.000 A 
BRANCH  20  26
ATOM     26  C   UNL     1       7.068   4.760  13.841  0.00  0.00    +0.000 C 
ATOM     27  O   UNL     1       7.878   5.407  13.196  0.00  0.00    +0.000 OA
BRANCH  26  29
ATOM     28  C   UNL     1       6.285   3.410  12.114  0.00  0.00    +0.000 C 
ATOM     29  O   UNL     1       6.584   3.538  13.505  0.00  0.00    +0.000 OA
ENDBRANCH  26  29
ENDBRANCH  20  26
ENDBRANCH  19  23
ENDBRANCH   1  19
TORSDOF 6
ENDMDL
MODEL 5
REMARK VINA RESULT:      -8.1      0.715      1.392
REMARK  Name = 
REMARK  9 active torsions:
REMARK  status: ('A' for Active; 'I' for Inactive)
REMARK    1  A    between atoms: C_1  and  O_2
REMARK    2  A    between atoms: O_2  and  C_3
REMARK    3  A    between atoms: C_3  and  C_5
REMARK    4  A    between atoms: C_8  and  O_9
REMARK    5  A    between atoms: O_9  and  C_10
REMARK    6  A    between atoms: C_11  and  C_12
REMARK    7  A    between atoms: C_15  and  S_16
REMARK    8  A    between atoms: S_16  and  C_17
REMARK    9  A    between atoms: C_23  and  C_24
REMARK                            x       y       z     vdW  Elec       q    Type
REMARK                         _______ _______ _______ _____ _____    ______ ____
ROOT
ATOM      1  C   UNL     1       3.963   5.299  19.322  0.00  0.00    +0.000 A 
ATOM      2  C   UNL     1       2.724   5.670  19.694  0.00  0.00    +0.000 A 
ATOM      3  O   UNL     1       1.807   4.814  20.290  0.00  0.00    +0.000 OA
ATOM      4  C   UNL     1       2.126   3.477  20.434  0.00  0.00    +0.000 A 
ATOM      5  C   UNL     1       1.028   2.607  20.955  0.00  0.00    +0.000 C 
ATOM      6  C   UNL     1       3.341   2.991  20.160  0.00  0.00    +0.000 A 
ATOM      7  C   UNL     1       4.392   3.911  19.700  0.00  0.00    +0.000 A 
ATOM      8  O   UNL     1       5.548   3.512  19.642  0.00  0.00    +0.000 OA
ENDROOT
BRANCH   2   9
ATOM      9  C   UNL     1       2.193   7.029  19.520  0.00  0.00    +0.000 A 
ATOM     10  C   UNL     1       1.673   7.749  20.605  0.00  0.00    +0.000 A 
ATOM     11  C   UNL     1       1.266   9.077  20.442  0.00  0.00    +0.000 A 
ATOM     12  C   UNL     1       1.390   9.692  19.193  0.00  0.00    +0.000 A 
ATOM     13  C   UNL     1       1.869   8.975  18.094  0.00  0.00    +0.000 A 
ATOM     14  C   UNL     1       2.276   7.648  18.262  0.00  0.00    +0.000 A 
BRANCH  12  15
ATOM     15  S   UNL     1       0.923  11.394  18.992  0.00  0.00    +0.000 S 
ATOM     16  C   UNL     1       0.836  11.993  20.660  0.00  0.00    +0.000 C 
ATOM     17  O   UNL     1       2.019  12.071  18.325  0.00  0.00    +0.000 OA
ATOM     18  O   UNL     1      -0.413  11.419  18.429  0.00  0.00    +0.000 OA
ENDBRANCH  12  15
ENDBRANCH   2   9
BRANCH   1  19
ATOM     19  O   UNL     1       4.839   6.165  18.659  0.00  0.00    +0.000 OA
BRANCH  19  23
ATOM     20  C   UNL     1       6.382   4.981  14.956  0.00  0.00    +0.000 A 
ATOM     21  C   UNL     1       7.252   5.449  15.948  0.00  0.00    +0.000 A 
ATOM     22  C   UNL     1       6.765   5.797  17.207  0.00  0.00    +0.000 A 
ATOM     23  C   UNL     1       5.391   5.745  17.468  0.00  0.00    +0.000 A 
ATOM     24  C   UNL     1       4.521   5.245  16.498  0.00  0.00    +0.000 A 
ATOM     25  C   UNL     1       5.014   4.861  15.242  0.00  0.00    +0.000 A 
BRANCH  20  26
ATOM     26  C   UNL     1       6.979   4.622  13.641  0.00  0.00    +0.000 C 
ATOM     27  O   UNL     1       7.708   5.372  13.012  0.00  0.00    +0.000 OA
BRANCH  26  29
ATOM     28  C   UNL     1       5.787   3.342  12.106  0.00  0.00    +0.000 C 
ATOM     29  O   UNL     1       6.619   3.369  13.267  0.00  0.00    +0.000 OA
ENDBRANCH  26  29
ENDBRANCH  20  26
ENDBRANCH  19  23
ENDBRANCH   1  19
TORSDOF 6
ENDMDL
MODEL 6
REMARK VINA RESULT:      -7.7      0.792      1.341
REMARK  Name = 
REMARK  9 active torsions:
REMARK  status: ('A' for Active; 'I' for Inactive)
REMARK    1  A    between atoms: C_1  and  O_2
REMARK    2  A    between atoms: O_2  and  C_3
REMARK    3  A    between atoms: C_3  and  C_5
REMARK    4  A    between atoms: C_8  and  O_9
REMARK    5  A    between atoms: O_9  and  C_10
REMARK    6  A    between atoms: C_11  and  C_12
REMARK    7  A    between atoms: C_15  and  S_16
REMARK    8  A    between atoms: S_16  and  C_17
REMARK    9  A    between atoms: C_23  and  C_24
REMARK                            x       y       z     vdW  Elec       q    Type
REMARK                         _______ _______ _______ _____ _____    ______ ____
ROOT
ATOM      1  C   UNL     1       3.906   5.373  19.437  0.00  0.00    +0.000 A 
ATOM      2  C   UNL     1       2.657   5.724  19.794  0.00  0.00    +0.000 A 
ATOM      3  O   UNL     1       1.743   4.848  20.367  0.00  0.00    +0.000 OA
ATOM      4  C   UNL     1       2.078   3.514  20.500  0.00  0.00    +0.000 A 
ATOM      5  C   UNL     1       0.985   2.623  20.994  0.00  0.00    +0.000 C 
ATOM      6  C   UNL     1       3.304   3.047  20.238  0.00  0.00    +0.000 A 
ATOM      7  C   UNL     1       4.348   3.987  19.803  0.00  0.00    +0.000 A 
ATOM      8  O   UNL     1       5.510   3.605  19.757  0.00  0.00    +0.000 OA
ENDROOT
BRANCH   2   9
ATOM      9  C   UNL     1       2.110   7.078  19.630  0.00  0.00    +0.000 A 
ATOM     10  C   UNL     1       1.564   7.777  20.715  0.00  0.00    +0.000 A 
ATOM     11  C   UNL     1       1.141   9.101  20.563  0.00  0.00    +0.000 A 
ATOM     12  C   UNL     1       1.276   9.734  19.324  0.00  0.00    +0.000 A 
ATOM     13  C   UNL     1       1.781   9.037  18.223  0.00  0.00    +0.000 A 
ATOM     14  C   UNL     1       2.204   7.714  18.381  0.00  0.00    +0.000 A 
BRANCH  12  15
ATOM     15  S   UNL     1       0.789  11.431  19.137  0.00  0.00    +0.000 S 
ATOM     16  C   UNL     1       0.608  11.991  20.811  0.00  0.00    +0.000 C 
ATOM     17  O   UNL     1       1.905  12.142  18.541  0.00  0.00    +0.000 OA
ATOM     18  O   UNL     1      -0.518  11.447  18.507  0.00  0.00    +0.000 OA
ENDBRANCH  12  15
ENDBRANCH   2   9
BRANCH   1  19
ATOM     19  O   UNL     1       4.780   6.259  18.797  0.00  0.00    +0.000 OA
BRANCH  19  23
ATOM     20  C   UNL     1       6.414   5.107  15.123  0.00  0.00    +0.000 A 
ATOM     21  C   UNL     1       5.038   4.965  15.341  0.00  0.00    +0.000 A 
ATOM     22  C   UNL     1       4.466   5.393  16.538  0.00  0.00    +0.000 A 
ATOM     23  C   UNL     1       5.272   5.907  17.559  0.00  0.00    +0.000 A 
ATOM     24  C   UNL     1       6.639   6.086  17.337  0.00  0.00    +0.000 A 
ATOM     25  C   UNL     1       7.211   5.688  16.120  0.00  0.00    +0.000 A 
BRANCH  20  26
ATOM     26  C   UNL     1       6.949   4.633  13.818  0.00  0.00    +0.000 C 
ATOM     27  O   UNL     1       6.546   3.627  13.257  0.00  0.00    +0.000 OA
BRANCH  26  29
ATOM     28  C   UNL     1       7.892   5.611  11.928  0.00  0.00    +0.000 C 
ATOM     29  O   UNL     1       7.907   5.472  13.350  0.00  0.00    +0.000 OA
ENDBRANCH  26  29
ENDBRANCH  20  26
ENDBRANCH  19  23
ENDBRANCH   1  19
TORSDOF 6
ENDMDL
MODEL 7
REMARK VINA RESULT:      -7.6      1.114      1.762
REMARK  Name = 
REMARK  9 active torsions:
REMARK  status: ('A' for Active; 'I' for Inactive)
REMARK    1  A    between atoms: C_1  and  O_2
REMARK    2  A    between atoms: O_2  and  C_3
REMARK    3  A    between atoms: C_3  and  C_5
REMARK    4  A    between atoms: C_8  and  O_9
REMARK    5  A    between atoms: O_9  and  C_10
REMARK    6  A    between atoms: C_11  and  C_12
REMARK    7  A    between atoms: C_15  and  S_16
REMARK    8  A    between atoms: S_16  and  C_17
REMARK    9  A    between atoms: C_23  and  C_24
REMARK                            x       y       z     vdW  Elec       q    Type
REMARK                         _______ _______ _______ _____ _____    ______ ____
ROOT
ATOM      1  C   UNL     1       3.826   5.348  19.541  0.00  0.00    +0.000 A 
ATOM      2  C   UNL     1       2.618   5.672  20.039  0.00  0.00    +0.000 A 
ATOM      3  O   UNL     1       1.774   4.766  20.669  0.00  0.00    +0.000 OA
ATOM      4  C   UNL     1       2.129   3.432  20.715  0.00  0.00    +0.000 A 
ATOM      5  C   UNL     1       1.098   2.512  21.284  0.00  0.00    +0.000 C 
ATOM      6  C   UNL     1       3.324   2.988  20.310  0.00  0.00    +0.000 A 
ATOM      7  C   UNL     1       4.312   3.953  19.807  0.00  0.00    +0.000 A 
ATOM      8  O   UNL     1       5.466   3.585  19.628  0.00  0.00    +0.000 OA
ENDROOT
BRANCH   2   9
ATOM      9  C   UNL     1       2.049   7.025  19.983  0.00  0.00    +0.000 A 
ATOM     10  C   UNL     1       1.459   7.611  21.112  0.00  0.00    +0.000 A 
ATOM     11  C   UNL     1       1.014   8.937  21.069  0.00  0.00    +0.000 A 
ATOM     12  C   UNL     1       1.170   9.683  19.898  0.00  0.00    +0.000 A 
ATOM     13  C   UNL     1       1.719   9.100  18.753  0.00  0.00    +0.000 A 
ATOM     14  C   UNL     1       2.164   7.776  18.801  0.00  0.00    +0.000 A 
BRANCH  12  15
ATOM     15  S   UNL     1       0.654  11.382  19.853  0.00  0.00    +0.000 S 
ATOM     16  C   UNL     1      -1.114  11.275  19.961  0.00  0.00    +0.000 C 
ATOM     17  O   UNL     1       1.143  12.019  21.062  0.00  0.00    +0.000 OA
ATOM     18  O   UNL     1       1.000  11.912  18.548  0.00  0.00    +0.000 OA
ENDBRANCH  12  15
ENDBRANCH   2   9
BRANCH   1  19
ATOM     19  O   UNL     1       4.624   6.266  18.850  0.00  0.00    +0.000 OA
BRANCH  19  23
ATOM     20  C   UNL     1       6.347   5.072  15.230  0.00  0.00    +0.000 A 
ATOM     21  C   UNL     1       7.148   5.667  16.213  0.00  0.00    +0.000 A 
ATOM     22  C   UNL     1       6.604   6.022  17.446  0.00  0.00    +0.000 A 
ATOM     23  C   UNL     1       5.237   5.849  17.688  0.00  0.00    +0.000 A 
ATOM     24  C   UNL     1       4.439   5.224  16.729  0.00  0.00    +0.000 A 
ATOM     25  C   UNL     1       4.992   4.833  15.501  0.00  0.00    +0.000 A 
BRANCH  20  26
ATOM     26  C   UNL     1       7.002   4.714  13.943  0.00  0.00    +0.000 C 
ATOM     27  O   UNL     1       6.580   3.846  13.197  0.00  0.00    +0.000 OA
BRANCH  26  29
ATOM     28  C   UNL     1       8.264   5.845  12.347  0.00  0.00    +0.000 C 
ATOM     29  O   UNL     1       8.094   5.488  13.720  0.00  0.00    +0.000 OA
ENDBRANCH  26  29
ENDBRANCH  20  26
ENDBRANCH  19  23
ENDBRANCH   1  19
TORSDOF 6
ENDMDL
MODEL 8
REMARK VINA RESULT:      -7.5      1.113      1.608
REMARK  Name = 
REMARK  9 active torsions:
REMARK  status: ('A' for Active; 'I' for Inactive)
REMARK    1  A    between atoms: C_1  and  O_2
REMARK    2  A    between atoms: O_2  and  C_3
REMARK    3  A    between atoms: C_3  and  C_5
REMARK    4  A    between atoms: C_8  and  O_9
REMARK    5  A    between atoms: O_9  and  C_10
REMARK    6  A    between atoms: C_11  and  C_12
REMARK    7  A    between atoms: C_15  and  S_16
REMARK    8  A    between atoms: S_16  and  C_17
REMARK    9  A    between atoms: C_23  and  C_24
REMARK                            x       y       z     vdW  Elec       q    Type
REMARK                         _______ _______ _______ _____ _____    ______ ____
ROOT
ATOM      1  C   UNL     1       3.914   5.104  19.324  0.00  0.00    +0.000 A 
ATOM      2  C   UNL     1       2.738   5.521  19.828  0.00  0.00    +0.000 A 
ATOM      3  O   UNL     1       1.910   4.730  20.616  0.00  0.00    +0.000 OA
ATOM      4  C   UNL     1       2.246   3.407  20.829  0.00  0.00    +0.000 A 
ATOM      5  C   UNL     1       1.229   2.598  21.568  0.00  0.00    +0.000 C 
ATOM      6  C   UNL     1       3.411   2.883  20.435  0.00  0.00    +0.000 A 
ATOM      7  C   UNL     1       4.389   3.748  19.758  0.00  0.00    +0.000 A 
ATOM      8  O   UNL     1       5.527   3.331  19.577  0.00  0.00    +0.000 OA
ENDROOT
BRANCH   2   9
ATOM      9  C   UNL     1       2.189   6.867  19.613  0.00  0.00    +0.000 A 
ATOM     10  C   UNL     1       1.613   7.592  20.664  0.00  0.00    +0.000 A 
ATOM     11  C   UNL     1       1.188   8.910  20.465  0.00  0.00    +0.000 A 
ATOM     12  C   UNL     1       1.351   9.509  19.213  0.00  0.00    +0.000 A 
ATOM     13  C   UNL     1       1.887   8.785  18.145  0.00  0.00    +0.000 A 
ATOM     14  C   UNL     1       2.311   7.469  18.350  0.00  0.00    +0.000 A 
BRANCH  12  15
ATOM     15  S   UNL     1       0.861  11.198  18.967  0.00  0.00    +0.000 S 
ATOM     16  C   UNL     1       0.678  11.815  20.621  0.00  0.00    +0.000 C 
ATOM     17  O   UNL     1       1.976  11.890  18.348  0.00  0.00    +0.000 OA
ATOM     18  O   UNL     1      -0.445  11.190  18.337  0.00  0.00    +0.000 OA
ENDBRANCH  12  15
ENDBRANCH   2   9
BRANCH   1  19
ATOM     19  O   UNL     1       4.692   5.899  18.476  0.00  0.00    +0.000 OA
BRANCH  19  23
ATOM     20  C   UNL     1       5.569   4.625  14.590  0.00  0.00    +0.000 A 
ATOM     21  C   UNL     1       5.177   3.686  15.552  0.00  0.00    +0.000 A 
ATOM     22  C   UNL     1       4.828   4.097  16.837  0.00  0.00    +0.000 A 
ATOM     23  C   UNL     1       4.932   5.444  17.197  0.00  0.00    +0.000 A 
ATOM     24  C   UNL     1       5.287   6.392  16.235  0.00  0.00    +0.000 A 
ATOM     25  C   UNL     1       5.604   5.985  14.931  0.00  0.00    +0.000 A 
BRANCH  20  26
ATOM     26  C   UNL     1       5.919   4.109  13.239  0.00  0.00    +0.000 C 
ATOM     27  O   UNL     1       7.058   4.106  12.799  0.00  0.00    +0.000 OA
BRANCH  26  29
ATOM     28  C   UNL     1       5.121   2.647  11.614  0.00  0.00    +0.000 C 
ATOM     29  O   UNL     1       4.821   3.639  12.596  0.00  0.00    +0.000 OA
ENDBRANCH  26  29
ENDBRANCH  20  26
ENDBRANCH  19  23
ENDBRANCH   1  19
TORSDOF 6
ENDMDL
MODEL 9
REMARK VINA RESULT:      -7.1      1.284      1.879
REMARK  Name = 
REMARK  9 active torsions:
REMARK  status: ('A' for Active; 'I' for Inactive)
REMARK    1  A    between atoms: C_1  and  O_2
REMARK    2  A    between atoms: O_2  and  C_3
REMARK    3  A    between atoms: C_3  and  C_5
REMARK    4  A    between atoms: C_8  and  O_9
REMARK    5  A    between atoms: O_9  and  C_10
REMARK    6  A    between atoms: C_11  and  C_12
REMARK    7  A    between atoms: C_15  and  S_16
REMARK    8  A    between atoms: S_16  and  C_17
REMARK    9  A    between atoms: C_23  and  C_24
REMARK                            x       y       z     vdW  Elec       q    Type
REMARK                         _______ _______ _______ _____ _____    ______ ____
ROOT
ATOM      1  C   UNL     1       3.803   5.073  19.472  0.00  0.00    +0.000 A 
ATOM      2  C   UNL     1       2.648   5.492  20.020  0.00  0.00    +0.000 A 
ATOM      3  O   UNL     1       1.847   4.701  20.834  0.00  0.00    +0.000 OA
ATOM      4  C   UNL     1       2.186   3.376  21.031  0.00  0.00    +0.000 A 
ATOM      5  C   UNL     1       1.194   2.567  21.803  0.00  0.00    +0.000 C 
ATOM      6  C   UNL     1       3.335   2.850  20.592  0.00  0.00    +0.000 A 
ATOM      7  C   UNL     1       4.290   3.714  19.883  0.00  0.00    +0.000 A 
ATOM      8  O   UNL     1       5.419   3.295  19.659  0.00  0.00    +0.000 OA
ENDROOT
BRANCH   2   9
ATOM      9  C   UNL     1       2.096   6.840  19.829  0.00  0.00    +0.000 A 
ATOM     10  C   UNL     1       1.502   7.538  20.890  0.00  0.00    +0.000 A 
ATOM     11  C   UNL     1       1.073   8.858  20.716  0.00  0.00    +0.000 A 
ATOM     12  C   UNL     1       1.250   9.487  19.482  0.00  0.00    +0.000 A 
ATOM     13  C   UNL     1       1.804   8.792  18.404  0.00  0.00    +0.000 A 
ATOM     14  C   UNL     1       2.232   7.473  18.583  0.00  0.00    +0.000 A 
BRANCH  12  15
ATOM     15  S   UNL     1       0.756  11.180  19.270  0.00  0.00    +0.000 S 
ATOM     16  C   UNL     1      -0.791  11.050  18.410  0.00  0.00    +0.000 C 
ATOM     17  O   UNL     1       0.495  11.727  20.588  0.00  0.00    +0.000 OA
ATOM     18  O   UNL     1       1.717  11.811  18.385  0.00  0.00    +0.000 OA
ENDBRANCH  12  15
ENDBRANCH   2   9
BRANCH   1  19
ATOM     19  O   UNL     1       4.552   5.869  18.599  0.00  0.00    +0.000 OA
BRANCH  19  23
ATOM     20  C   UNL     1       5.369   4.547  14.716  0.00  0.00    +0.000 A 
ATOM     21  C   UNL     1       4.828   3.654  15.649  0.00  0.00    +0.000 A 
ATOM     22  C   UNL     1       4.498   4.089  16.932  0.00  0.00    +0.000 A 
ATOM     23  C   UNL     1       4.768   5.406  17.319  0.00  0.00    +0.000 A 
ATOM     24  C   UNL     1       5.273   6.312  16.385  0.00  0.00    +0.000 A 
ATOM     25  C   UNL     1       5.573   5.885  15.083  0.00  0.00    +0.000 A 
BRANCH  20  26
ATOM     26  C   UNL     1       5.688   4.010  13.365  0.00  0.00    +0.000 C 
ATOM     27  O   UNL     1       4.835   3.629  12.580  0.00  0.00    +0.000 OA
BRANCH  26  29
ATOM     28  C   UNL     1       7.373   4.511  11.840  0.00  0.00    +0.000 C 
ATOM     29  O   UNL     1       7.025   4.024  13.138  0.00  0.00    +0.000 OA
ENDBRANCH  26  29
ENDBRANCH  20  26
ENDBRANCH  19  23
ENDBRANCH   1  19
TORSDOF 6
ENDMDL
