MODEL 1
REMARK VINA RESULT:      -7.8      0.000      0.000
REMARK  Name = 
REMARK  4 active torsions:
REMARK  status: ('A' for Active; 'I' for Inactive)
REMARK    1  A    between atoms: C_1  and  C_2
REMARK    2  A    between atoms: C_7  and  S_8
REMARK    3  A    between atoms: S_8  and  C_11
REMARK    4  A    between atoms: C_14  and  C_15
REMARK                            x       y       z     vdW  Elec       q    Type
REMARK                         _______ _______ _______ _____ _____    ______ ____
ROOT
ATOM      1  C   UNL     1       7.063   3.883  11.882  0.00  0.00    +0.000 C 
ATOM      2  C   UNL     1       6.150   3.912  13.081  0.00  0.00    +0.000 C 
ATOM      3  O   UNL     1       4.972   3.587  12.985  0.00  0.00    +0.000 OA
ATOM      4  N   UNL     1       6.805   4.322  14.220  0.00  0.00    +0.000 N 
ATOM      5  C   UNL     1       6.201   4.309  15.446  0.00  0.00    +0.000 A 
ATOM      6  N   UNL     1       5.033   3.831  15.782  0.00  0.00    +0.000 NA
ATOM      7  C   UNL     1       4.825   4.010  17.155  0.00  0.00    +0.000 A 
ATOM      8  C   UNL     1       5.859   4.656  17.793  0.00  0.00    +0.000 A 
ATOM      9 CL   UNL     1       6.053   5.144  19.426  0.00  0.00    +0.000 Cl
ATOM     10  S   UNL     1       7.130   4.986  16.704  0.00  0.00    +0.000 S 
ATOM     11  H   UNL     1       7.749   4.677  14.176  0.00  0.00    +0.000 HD
ENDROOT
BRANCH   7  12
ATOM     12  S   UNL     1       3.338   3.487  17.899  0.00  0.00    +0.000 S 
ATOM     13  O   UNL     1       2.451   3.169  16.796  0.00  0.00    +0.000 OA
ATOM     14  O   UNL     1       3.735   2.496  18.878  0.00  0.00    +0.000 OA
BRANCH  12  15
ATOM     15  C   UNL     1       2.669   4.897  18.742  0.00  0.00    +0.000 A 
ATOM     16  C   UNL     1       2.760   6.158  18.147  0.00  0.00    +0.000 A 
ATOM     17  C   UNL     1       2.342   7.288  18.852  0.00  0.00    +0.000 A 
ATOM     18  C   UNL     1       1.833   7.164  20.150  0.00  0.00    +0.000 A 
ATOM     19  C   UNL     1       1.478   8.380  20.955  0.00  0.00    +0.000 C 
ATOM     20  C   UNL     1       1.678   5.886  20.707  0.00  0.00    +0.000 A 
ATOM     21  C   UNL     1       2.089   4.751  20.004  0.00  0.00    +0.000 A 
ENDBRANCH  12  15
ENDBRANCH   7  12
TORSDOF 2
ENDMDL
MODEL 2
REMARK VINA RESULT:      -7.7      0.291      1.120
REMARK  Name = 
REMARK  4 active torsions:
REMARK  status: ('A' for Active; 'I' for Inactive)
REMARK    1  A    between atoms: C_1  and  C_2
REMARK    2  A    between atoms: C_7  and  S_8
REMARK    3  A    between atoms: S_8  and  C_11
REMARK    4  A    between atoms: C_14  and  C_15
REMARK                            x       y       z     vdW  Elec       q    Type
REMARK                         _______ _______ _______ _____ _____    ______ ____
ROOT
ATOM      1  C   UNL     1       6.905   3.621  11.872  0.00  0.00    +0.000 C 
ATOM      2  C   UNL     1       6.024   3.768  13.087  0.00  0.00    +0.000 C 
ATOM      3  O   UNL     1       4.814   3.591  13.013  0.00  0.00    +0.000 OA
ATOM      4  N   UNL     1       6.745   4.099  14.211  0.00  0.00    +0.000 N 
ATOM      5  C   UNL     1       6.166   4.166  15.448  0.00  0.00    +0.000 A 
ATOM      6  N   UNL     1       4.954   3.838  15.807  0.00  0.00    +0.000 NA
ATOM      7  C   UNL     1       4.794   4.047  17.182  0.00  0.00    +0.000 A 
ATOM      8  C   UNL     1       5.912   4.562  17.798  0.00  0.00    +0.000 A 
ATOM      9 CL   UNL     1       6.193   5.029  19.424  0.00  0.00    +0.000 Cl
ATOM     10  S   UNL     1       7.195   4.728  16.685  0.00  0.00    +0.000 S 
ATOM     11  H   UNL     1       7.725   4.333  14.149  0.00  0.00    +0.000 HD
ENDROOT
BRANCH   7  12
ATOM     12  S   UNL     1       3.268   3.716  17.955  0.00  0.00    +0.000 S 
ATOM     13  O   UNL     1       2.331   3.496  16.869  0.00  0.00    +0.000 OA
ATOM     14  O   UNL     1       3.558   2.694  18.940  0.00  0.00    +0.000 OA
BRANCH  12  15
ATOM     15  C   UNL     1       2.787   5.205  18.790  0.00  0.00    +0.000 A 
ATOM     16  C   UNL     1       2.276   5.127  20.089  0.00  0.00    +0.000 A 
ATOM     17  C   UNL     1       1.787   6.278  20.710  0.00  0.00    +0.000 A 
ATOM     18  C   UNL     1       1.807   7.506  20.039  0.00  0.00    +0.000 A 
ATOM     19  C   UNL     1       1.189   8.727  20.656  0.00  0.00    +0.000 C 
ATOM     20  C   UNL     1       2.389   7.584  18.766  0.00  0.00    +0.000 A 
ATOM     21  C   UNL     1       2.886   6.437  18.142  0.00  0.00    +0.000 A 
ENDBRANCH  12  15
ENDBRANCH   7  12
TORSDOF 2
ENDMDL
MODEL 3
REMARK VINA RESULT:      -7.3      2.822      5.931
REMARK  Name = 
REMARK  4 active torsions:
REMARK  status: ('A' for Active; 'I' for Inactive)
REMARK    1  A    between atoms: C_1  and  C_2
REMARK    2  A    between atoms: C_7  and  S_8
REMARK    3  A    between atoms: S_8  and  C_11
REMARK    4  A    between atoms: C_14  and  C_15
REMARK                            x       y       z     vdW  Elec       q    Type
REMARK                         _______ _______ _______ _____ _____    ______ ____
ROOT
ATOM      1  C   UNL     1       2.037   9.955  18.039  0.00  0.00    +0.000 C 
ATOM      2  C   UNL     1       2.435   8.501  18.056  0.00  0.00    +0.000 C 
ATOM      3  O   UNL     1       3.069   8.011  17.129  0.00  0.00    +0.000 OA
ATOM      4  N   UNL     1       2.014   7.862  19.199  0.00  0.00    +0.000 N 
ATOM      5  C   UNL     1       2.366   6.572  19.479  0.00  0.00    +0.000 A 
ATOM      6  N   UNL     1       3.201   5.792  18.845  0.00  0.00    +0.000 NA
ATOM      7  C   UNL     1       3.278   4.554  19.494  0.00  0.00    +0.000 A 
ATOM      8  C   UNL     1       2.456   4.451  20.593  0.00  0.00    +0.000 A 
ATOM      9 CL   UNL     1       2.160   3.147  21.667  0.00  0.00    +0.000 Cl
ATOM     10  S   UNL     1       1.629   5.918  20.870  0.00  0.00    +0.000 S 
ATOM     11  H   UNL     1       1.400   8.324  19.855  0.00  0.00    +0.000 HD
ENDROOT
BRANCH   7  12
ATOM     12  S   UNL     1       4.302   3.290  18.868  0.00  0.00    +0.000 S 
ATOM     13  O   UNL     1       5.273   3.032  19.916  0.00  0.00    +0.000 OA
ATOM     14  O   UNL     1       3.393   2.268  18.394  0.00  0.00    +0.000 OA
BRANCH  12  15
ATOM     15  C   UNL     1       5.172   3.980  17.485  0.00  0.00    +0.000 A 
ATOM     16  C   UNL     1       4.568   3.971  16.223  0.00  0.00    +0.000 A 
ATOM     17  C   UNL     1       5.288   4.404  15.109  0.00  0.00    +0.000 A 
ATOM     18  C   UNL     1       6.610   4.846  15.248  0.00  0.00    +0.000 A 
ATOM     19  C   UNL     1       7.426   5.214  14.044  0.00  0.00    +0.000 C 
ATOM     20  C   UNL     1       7.177   4.919  16.528  0.00  0.00    +0.000 A 
ATOM     21  C   UNL     1       6.459   4.493  17.649  0.00  0.00    +0.000 A 
ENDBRANCH  12  15
ENDBRANCH   7  12
TORSDOF 2
ENDMDL
MODEL 4
REMARK VINA RESULT:      -6.9      3.011      6.739
REMARK  Name = 
REMARK  4 active torsions:
REMARK  status: ('A' for Active; 'I' for Inactive)
REMARK    1  A    between atoms: C_1  and  C_2
REMARK    2  A    between atoms: C_7  and  S_8
REMARK    3  A    between atoms: S_8  and  C_11
REMARK    4  A    between atoms: C_14  and  C_15
REMARK                            x       y       z     vdW  Elec       q    Type
REMARK                         _______ _______ _______ _____ _____    ______ ____
ROOT
ATOM      1  C   UNL     1       1.323   2.323  21.932  0.00  0.00    +0.000 C 
ATOM      2  C   UNL     1       2.483   2.985  21.235  0.00  0.00    +0.000 C 
ATOM      3  O   UNL     1       3.620   2.539  21.341  0.00  0.00    +0.000 OA
ATOM      4  N   UNL     1       2.091   4.081  20.503  0.00  0.00    +0.000 N 
ATOM      5  C   UNL     1       2.958   4.762  19.696  0.00  0.00    +0.000 A 
ATOM      6  N   UNL     1       4.191   4.466  19.380  0.00  0.00    +0.000 NA
ATOM      7  C   UNL     1       4.700   5.431  18.502  0.00  0.00    +0.000 A 
ATOM      8  C   UNL     1       3.814   6.445  18.218  0.00  0.00    +0.000 A 
ATOM      9 CL   UNL     1       3.979   7.856  17.258  0.00  0.00    +0.000 Cl
ATOM     10  S   UNL     1       2.315   6.172  18.986  0.00  0.00    +0.000 S 
ATOM     11  H   UNL     1       1.148   4.437  20.567  0.00  0.00    +0.000 HD
ENDROOT
BRANCH   7  12
ATOM     12  S   UNL     1       6.337   5.317  17.916  0.00  0.00    +0.000 S 
ATOM     13  O   UNL     1       6.864   6.667  17.990  0.00  0.00    +0.000 OA
ATOM     14  O   UNL     1       6.927   4.220  18.657  0.00  0.00    +0.000 OA
BRANCH  12  15
ATOM     15  C   UNL     1       6.234   4.869  16.203  0.00  0.00    +0.000 A 
ATOM     16  C   UNL     1       5.146   4.113  15.757  0.00  0.00    +0.000 A 
ATOM     17  C   UNL     1       5.114   3.657  14.439  0.00  0.00    +0.000 A 
ATOM     18  C   UNL     1       6.164   3.955  13.562  0.00  0.00    +0.000 A 
ATOM     19  C   UNL     1       6.191   3.383  12.174  0.00  0.00    +0.000 C 
ATOM     20  C   UNL     1       7.212   4.776  14.001  0.00  0.00    +0.000 A 
ATOM     21  C   UNL     1       7.247   5.240  15.318  0.00  0.00    +0.000 A 
ENDBRANCH  12  15
ENDBRANCH   7  12
TORSDOF 2
ENDMDL
MODEL 5
REMARK VINA RESULT:      -6.9      2.935      6.150
REMARK  Name = 
REMARK  4 active torsions:
REMARK  status: ('A' for Active; 'I' for Inactive)
REMARK    1  A    between atoms: C_1  and  C_2
REMARK    2  A    between atoms: C_7  and  S_8
REMARK    3  A    between atoms: S_8  and  C_11
REMARK    4  A    between atoms: C_14  and  C_15
REMARK                            x       y       z     vdW  Elec       q    Type
REMARK                         _______ _______ _______ _____ _____    ______ ____
ROOT
ATOM      1  C   UNL     1       1.471  10.022  18.006  0.00  0.00    +0.000 C 
ATOM      2  C   UNL     1       2.294   8.762  18.087  0.00  0.00    +0.000 C 
ATOM      3  O   UNL     1       3.280   8.606  17.376  0.00  0.00    +0.000 OA
ATOM      4  N   UNL     1       1.804   7.883  19.026  0.00  0.00    +0.000 N 
ATOM      5  C   UNL     1       2.461   6.730  19.350  0.00  0.00    +0.000 A 
ATOM      6  N   UNL     1       3.642   6.321  18.968  0.00  0.00    +0.000 NA
ATOM      7  C   UNL     1       3.932   5.088  19.564  0.00  0.00    +0.000 A 
ATOM      8  C   UNL     1       2.919   4.604  20.359  0.00  0.00    +0.000 A 
ATOM      9 CL   UNL     1       2.775   3.143  21.245  0.00  0.00    +0.000 Cl
ATOM     10  S   UNL     1       1.622   5.711  20.429  0.00  0.00    +0.000 S 
ATOM     11  H   UNL     1       0.920   8.053  19.483  0.00  0.00    +0.000 HD
ENDROOT
BRANCH   7  12
ATOM     12  S   UNL     1       5.437   4.277  19.228  0.00  0.00    +0.000 S 
ATOM     13  O   UNL     1       6.459   5.098  19.851  0.00  0.00    +0.000 OA
ATOM     14  O   UNL     1       5.217   2.898  19.615  0.00  0.00    +0.000 OA
BRANCH  12  15
ATOM     15  C   UNL     1       5.676   4.354  17.473  0.00  0.00    +0.000 A 
ATOM     16  C   UNL     1       4.636   3.969  16.622  0.00  0.00    +0.000 A 
ATOM     17  C   UNL     1       4.853   3.916  15.244  0.00  0.00    +0.000 A 
ATOM     18  C   UNL     1       6.105   4.246  14.712  0.00  0.00    +0.000 A 
ATOM     19  C   UNL     1       6.379   4.092  13.244  0.00  0.00    +0.000 C 
ATOM     20  C   UNL     1       7.116   4.701  15.569  0.00  0.00    +0.000 A 
ATOM     21  C   UNL     1       6.904   4.763  16.948  0.00  0.00    +0.000 A 
ENDBRANCH  12  15
ENDBRANCH   7  12
TORSDOF 2
ENDMDL
MODEL 6
REMARK VINA RESULT:      -6.8      3.037      6.672
REMARK  Name = 
REMARK  4 active torsions:
REMARK  status: ('A' for Active; 'I' for Inactive)
REMARK    1  A    between atoms: C_1  and  C_2
REMARK    2  A    between atoms: C_7  and  S_8
REMARK    3  A    between atoms: S_8  and  C_11
REMARK    4  A    between atoms: C_14  and  C_15
REMARK                            x       y       z     vdW  Elec       q    Type
REMARK                         _______ _______ _______ _____ _____    ______ ____
ROOT
ATOM      1  C   UNL     1       1.435   2.202  21.946  0.00  0.00    +0.000 C 
ATOM      2  C   UNL     1       2.570   2.918  21.259  0.00  0.00    +0.000 C 
ATOM      3  O   UNL     1       3.729   2.546  21.403  0.00  0.00    +0.000 OA
ATOM      4  N   UNL     1       2.129   3.971  20.492  0.00  0.00    +0.000 N 
ATOM      5  C   UNL     1       2.973   4.685  19.689  0.00  0.00    +0.000 A 
ATOM      6  N   UNL     1       4.229   4.459  19.409  0.00  0.00    +0.000 NA
ATOM      7  C   UNL     1       4.700   5.433  18.520  0.00  0.00    +0.000 A 
ATOM      8  C   UNL     1       3.761   6.383  18.191  0.00  0.00    +0.000 A 
ATOM      9 CL   UNL     1       3.863   7.779  17.200  0.00  0.00    +0.000 Cl
ATOM     10  S   UNL     1       2.262   6.036  18.930  0.00  0.00    +0.000 S 
ATOM     11  H   UNL     1       1.165   4.269  20.526  0.00  0.00    +0.000 HD
ENDROOT
BRANCH   7  12
ATOM     12  S   UNL     1       6.355   5.407  17.975  0.00  0.00    +0.000 S 
ATOM     13  O   UNL     1       6.753   6.800  17.898  0.00  0.00    +0.000 OA
ATOM     14  O   UNL     1       7.023   4.462  18.846  0.00  0.00    +0.000 OA
BRANCH  12  15
ATOM     15  C   UNL     1       6.336   4.758  16.324  0.00  0.00    +0.000 A 
ATOM     16  C   UNL     1       7.336   5.143  15.426  0.00  0.00    +0.000 A 
ATOM     17  C   UNL     1       7.265   4.732  14.094  0.00  0.00    +0.000 A 
ATOM     18  C   UNL     1       6.199   3.937  13.655  0.00  0.00    +0.000 A 
ATOM     19  C   UNL     1       6.058   3.577  12.205  0.00  0.00    +0.000 C 
ATOM     20  C   UNL     1       5.244   3.498  14.582  0.00  0.00    +0.000 A 
ATOM     21  C   UNL     1       5.312   3.901  15.918  0.00  0.00    +0.000 A 
ENDBRANCH  12  15
ENDBRANCH   7  12
TORSDOF 2
ENDMDL
MODEL 7
REMARK VINA RESULT:      -6.7      2.935      6.492
REMARK  Name = 
REMARK  4 active torsions:
REMARK  status: ('A' for Active; 'I' for Inactive)
REMARK    1  A    between atoms: C_1  and  C_2
REMARK    2  A    between atoms: C_7  and  S_8
REMARK    3  A    between atoms: S_8  and  C_11
REMARK    4  A    between atoms: C_14  and  C_15
REMARK                            x       y       z     vdW  Elec       q    Type
REMARK                         _______ _______ _______ _____ _____    ______ ____
ROOT
ATOM      1  C   UNL     1       0.748   9.628  18.531  0.00  0.00    +0.000 C 
ATOM      2  C   UNL     1       1.923   8.743  18.201  0.00  0.00    +0.000 C 
ATOM      3  O   UNL     1       2.775   9.101  17.395  0.00  0.00    +0.000 OA
ATOM      4  N   UNL     1       1.896   7.561  18.904  0.00  0.00    +0.000 N 
ATOM      5  C   UNL     1       2.923   6.662  18.850  0.00  0.00    +0.000 A 
ATOM      6  N   UNL     1       4.090   6.782  18.275  0.00  0.00    +0.000 NA
ATOM      7  C   UNL     1       4.845   5.622  18.489  0.00  0.00    +0.000 A 
ATOM      8  C   UNL     1       4.181   4.652  19.205  0.00  0.00    +0.000 A 
ATOM      9 CL   UNL     1       4.649   3.070  19.672  0.00  0.00    +0.000 Cl
ATOM     10  S   UNL     1       2.636   5.200  19.678  0.00  0.00    +0.000 S 
ATOM     11  H   UNL     1       1.092   7.308  19.462  0.00  0.00    +0.000 HD
ENDROOT
BRANCH   7  12
ATOM     12  S   UNL     1       6.449   5.476  17.824  0.00  0.00    +0.000 S 
ATOM     13  O   UNL     1       6.980   6.826  17.810  0.00  0.00    +0.000 OA
ATOM     14  O   UNL     1       7.075   4.411  18.581  0.00  0.00    +0.000 OA
BRANCH  12  15
ATOM     15  C   UNL     1       6.256   4.953  16.140  0.00  0.00    +0.000 A 
ATOM     16  C   UNL     1       5.110   4.241  15.771  0.00  0.00    +0.000 A 
ATOM     17  C   UNL     1       5.003   3.725  14.479  0.00  0.00    +0.000 A 
ATOM     18  C   UNL     1       6.035   3.918  13.552  0.00  0.00    +0.000 A 
ATOM     19  C   UNL     1       5.976   3.280  12.195  0.00  0.00    +0.000 C 
ATOM     20  C   UNL     1       7.143   4.697  13.912  0.00  0.00    +0.000 A 
ATOM     21  C   UNL     1       7.254   5.221  15.202  0.00  0.00    +0.000 A 
ENDBRANCH  12  15
ENDBRANCH   7  12
TORSDOF 2
ENDMDL
MODEL 8
REMARK VINA RESULT:      -6.7      3.074      6.533
REMARK  Name = 
REMARK  4 active torsions:
REMARK  status: ('A' for Active; 'I' for Inactive)
REMARK    1  A    between atoms: C_1  and  C_2
REMARK    2  A    between atoms: C_7  and  S_8
REMARK    3  A    between atoms: S_8  and  C_11
REMARK    4  A    between atoms: C_14  and  C_15
REMARK                            x       y       z     vdW  Elec       q    Type
REMARK                         _______ _______ _______ _____ _____    ______ ____
ROOT
ATOM      1  C   UNL     1       0.528   9.767  18.364  0.00  0.00    +0.000 C 
ATOM      2  C   UNL     1       1.752   8.978  17.976  0.00  0.00    +0.000 C 
ATOM      3  O   UNL     1       2.535   9.402  17.134  0.00  0.00    +0.000 OA
ATOM      4  N   UNL     1       1.850   7.797  18.676  0.00  0.00    +0.000 N 
ATOM      5  C   UNL     1       2.942   6.982  18.571  0.00  0.00    +0.000 A 
ATOM      6  N   UNL     1       4.068   7.193  17.945  0.00  0.00    +0.000 NA
ATOM      7  C   UNL     1       4.921   6.096  18.120  0.00  0.00    +0.000 A 
ATOM      8  C   UNL     1       4.368   5.077  18.861  0.00  0.00    +0.000 A 
ATOM      9 CL   UNL     1       4.980   3.536  19.300  0.00  0.00    +0.000 Cl
ATOM     10  S   UNL     1       2.808   5.502  19.406  0.00  0.00    +0.000 S 
ATOM     11  H   UNL     1       1.095   7.482  19.268  0.00  0.00    +0.000 HD
ENDROOT
BRANCH   7  12
ATOM     12  S   UNL     1       6.499   6.077  17.382  0.00  0.00    +0.000 S 
ATOM     13  O   UNL     1       6.762   7.454  17.007  0.00  0.00    +0.000 OA
ATOM     14  O   UNL     1       7.343   5.360  18.315  0.00  0.00    +0.000 OA
BRANCH  12  15
ATOM     15  C   UNL     1       6.351   5.130  15.890  0.00  0.00    +0.000 A 
ATOM     16  C   UNL     1       7.327   5.259  14.897  0.00  0.00    +0.000 A 
ATOM     17  C   UNL     1       7.160   4.609  13.673  0.00  0.00    +0.000 A 
ATOM     18  C   UNL     1       6.022   3.828  13.437  0.00  0.00    +0.000 A 
ATOM     19  C   UNL     1       5.781   3.210  12.090  0.00  0.00    +0.000 C 
ATOM     20  C   UNL     1       5.088   3.647  14.467  0.00  0.00    +0.000 A 
ATOM     21  C   UNL     1       5.253   4.291  15.696  0.00  0.00    +0.000 A 
ENDBRANCH  12  15
ENDBRANCH   7  12
TORSDOF 2
ENDMDL
MODEL 9
REMARK VINA RESULT:      -6.6      2.902      5.824
REMARK  Name = 
REMARK  4 active torsions:
REMARK  status: ('A' for Active; 'I' for Inactive)
REMARK    1  A    between atoms: C_1  and  C_2
REMARK    2  A    between atoms: C_7  and  S_8
REMARK    3  A    between atoms: S_8  and  C_11
REMARK    4  A    between atoms: C_14  and  C_15
REMARK                            x       y       z     vdW  Elec       q    Type
REMARK                         _______ _______ _______ _____ _____    ______ ____
ROOT
ATOM      1  C   UNL     1       2.204   9.871  17.844  0.00  0.00    +0.000 C 
ATOM      2  C   UNL     1       2.521   8.399  17.926  0.00  0.00    +0.000 C 
ATOM      3  O   UNL     1       3.102   7.828  17.011  0.00  0.00    +0.000 OA
ATOM      4  N   UNL     1       2.096   7.843  19.111  0.00  0.00    +0.000 N 
ATOM      5  C   UNL     1       2.385   6.551  19.448  0.00  0.00    +0.000 A 
ATOM      6  N   UNL     1       3.158   5.694  18.836  0.00  0.00    +0.000 NA
ATOM      7  C   UNL     1       3.184   4.488  19.546  0.00  0.00    +0.000 A 
ATOM      8  C   UNL     1       2.387   4.487  20.668  0.00  0.00    +0.000 A 
ATOM      9 CL   UNL     1       2.049   3.258  21.814  0.00  0.00    +0.000 Cl
ATOM     10  S   UNL     1       1.650   6.010  20.888  0.00  0.00    +0.000 S 
ATOM     11  H   UNL     1       1.526   8.371  19.756  0.00  0.00    +0.000 HD
ENDROOT
BRANCH   7  12
ATOM     12  S   UNL     1       4.121   3.139  18.962  0.00  0.00    +0.000 S 
ATOM     13  O   UNL     1       5.028   2.808  20.045  0.00  0.00    +0.000 OA
ATOM     14  O   UNL     1       3.146   2.193  18.459  0.00  0.00    +0.000 OA
BRANCH  12  15
ATOM     15  C   UNL     1       5.093   3.744  17.608  0.00  0.00    +0.000 A 
ATOM     16  C   UNL     1       6.333   4.336  17.865  0.00  0.00    +0.000 A 
ATOM     17  C   UNL     1       7.052   4.919  16.820  0.00  0.00    +0.000 A 
ATOM     18  C   UNL     1       6.537   4.913  15.518  0.00  0.00    +0.000 A 
ATOM     19  C   UNL     1       7.252   5.627  14.408  0.00  0.00    +0.000 C 
ATOM     20  C   UNL     1       5.328   4.251  15.261  0.00  0.00    +0.000 A 
ATOM     21  C   UNL     1       4.607   3.660  16.301  0.00  0.00    +0.000 A 
ENDBRANCH  12  15
ENDBRANCH   7  12
TORSDOF 2
ENDMDL
