MODEL 1
REMARK VINA RESULT:      -7.7      0.000      0.000
REMARK  Name = 
REMARK  9 active torsions:
REMARK  status: ('A' for Active; 'I' for Inactive)
REMARK    1  A    between atoms: C_1  and  N_2
REMARK    2  A    between atoms: N_2  and  C_3
REMARK    3  A    between atoms: N_2  and  C_11
REMARK    4  A    between atoms: C_3  and  C_4
REMARK    5  A    between atoms: C_11  and  C_12
REMARK    6  A    between atoms: C_12  and  O_13
REMARK    7  A    between atoms: C_12  and  C_14
REMARK    8  A    between atoms: C_12  and  C_20
REMARK    9  A    between atoms: C_14  and  N_15
REMARK                            x       y       z     vdW  Elec       q    Type
REMARK                         _______ _______ _______ _____ _____    ______ ____
ROOT
ATOM      1  C   UNL     1       5.717   4.695  16.741  0.00  0.00    +0.000 C 
ENDROOT
BRANCH   1   2
ATOM      2  C   UNL     1       6.556   5.835  17.369  0.00  0.00    +0.000 A 
ATOM      3  C   UNL     1       6.525   7.158  16.874  0.00  0.00    +0.000 A 
ATOM      4  C   UNL     1       7.333   8.158  17.420  0.00  0.00    +0.000 A 
ATOM      5  C   UNL     1       8.193   7.858  18.464  0.00  0.00    +0.000 A 
ATOM      6  F   UNL     1       8.983   8.815  18.965  0.00  0.00    +0.000 F 
ATOM      7  C   UNL     1       8.241   6.579  18.989  0.00  0.00    +0.000 A 
ATOM      8  C   UNL     1       7.417   5.592  18.457  0.00  0.00    +0.000 A 
ATOM      9  F   UNL     1       7.494   4.374  19.010  0.00  0.00    +0.000 F 
ENDBRANCH   1   2
BRANCH   1  10
ATOM     10  O   UNL     1       6.625   3.578  16.568  0.00  0.00    +0.000 OA
ATOM     11  H   UNL     1       7.428   3.798  17.081  0.00  0.00    +0.000 HD
ENDBRANCH   1  10
BRANCH   1  12
ATOM     12  C   UNL     1       4.597   4.174  17.737  0.00  0.00    +0.000 C 
BRANCH  12  14
ATOM     13  C   UNL     1       3.631   2.038  18.167  0.00  0.00    +0.000 C 
ATOM     14  N   UNL     1       3.517   3.240  17.300  0.00  0.00    +0.000 NA
BRANCH  14  15
ATOM     15  C   UNL     1       2.169   3.818  17.499  0.00  0.00    +0.000 C 
BRANCH  15  16
ATOM     16  C   UNL     1       2.138   4.995  18.449  0.00  0.00    +0.000 A 
ATOM     17  C   UNL     1       2.516   6.259  17.958  0.00  0.00    +0.000 A 
ATOM     18  C   UNL     1       2.490   7.382  18.785  0.00  0.00    +0.000 A 
ATOM     19  C   UNL     1       2.098   7.251  20.113  0.00  0.00    +0.000 A 
ATOM     20  C   UNL     1       1.736   6.003  20.617  0.00  0.00    +0.000 A 
ATOM     21  C   UNL     1       1.756   4.877  19.792  0.00  0.00    +0.000 A 
ATOM     22 CL   UNL     1       1.284   3.371  20.496  0.00  0.00    +0.000 Cl
ENDBRANCH  15  16
ENDBRANCH  14  15
ENDBRANCH  12  14
ENDBRANCH   1  12
BRANCH   1  23
ATOM     23  C   UNL     1       5.230   5.099  15.324  0.00  0.00    +0.000 C 
BRANCH  23  24
ATOM     24  N   UNL     1       6.017   4.660  14.199  0.00  0.00    +0.000 N 
ATOM     25  C   UNL     1       5.651   3.751  13.253  0.00  0.00    +0.000 A 
ATOM     26  N   UNL     1       6.569   3.695  12.317  0.00  0.00    +0.000 NA
ATOM     27  C   UNL     1       7.491   4.607  12.736  0.00  0.00    +0.000 A 
ATOM     28  N   UNL     1       7.193   5.225  13.881  0.00  0.00    +0.000 NA
ENDBRANCH  23  24
ENDBRANCH   1  23
TORSDOF 8
ENDMDL
MODEL 2
REMARK VINA RESULT:      -7.5      0.967      1.331
REMARK  Name = 
REMARK  9 active torsions:
REMARK  status: ('A' for Active; 'I' for Inactive)
REMARK    1  A    between atoms: C_1  and  N_2
REMARK    2  A    between atoms: N_2  and  C_3
REMARK    3  A    between atoms: N_2  and  C_11
REMARK    4  A    between atoms: C_3  and  C_4
REMARK    5  A    between atoms: C_11  and  C_12
REMARK    6  A    between atoms: C_12  and  O_13
REMARK    7  A    between atoms: C_12  and  C_14
REMARK    8  A    between atoms: C_12  and  C_20
REMARK    9  A    between atoms: C_14  and  N_15
REMARK                            x       y       z     vdW  Elec       q    Type
REMARK                         _______ _______ _______ _____ _____    ______ ____
ROOT
ATOM      1  C   UNL     1       5.438   4.351  16.642  0.00  0.00    +0.000 C 
ENDROOT
BRANCH   1   2
ATOM      2  C   UNL     1       6.376   5.437  17.226  0.00  0.00    +0.000 A 
ATOM      3  C   UNL     1       7.416   5.130  18.132  0.00  0.00    +0.000 A 
ATOM      4  C   UNL     1       8.214   6.131  18.690  0.00  0.00    +0.000 A 
ATOM      5  C   UNL     1       7.986   7.457  18.362  0.00  0.00    +0.000 A 
ATOM      6  F   UNL     1       8.738   8.414  18.920  0.00  0.00    +0.000 F 
ATOM      7  C   UNL     1       6.990   7.799  17.467  0.00  0.00    +0.000 A 
ATOM      8  C   UNL     1       6.212   6.796  16.896  0.00  0.00    +0.000 A 
ATOM      9  F   UNL     1       5.269   7.179  16.025  0.00  0.00    +0.000 F 
ENDBRANCH   1   2
BRANCH   1  10
ATOM     10  O   UNL     1       6.249   3.157  16.502  0.00  0.00    +0.000 OA
ATOM     11  H   UNL     1       5.784   2.452  16.995  0.00  0.00    +0.000 HD
ENDBRANCH   1  10
BRANCH   1  12
ATOM     12  C   UNL     1       4.288   3.960  17.661  0.00  0.00    +0.000 C 
BRANCH  12  14
ATOM     13  C   UNL     1       3.265   1.841  18.049  0.00  0.00    +0.000 C 
ATOM     14  N   UNL     1       3.135   3.097  17.265  0.00  0.00    +0.000 NA
BRANCH  14  15
ATOM     15  C   UNL     1       1.835   3.715  17.611  0.00  0.00    +0.000 C 
BRANCH  15  16
ATOM     16  C   UNL     1       1.950   4.936  18.497  0.00  0.00    +0.000 A 
ATOM     17  C   UNL     1       2.372   6.146  17.914  0.00  0.00    +0.000 A 
ATOM     18  C   UNL     1       2.481   7.308  18.681  0.00  0.00    +0.000 A 
ATOM     19  C   UNL     1       2.179   7.268  20.038  0.00  0.00    +0.000 A 
ATOM     20  C   UNL     1       1.775   6.073  20.632  0.00  0.00    +0.000 A 
ATOM     21  C   UNL     1       1.661   4.910  19.868  0.00  0.00    +0.000 A 
ATOM     22 CL   UNL     1       1.145   3.476  20.682  0.00  0.00    +0.000 Cl
ENDBRANCH  15  16
ENDBRANCH  14  15
ENDBRANCH  12  14
ENDBRANCH   1  12
BRANCH   1  23
ATOM     23  C   UNL     1       4.975   4.747  15.215  0.00  0.00    +0.000 C 
BRANCH  23  24
ATOM     24  N   UNL     1       5.864   4.451  14.120  0.00  0.00    +0.000 N 
ATOM     25  C   UNL     1       5.605   3.642  13.055  0.00  0.00    +0.000 A 
ATOM     26  N   UNL     1       6.597   3.708  12.199  0.00  0.00    +0.000 NA
ATOM     27  C   UNL     1       7.453   4.590  12.789  0.00  0.00    +0.000 A 
ATOM     28  N   UNL     1       7.044   5.073  13.963  0.00  0.00    +0.000 NA
ENDBRANCH  23  24
ENDBRANCH   1  23
TORSDOF 8
ENDMDL
MODEL 3
REMARK VINA RESULT:      -7.4      3.321      5.145
REMARK  Name = 
REMARK  9 active torsions:
REMARK  status: ('A' for Active; 'I' for Inactive)
REMARK    1  A    between atoms: C_1  and  N_2
REMARK    2  A    between atoms: N_2  and  C_3
REMARK    3  A    between atoms: N_2  and  C_11
REMARK    4  A    between atoms: C_3  and  C_4
REMARK    5  A    between atoms: C_11  and  C_12
REMARK    6  A    between atoms: C_12  and  O_13
REMARK    7  A    between atoms: C_12  and  C_14
REMARK    8  A    between atoms: C_12  and  C_20
REMARK    9  A    between atoms: C_14  and  N_15
REMARK                            x       y       z     vdW  Elec       q    Type
REMARK                         _______ _______ _______ _____ _____    ______ ____
ROOT
ATOM      1  C   UNL     1       3.527   4.011  17.483  0.00  0.00    +0.000 C 
ENDROOT
BRANCH   1   2
ATOM      2  C   UNL     1       2.850   3.653  18.829  0.00  0.00    +0.000 A 
ATOM      3  C   UNL     1       3.584   3.200  19.948  0.00  0.00    +0.000 A 
ATOM      4  C   UNL     1       2.948   2.829  21.135  0.00  0.00    +0.000 A 
ATOM      5  C   UNL     1       1.567   2.895  21.226  0.00  0.00    +0.000 A 
ATOM      6  F   UNL     1       0.961   2.513  22.357  0.00  0.00    +0.000 F 
ATOM      7  C   UNL     1       0.812   3.348  20.160  0.00  0.00    +0.000 A 
ATOM      8  C   UNL     1       1.453   3.739  18.988  0.00  0.00    +0.000 A 
ATOM      9  F   UNL     1       0.677   4.183  17.990  0.00  0.00    +0.000 F 
ENDBRANCH   1   2
BRANCH   1  10
ATOM     10  O   UNL     1       2.801   3.279  16.463  0.00  0.00    +0.000 OA
ATOM     11  H   UNL     1       3.174   2.375  16.460  0.00  0.00    +0.000 HD
ENDBRANCH   1  10
BRANCH   1  12
ATOM     12  C   UNL     1       3.333   5.542  17.118  0.00  0.00    +0.000 C 
BRANCH  12  14
ATOM     13  C   UNL     1       5.039   7.089  17.737  0.00  0.00    +0.000 C 
ATOM     14  N   UNL     1       3.664   6.637  18.079  0.00  0.00    +0.000 NA
BRANCH  14  15
ATOM     15  C   UNL     1       2.756   7.796  17.934  0.00  0.00    +0.000 C 
BRANCH  15  16
ATOM     16  C   UNL     1       1.960   8.115  19.181  0.00  0.00    +0.000 A 
ATOM     17  C   UNL     1       1.864   7.130  20.181  0.00  0.00    +0.000 A 
ATOM     18  C   UNL     1       1.157   7.375  21.359  0.00  0.00    +0.000 A 
ATOM     19  C   UNL     1       0.530   8.603  21.542  0.00  0.00    +0.000 A 
ATOM     20  C   UNL     1       0.603   9.583  20.554  0.00  0.00    +0.000 A 
ATOM     21  C   UNL     1       1.313   9.343  19.376  0.00  0.00    +0.000 A 
ATOM     22 CL   UNL     1       1.361  10.615  18.207  0.00  0.00    +0.000 Cl
ENDBRANCH  15  16
ENDBRANCH  14  15
ENDBRANCH  12  14
ENDBRANCH   1  12
BRANCH   1  23
ATOM     23  C   UNL     1       4.987   3.487  17.456  0.00  0.00    +0.000 C 
BRANCH  23  24
ATOM     24  N   UNL     1       5.868   4.022  16.448  0.00  0.00    +0.000 N 
ATOM     25  C   UNL     1       7.111   4.544  16.645  0.00  0.00    +0.000 A 
ATOM     26  N   UNL     1       7.664   4.817  15.486  0.00  0.00    +0.000 NA
ATOM     27  C   UNL     1       6.708   4.433  14.593  0.00  0.00    +0.000 A 
ATOM     28  N   UNL     1       5.595   3.937  15.135  0.00  0.00    +0.000 NA
ENDBRANCH  23  24
ENDBRANCH   1  23
TORSDOF 8
ENDMDL
MODEL 4
REMARK VINA RESULT:      -7.4      4.009      5.956
REMARK  Name = 
REMARK  9 active torsions:
REMARK  status: ('A' for Active; 'I' for Inactive)
REMARK    1  A    between atoms: C_1  and  N_2
REMARK    2  A    between atoms: N_2  and  C_3
REMARK    3  A    between atoms: N_2  and  C_11
REMARK    4  A    between atoms: C_3  and  C_4
REMARK    5  A    between atoms: C_11  and  C_12
REMARK    6  A    between atoms: C_12  and  O_13
REMARK    7  A    between atoms: C_12  and  C_14
REMARK    8  A    between atoms: C_12  and  C_20
REMARK    9  A    between atoms: C_14  and  N_15
REMARK                            x       y       z     vdW  Elec       q    Type
REMARK                         _______ _______ _______ _____ _____    ______ ____
ROOT
ATOM      1  C   UNL     1       3.296   5.984  18.388  0.00  0.00    +0.000 C 
ENDROOT
BRANCH   1   2
ATOM      2  C   UNL     1       4.337   5.590  17.312  0.00  0.00    +0.000 A 
ATOM      3  C   UNL     1       4.740   6.478  16.289  0.00  0.00    +0.000 A 
ATOM      4  C   UNL     1       5.638   6.084  15.295  0.00  0.00    +0.000 A 
ATOM      5  C   UNL     1       6.146   4.794  15.296  0.00  0.00    +0.000 A 
ATOM      6  F   UNL     1       6.986   4.414  14.325  0.00  0.00    +0.000 F 
ATOM      7  C   UNL     1       5.790   3.899  16.288  0.00  0.00    +0.000 A 
ATOM      8  C   UNL     1       4.912   4.305  17.290  0.00  0.00    +0.000 A 
ATOM      9  F   UNL     1       4.610   3.404  18.234  0.00  0.00    +0.000 F 
ENDBRANCH   1   2
BRANCH   1  10
ATOM     10  O   UNL     1       3.886   5.627  19.664  0.00  0.00    +0.000 OA
ATOM     11  H   UNL     1       4.409   4.816  19.505  0.00  0.00    +0.000 HD
ENDBRANCH   1  10
BRANCH   1  12
ATOM     12  C   UNL     1       3.082   7.554  18.450  0.00  0.00    +0.000 C 
BRANCH  12  14
ATOM     13  C   UNL     1       1.657   8.174  20.258  0.00  0.00    +0.000 C 
ATOM     14  N   UNL     1       1.758   8.164  18.775  0.00  0.00    +0.000 NA
BRANCH  14  15
ATOM     15  C   UNL     1       1.661   9.564  18.305  0.00  0.00    +0.000 C 
BRANCH  15  16
ATOM     16  C   UNL     1       0.279  10.165  18.440  0.00  0.00    +0.000 A 
ATOM     17  C   UNL     1      -0.743   9.683  17.602  0.00  0.00    +0.000 A 
ATOM     18  C   UNL     1      -2.041  10.189  17.694  0.00  0.00    +0.000 A 
ATOM     19  C   UNL     1      -2.325  11.189  18.618  0.00  0.00    +0.000 A 
ATOM     20  C   UNL     1      -1.319  11.687  19.445  0.00  0.00    +0.000 A 
ATOM     21  C   UNL     1      -0.021  11.181  19.358  0.00  0.00    +0.000 A 
ATOM     22 CL   UNL     1       1.162  11.848  20.426  0.00  0.00    +0.000 Cl
ENDBRANCH  15  16
ENDBRANCH  14  15
ENDBRANCH  12  14
ENDBRANCH   1  12
BRANCH   1  23
ATOM     23  C   UNL     1       2.010   5.130  18.236  0.00  0.00    +0.000 C 
BRANCH  23  24
ATOM     24  N   UNL     1       1.701   4.196  19.291  0.00  0.00    +0.000 N 
ATOM     25  C   UNL     1       1.758   2.837  19.220  0.00  0.00    +0.000 A 
ATOM     26  N   UNL     1       1.529   2.323  20.405  0.00  0.00    +0.000 NA
ATOM     27  C   UNL     1       1.340   3.425  21.186  0.00  0.00    +0.000 A 
ATOM     28  N   UNL     1       1.441   4.593  20.548  0.00  0.00    +0.000 NA
ENDBRANCH  23  24
ENDBRANCH   1  23
TORSDOF 8
ENDMDL
MODEL 5
REMARK VINA RESULT:      -7.2      3.714      5.923
REMARK  Name = 
REMARK  9 active torsions:
REMARK  status: ('A' for Active; 'I' for Inactive)
REMARK    1  A    between atoms: C_1  and  N_2
REMARK    2  A    between atoms: N_2  and  C_3
REMARK    3  A    between atoms: N_2  and  C_11
REMARK    4  A    between atoms: C_3  and  C_4
REMARK    5  A    between atoms: C_11  and  C_12
REMARK    6  A    between atoms: C_12  and  O_13
REMARK    7  A    between atoms: C_12  and  C_14
REMARK    8  A    between atoms: C_12  and  C_20
REMARK    9  A    between atoms: C_14  and  N_15
REMARK                            x       y       z     vdW  Elec       q    Type
REMARK                         _______ _______ _______ _____ _____    ______ ____
ROOT
ATOM      1  C   UNL     1       3.339   6.018  18.327  0.00  0.00    +0.000 C 
ENDROOT
BRANCH   1   2
ATOM      2  C   UNL     1       4.462   5.585  17.353  0.00  0.00    +0.000 A 
ATOM      3  C   UNL     1       4.399   4.383  16.612  0.00  0.00    +0.000 A 
ATOM      4  C   UNL     1       5.449   3.985  15.781  0.00  0.00    +0.000 A 
ATOM      5  C   UNL     1       6.584   4.773  15.678  0.00  0.00    +0.000 A 
ATOM      6  F   UNL     1       7.597   4.372  14.900  0.00  0.00    +0.000 F 
ATOM      7  C   UNL     1       6.679   5.964  16.372  0.00  0.00    +0.000 A 
ATOM      8  C   UNL     1       5.620   6.368  17.181  0.00  0.00    +0.000 A 
ATOM      9  F   UNL     1       5.757   7.537  17.822  0.00  0.00    +0.000 F 
ENDBRANCH   1   2
BRANCH   1  10
ATOM     10  O   UNL     1       3.852   5.773  19.661  0.00  0.00    +0.000 OA
ATOM     11  H   UNL     1       3.237   5.136  20.077  0.00  0.00    +0.000 HD
ENDBRANCH   1  10
BRANCH   1  12
ATOM     12  C   UNL     1       3.073   7.580  18.260  0.00  0.00    +0.000 C 
BRANCH  12  14
ATOM     13  C   UNL     1       1.698   8.181  20.112  0.00  0.00    +0.000 C 
ATOM     14  N   UNL     1       1.755   8.178  18.627  0.00  0.00    +0.000 NA
BRANCH  14  15
ATOM     15  C   UNL     1       1.634   9.579  18.166  0.00  0.00    +0.000 C 
BRANCH  15  16
ATOM     16  C   UNL     1       0.259  10.177  18.366  0.00  0.00    +0.000 A 
ATOM     17  C   UNL     1      -0.802   9.689  17.581  0.00  0.00    +0.000 A 
ATOM     18  C   UNL     1      -2.094  10.192  17.735  0.00  0.00    +0.000 A 
ATOM     19  C   UNL     1      -2.336  11.196  18.667  0.00  0.00    +0.000 A 
ATOM     20  C   UNL     1      -1.292  11.700  19.441  0.00  0.00    +0.000 A 
ATOM     21  C   UNL     1       0.002  11.197  19.293  0.00  0.00    +0.000 A 
ATOM     22 CL   UNL     1       1.234  11.872  20.299  0.00  0.00    +0.000 Cl
ENDBRANCH  15  16
ENDBRANCH  14  15
ENDBRANCH  12  14
ENDBRANCH   1  12
BRANCH   1  23
ATOM     23  C   UNL     1       2.093   5.109  18.154  0.00  0.00    +0.000 C 
BRANCH  23  24
ATOM     24  N   UNL     1       1.805   4.166  19.205  0.00  0.00    +0.000 N 
ATOM     25  C   UNL     1       2.032   2.822  19.180  0.00  0.00    +0.000 A 
ATOM     26  N   UNL     1       1.760   2.307  20.356  0.00  0.00    +0.000 NA
ATOM     27  C   UNL     1       1.369   3.392  21.083  0.00  0.00    +0.000 A 
ATOM     28  N   UNL     1       1.385   4.551  20.422  0.00  0.00    +0.000 NA
ENDBRANCH  23  24
ENDBRANCH   1  23
TORSDOF 8
ENDMDL
MODEL 6
REMARK VINA RESULT:      -7.2      1.515      2.129
REMARK  Name = 
REMARK  9 active torsions:
REMARK  status: ('A' for Active; 'I' for Inactive)
REMARK    1  A    between atoms: C_1  and  N_2
REMARK    2  A    between atoms: N_2  and  C_3
REMARK    3  A    between atoms: N_2  and  C_11
REMARK    4  A    between atoms: C_3  and  C_4
REMARK    5  A    between atoms: C_11  and  C_12
REMARK    6  A    between atoms: C_12  and  O_13
REMARK    7  A    between atoms: C_12  and  C_14
REMARK    8  A    between atoms: C_12  and  C_20
REMARK    9  A    between atoms: C_14  and  N_15
REMARK                            x       y       z     vdW  Elec       q    Type
REMARK                         _______ _______ _______ _____ _____    ______ ____
ROOT
ATOM      1  C   UNL     1       5.348   4.167  16.006  0.00  0.00    +0.000 C 
ENDROOT
BRANCH   1   2
ATOM      2  C   UNL     1       6.286   5.096  16.816  0.00  0.00    +0.000 A 
ATOM      3  C   UNL     1       7.214   4.597  17.758  0.00  0.00    +0.000 A 
ATOM      4  C   UNL     1       8.011   5.455  18.519  0.00  0.00    +0.000 A 
ATOM      5  C   UNL     1       7.893   6.827  18.362  0.00  0.00    +0.000 A 
ATOM      6  F   UNL     1       8.641   7.644  19.112  0.00  0.00    +0.000 F 
ATOM      7  C   UNL     1       7.009   7.355  17.439  0.00  0.00    +0.000 A 
ATOM      8  C   UNL     1       6.234   6.495  16.667  0.00  0.00    +0.000 A 
ATOM      9  F   UNL     1       5.403   7.058  15.779  0.00  0.00    +0.000 F 
ENDBRANCH   1   2
BRANCH   1  10
ATOM     10  O   UNL     1       6.106   2.958  15.751  0.00  0.00    +0.000 OA
ATOM     11  H   UNL     1       7.015   3.135  16.065  0.00  0.00    +0.000 HD
ENDBRANCH   1  10
BRANCH   1  12
ATOM     12  C   UNL     1       4.096   3.705  16.863  0.00  0.00    +0.000 C 
BRANCH  12  14
ATOM     13  C   UNL     1       1.877   3.857  17.719  0.00  0.00    +0.000 C 
ATOM     14  N   UNL     1       3.064   4.670  17.346  0.00  0.00    +0.000 NA
BRANCH  14  15
ATOM     15  C   UNL     1       3.510   5.401  18.553  0.00  0.00    +0.000 C 
BRANCH  15  16
ATOM     16  C   UNL     1       2.804   6.722  18.770  0.00  0.00    +0.000 A 
ATOM     17  C   UNL     1       2.969   7.733  17.805  0.00  0.00    +0.000 A 
ATOM     18  C   UNL     1       2.328   8.965  17.945  0.00  0.00    +0.000 A 
ATOM     19  C   UNL     1       1.526   9.200  19.056  0.00  0.00    +0.000 A 
ATOM     20  C   UNL     1       1.365   8.214  20.028  0.00  0.00    +0.000 A 
ATOM     21  C   UNL     1       2.001   6.979  19.890  0.00  0.00    +0.000 A 
ATOM     22 CL   UNL     1       1.741   5.811  21.136  0.00  0.00    +0.000 Cl
ENDBRANCH  15  16
ENDBRANCH  14  15
ENDBRANCH  12  14
ENDBRANCH   1  12
BRANCH   1  23
ATOM     23  C   UNL     1       5.029   4.795  14.623  0.00  0.00    +0.000 C 
BRANCH  23  24
ATOM     24  N   UNL     1       5.560   4.138  13.455  0.00  0.00    +0.000 N 
ATOM     25  C   UNL     1       6.818   4.266  12.948  0.00  0.00    +0.000 A 
ATOM     26  N   UNL     1       6.980   3.426  11.953  0.00  0.00    +0.000 NA
ATOM     27  C   UNL     1       5.776   2.789  11.890  0.00  0.00    +0.000 A 
ATOM     28  N   UNL     1       4.878   3.189  12.791  0.00  0.00    +0.000 NA
ENDBRANCH  23  24
ENDBRANCH   1  23
TORSDOF 8
ENDMDL
MODEL 7
REMARK VINA RESULT:      -7.2      1.577      2.420
REMARK  Name = 
REMARK  9 active torsions:
REMARK  status: ('A' for Active; 'I' for Inactive)
REMARK    1  A    between atoms: C_1  and  N_2
REMARK    2  A    between atoms: N_2  and  C_3
REMARK    3  A    between atoms: N_2  and  C_11
REMARK    4  A    between atoms: C_3  and  C_4
REMARK    5  A    between atoms: C_11  and  C_12
REMARK    6  A    between atoms: C_12  and  O_13
REMARK    7  A    between atoms: C_12  and  C_14
REMARK    8  A    between atoms: C_12  and  C_20
REMARK    9  A    between atoms: C_14  and  N_15
REMARK                            x       y       z     vdW  Elec       q    Type
REMARK                         _______ _______ _______ _____ _____    ______ ____
ROOT
ATOM      1  C   UNL     1       6.042   5.247  17.703  0.00  0.00    +0.000 C 
ENDROOT
BRANCH   1   2
ATOM      2  C   UNL     1       6.861   6.540  17.937  0.00  0.00    +0.000 A 
ATOM      3  C   UNL     1       6.603   7.736  17.230  0.00  0.00    +0.000 A 
ATOM      4  C   UNL     1       7.390   8.875  17.416  0.00  0.00    +0.000 A 
ATOM      5  C   UNL     1       8.453   8.842  18.304  0.00  0.00    +0.000 A 
ATOM      6  F   UNL     1       9.219   9.929  18.458  0.00  0.00    +0.000 F 
ATOM      7  C   UNL     1       8.729   7.697  19.028  0.00  0.00    +0.000 A 
ATOM      8  C   UNL     1       7.928   6.571  18.856  0.00  0.00    +0.000 A 
ATOM      9  F   UNL     1       8.230   5.492  19.590  0.00  0.00    +0.000 F 
ENDBRANCH   1   2
BRANCH   1  10
ATOM     10  O   UNL     1       5.817   4.673  19.016  0.00  0.00    +0.000 OA
ATOM     11  H   UNL     1       6.698   4.418  19.356  0.00  0.00    +0.000 HD
ENDBRANCH   1  10
BRANCH   1  12
ATOM     12  C   UNL     1       4.598   5.562  17.130  0.00  0.00    +0.000 C 
BRANCH  12  14
ATOM     13  C   UNL     1       3.246   7.488  17.518  0.00  0.00    +0.000 C 
ATOM     14  N   UNL     1       3.502   6.101  17.990  0.00  0.00    +0.000 NA
BRANCH  14  15
ATOM     15  C   UNL     1       2.247   5.331  17.837  0.00  0.00    +0.000 C 
BRANCH  15  16
ATOM     16  C   UNL     1       1.999   4.332  18.945  0.00  0.00    +0.000 A 
ATOM     17  C   UNL     1       2.048   2.961  18.631  0.00  0.00    +0.000 A 
ATOM     18  C   UNL     1       1.843   1.995  19.617  0.00  0.00    +0.000 A 
ATOM     19  C   UNL     1       1.576   2.391  20.924  0.00  0.00    +0.000 A 
ATOM     20  C   UNL     1       1.508   3.746  21.246  0.00  0.00    +0.000 A 
ATOM     21  C   UNL     1       1.717   4.715  20.264  0.00  0.00    +0.000 A 
ATOM     22 CL   UNL     1       1.624   6.370  20.752  0.00  0.00    +0.000 Cl
ENDBRANCH  15  16
ENDBRANCH  14  15
ENDBRANCH  12  14
ENDBRANCH   1  12
BRANCH   1  23
ATOM     23  C   UNL     1       6.879   4.214  16.901  0.00  0.00    +0.000 C 
BRANCH  23  24
ATOM     24  N   UNL     1       6.904   4.347  15.466  0.00  0.00    +0.000 N 
ATOM     25  C   UNL     1       6.112   3.691  14.572  0.00  0.00    +0.000 A 
ATOM     26  N   UNL     1       6.333   4.155  13.365  0.00  0.00    +0.000 NA
ATOM     27  C   UNL     1       7.280   5.114  13.573  0.00  0.00    +0.000 A 
ATOM     28  N   UNL     1       7.657   5.269  14.843  0.00  0.00    +0.000 NA
ENDBRANCH  23  24
ENDBRANCH   1  23
TORSDOF 8
ENDMDL
MODEL 8
REMARK VINA RESULT:      -7.1      0.949      1.042
REMARK  Name = 
REMARK  9 active torsions:
REMARK  status: ('A' for Active; 'I' for Inactive)
REMARK    1  A    between atoms: C_1  and  N_2
REMARK    2  A    between atoms: N_2  and  C_3
REMARK    3  A    between atoms: N_2  and  C_11
REMARK    4  A    between atoms: C_3  and  C_4
REMARK    5  A    between atoms: C_11  and  C_12
REMARK    6  A    between atoms: C_12  and  O_13
REMARK    7  A    between atoms: C_12  and  C_14
REMARK    8  A    between atoms: C_12  and  C_20
REMARK    9  A    between atoms: C_14  and  N_15
REMARK                            x       y       z     vdW  Elec       q    Type
REMARK                         _______ _______ _______ _____ _____    ______ ____
ROOT
ATOM      1  C   UNL     1       6.512   5.062  17.043  0.00  0.00    +0.000 C 
ENDROOT
BRANCH   1   2
ATOM      2  C   UNL     1       7.146   6.364  17.592  0.00  0.00    +0.000 A 
ATOM      3  C   UNL     1       6.950   7.620  16.974  0.00  0.00    +0.000 A 
ATOM      4  C   UNL     1       7.576   8.772  17.454  0.00  0.00    +0.000 A 
ATOM      5  C   UNL     1       8.417   8.694  18.553  0.00  0.00    +0.000 A 
ATOM      6  F   UNL     1       9.035   9.798  18.991  0.00  0.00    +0.000 F 
ATOM      7  C   UNL     1       8.623   7.488  19.196  0.00  0.00    +0.000 A 
ATOM      8  C   UNL     1       7.977   6.346  18.728  0.00  0.00    +0.000 A 
ATOM      9  F   UNL     1       8.201   5.206  19.396  0.00  0.00    +0.000 F 
ENDBRANCH   1   2
BRANCH   1  10
ATOM     10  O   UNL     1       7.618   4.171  16.751  0.00  0.00    +0.000 OA
ATOM     11  H   UNL     1       7.750   4.208  15.782  0.00  0.00    +0.000 HD
ENDBRANCH   1  10
BRANCH   1  12
ATOM     12  C   UNL     1       5.653   4.317  18.148  0.00  0.00    +0.000 C 
BRANCH  12  14
ATOM     13  C   UNL     1       4.355   2.517  19.020  0.00  0.00    +0.000 C 
ATOM     14  N   UNL     1       4.593   3.325  17.795  0.00  0.00    +0.000 NA
BRANCH  14  15
ATOM     15  C   UNL     1       3.318   3.981  17.430  0.00  0.00    +0.000 C 
BRANCH  15  16
ATOM     16  C   UNL     1       2.614   4.649  18.591  0.00  0.00    +0.000 A 
ATOM     17  C   UNL     1       3.050   5.927  18.990  0.00  0.00    +0.000 A 
ATOM     18  C   UNL     1       2.426   6.596  20.044  0.00  0.00    +0.000 A 
ATOM     19  C   UNL     1       1.370   5.990  20.716  0.00  0.00    +0.000 A 
ATOM     20  C   UNL     1       0.938   4.718  20.342  0.00  0.00    +0.000 A 
ATOM     21  C   UNL     1       1.556   4.047  19.285  0.00  0.00    +0.000 A 
ATOM     22 CL   UNL     1       0.952   2.479  18.883  0.00  0.00    +0.000 Cl
ENDBRANCH  15  16
ENDBRANCH  14  15
ENDBRANCH  12  14
ENDBRANCH   1  12
BRANCH   1  23
ATOM     23  C   UNL     1       5.793   5.337  15.695  0.00  0.00    +0.000 C 
BRANCH  23  24
ATOM     24  N   UNL     1       6.443   4.891  14.489  0.00  0.00    +0.000 N 
ATOM     25  C   UNL     1       5.998   3.934  13.628  0.00  0.00    +0.000 A 
ATOM     26  N   UNL     1       6.786   3.882  12.580  0.00  0.00    +0.000 NA
ATOM     27  C   UNL     1       7.713   4.846  12.846  0.00  0.00    +0.000 A 
ATOM     28  N   UNL     1       7.541   5.492  14.000  0.00  0.00    +0.000 NA
ENDBRANCH  23  24
ENDBRANCH   1  23
TORSDOF 8
ENDMDL
MODEL 9
REMARK VINA RESULT:      -7.1      3.951      5.931
REMARK  Name = 
REMARK  9 active torsions:
REMARK  status: ('A' for Active; 'I' for Inactive)
REMARK    1  A    between atoms: C_1  and  N_2
REMARK    2  A    between atoms: N_2  and  C_3
REMARK    3  A    between atoms: N_2  and  C_11
REMARK    4  A    between atoms: C_3  and  C_4
REMARK    5  A    between atoms: C_11  and  C_12
REMARK    6  A    between atoms: C_12  and  O_13
REMARK    7  A    between atoms: C_12  and  C_14
REMARK    8  A    between atoms: C_12  and  C_20
REMARK    9  A    between atoms: C_14  and  N_15
REMARK                            x       y       z     vdW  Elec       q    Type
REMARK                         _______ _______ _______ _____ _____    ______ ____
ROOT
ATOM      1  C   UNL     1       2.599   6.586  18.504  0.00  0.00    +0.000 C 
ENDROOT
BRANCH   1   2
ATOM      2  C   UNL     1       4.041   6.185  18.108  0.00  0.00    +0.000 A 
ATOM      3  C   UNL     1       4.609   6.535  16.862  0.00  0.00    +0.000 A 
ATOM      4  C   UNL     1       5.892   6.115  16.503  0.00  0.00    +0.000 A 
ATOM      5  C   UNL     1       6.631   5.332  17.376  0.00  0.00    +0.000 A 
ATOM      6  F   UNL     1       7.849   4.912  17.015  0.00  0.00    +0.000 F 
ATOM      7  C   UNL     1       6.119   4.981  18.611  0.00  0.00    +0.000 A 
ATOM      8  C   UNL     1       4.849   5.422  18.974  0.00  0.00    +0.000 A 
ATOM      9  F   UNL     1       4.406   5.065  20.187  0.00  0.00    +0.000 F 
ENDBRANCH   1   2
BRANCH   1  10
ATOM     10  O   UNL     1       2.614   6.762  19.943  0.00  0.00    +0.000 OA
ATOM     11  H   UNL     1       3.267   6.122  20.289  0.00  0.00    +0.000 HD
ENDBRANCH   1  10
BRANCH   1  12
ATOM     12  C   UNL     1       2.201   8.002  17.912  0.00  0.00    +0.000 C 
BRANCH  12  14
ATOM     13  C   UNL     1       2.268  10.380  18.071  0.00  0.00    +0.000 C 
ATOM     14  N   UNL     1       1.829   9.153  18.787  0.00  0.00    +0.000 NA
BRANCH  14  15
ATOM     15  C   UNL     1       0.366   9.246  18.990  0.00  0.00    +0.000 C 
BRANCH  15  16
ATOM     16  C   UNL     1      -0.036   9.708  20.374  0.00  0.00    +0.000 A 
ATOM     17  C   UNL     1       0.089   8.800  21.442  0.00  0.00    +0.000 A 
ATOM     18  C   UNL     1      -0.251   9.177  22.742  0.00  0.00    +0.000 A 
ATOM     19  C   UNL     1      -0.729  10.461  22.984  0.00  0.00    +0.000 A 
ATOM     20  C   UNL     1      -0.873  11.365  21.933  0.00  0.00    +0.000 A 
ATOM     21  C   UNL     1      -0.530  10.994  20.632  0.00  0.00    +0.000 A 
ATOM     22 CL   UNL     1      -0.730  12.179  19.391  0.00  0.00    +0.000 Cl
ENDBRANCH  15  16
ENDBRANCH  14  15
ENDBRANCH  12  14
ENDBRANCH   1  12
BRANCH   1  23
ATOM     23  C   UNL     1       1.613   5.424  18.206  0.00  0.00    +0.000 C 
BRANCH  23  24
ATOM     24  N   UNL     1       1.559   4.338  19.151  0.00  0.00    +0.000 N 
ATOM     25  C   UNL     1       2.105   3.099  19.002  0.00  0.00    +0.000 A 
ATOM     26  N   UNL     1       1.962   2.417  20.114  0.00  0.00    +0.000 NA
ATOM     27  C   UNL     1       1.316   3.296  20.932  0.00  0.00    +0.000 A 
ATOM     28  N   UNL     1       1.053   4.485  20.387  0.00  0.00    +0.000 NA
ENDBRANCH  23  24
ENDBRANCH   1  23
TORSDOF 8
ENDMDL
