MODEL 1
REMARK VINA RESULT:      -7.8      0.000      0.000
REMARK  Name = 
REMARK  8 active torsions:
REMARK  status: ('A' for Active; 'I' for Inactive)
REMARK    1  A    between atoms: C_1  and  N_2
REMARK    2  A    between atoms: C_4  and  C_5
REMARK    3  A    between atoms: C_5  and  C_6
REMARK    4  A    between atoms: C_6  and  C_7
REMARK    5  A    between atoms: C_7  and  N_8
REMARK    6  A    between atoms: N_11  and  C_12
REMARK    7  A    between atoms: C_12  and  C_13
REMARK    8  A    between atoms: C_17  and  O_18
REMARK                            x       y       z     vdW  Elec       q    Type
REMARK                         _______ _______ _______ _____ _____    ______ ____
ROOT
ATOM      1  N   UNL     1       7.090   6.361  17.736  0.00  0.00    +0.000 NA
ATOM      2  C   UNL     1       6.030   7.194  17.133  0.00  0.00    +0.000 C 
ATOM      3  C   UNL     1       5.056   6.331  16.287  0.00  0.00    +0.000 C 
ATOM      4  N   UNL     1       4.434   5.198  17.019  0.00  0.00    +0.000 NA
ATOM      5  C   UNL     1       5.520   4.445  17.685  0.00  0.00    +0.000 C 
ATOM      6  C   UNL     1       6.469   5.304  18.554  0.00  0.00    +0.000 C 
ENDROOT
BRANCH   1   7
ATOM      7  C   UNL     1       8.091   7.177  18.429  0.00  0.00    +0.000 C 
BRANCH   7   8
ATOM      8  C   UNL     1       8.126   8.636  17.952  0.00  0.00    +0.000 C 
BRANCH   8   9
ATOM      9  C   UNL     1       9.019   9.492  18.852  0.00  0.00    +0.000 C 
BRANCH   9  13
ATOM     10  C   UNL     1      11.127  13.710  17.122  0.00  0.00    +0.000 C 
ATOM     11  N   UNL     1      10.194  12.688  17.512  0.00  0.00    +0.000 N 
ATOM     12  C   UNL     1      10.481  11.466  18.051  0.00  0.00    +0.000 A 
ATOM     13  C   UNL     1       9.272  10.841  18.273  0.00  0.00    +0.000 A 
ATOM     14  C   UNL     1       8.315  11.781  17.824  0.00  0.00    +0.000 A 
ATOM     15  N   UNL     1       8.871  12.901  17.360  0.00  0.00    +0.000 NA
ENDBRANCH   9  13
ENDBRANCH   8   9
ENDBRANCH   7   8
ENDBRANCH   1   7
BRANCH   4  16
ATOM     16  C   UNL     1       3.417   5.699  17.958  0.00  0.00    +0.000 C 
BRANCH  16  17
ATOM     17  C   UNL     1       2.638   4.626  18.687  0.00  0.00    +0.000 A 
ATOM     18  C   UNL     1       1.706   3.825  18.014  0.00  0.00    +0.000 A 
ATOM     19  C   UNL     1       0.947   2.882  18.712  0.00  0.00    +0.000 A 
ATOM     20  C   UNL     1       1.121   2.719  20.087  0.00  0.00    +0.000 A 
ATOM     21  C   UNL     1       2.065   3.496  20.751  0.00  0.00    +0.000 A 
ATOM     22  C   UNL     1       2.815   4.446  20.067  0.00  0.00    +0.000 A 
BRANCH  21  23
ATOM     23  O   UNL     1       2.285   3.360  22.089  0.00  0.00    +0.000 OA
ATOM     24  H   UNL     1       3.009   2.724  22.218  0.00  0.00    +0.000 HD
ENDBRANCH  21  23
ENDBRANCH  16  17
ENDBRANCH   4  16
TORSDOF 7
ENDMDL
MODEL 2
REMARK VINA RESULT:      -7.4      1.371      1.484
REMARK  Name = 
REMARK  8 active torsions:
REMARK  status: ('A' for Active; 'I' for Inactive)
REMARK    1  A    between atoms: C_1  and  N_2
REMARK    2  A    between atoms: C_4  and  C_5
REMARK    3  A    between atoms: C_5  and  C_6
REMARK    4  A    between atoms: C_6  and  C_7
REMARK    5  A    between atoms: C_7  and  N_8
REMARK    6  A    between atoms: N_11  and  C_12
REMARK    7  A    between atoms: C_12  and  C_13
REMARK    8  A    between atoms: C_17  and  O_18
REMARK                            x       y       z     vdW  Elec       q    Type
REMARK                         _______ _______ _______ _____ _____    ______ ____
ROOT
ATOM      1  N   UNL     1       7.336   6.680  17.500  0.00  0.00    +0.000 NA
ATOM      2  C   UNL     1       6.156   7.420  17.009  0.00  0.00    +0.000 C 
ATOM      3  C   UNL     1       5.344   6.568  15.998  0.00  0.00    +0.000 C 
ATOM      4  N   UNL     1       4.914   5.242  16.508  0.00  0.00    +0.000 NA
ATOM      5  C   UNL     1       6.106   4.572  17.075  0.00  0.00    +0.000 C 
ATOM      6  C   UNL     1       6.894   5.413  18.107  0.00  0.00    +0.000 C 
ENDROOT
BRANCH   1   7
ATOM      7  C   UNL     1       8.184   7.517  18.353  0.00  0.00    +0.000 C 
BRANCH   7   8
ATOM      8  C   UNL     1       8.181   8.999  17.952  0.00  0.00    +0.000 C 
BRANCH   8   9
ATOM      9  C   UNL     1       9.072   9.826  18.879  0.00  0.00    +0.000 C 
BRANCH   9  13
ATOM     10  C   UNL     1      11.768  13.529  16.818  0.00  0.00    +0.000 C 
ATOM     11  N   UNL     1      10.701  12.718  17.336  0.00  0.00    +0.000 N 
ATOM     12  C   UNL     1      10.797  11.464  17.869  0.00  0.00    +0.000 A 
ATOM     13  C   UNL     1       9.522  11.096  18.243  0.00  0.00    +0.000 A 
ATOM     14  C   UNL     1       8.727  12.209  17.880  0.00  0.00    +0.000 A 
ATOM     15  N   UNL     1       9.439  13.193  17.329  0.00  0.00    +0.000 NA
ENDBRANCH   9  13
ENDBRANCH   8   9
ENDBRANCH   7   8
ENDBRANCH   1   7
BRANCH   4  16
ATOM     16  C   UNL     1       3.822   5.403  17.482  0.00  0.00    +0.000 C 
BRANCH  16  17
ATOM     17  C   UNL     1       3.106   4.124  17.857  0.00  0.00    +0.000 A 
ATOM     18  C   UNL     1       1.731   4.116  18.127  0.00  0.00    +0.000 A 
ATOM     19  C   UNL     1       1.096   2.940  18.534  0.00  0.00    +0.000 A 
ATOM     20  C   UNL     1       1.823   1.757  18.662  0.00  0.00    +0.000 A 
ATOM     21  C   UNL     1       3.183   1.758  18.368  0.00  0.00    +0.000 A 
ATOM     22  C   UNL     1       3.827   2.926  17.975  0.00  0.00    +0.000 A 
BRANCH  21  23
ATOM     23  O   UNL     1       3.932   0.622  18.459  0.00  0.00    +0.000 OA
ATOM     24  H   UNL     1       4.734   0.740  17.923  0.00  0.00    +0.000 HD
ENDBRANCH  21  23
ENDBRANCH  16  17
ENDBRANCH   4  16
TORSDOF 7
ENDMDL
MODEL 3
REMARK VINA RESULT:      -7.4      1.170      1.639
REMARK  Name = 
REMARK  8 active torsions:
REMARK  status: ('A' for Active; 'I' for Inactive)
REMARK    1  A    between atoms: C_1  and  N_2
REMARK    2  A    between atoms: C_4  and  C_5
REMARK    3  A    between atoms: C_5  and  C_6
REMARK    4  A    between atoms: C_6  and  C_7
REMARK    5  A    between atoms: C_7  and  N_8
REMARK    6  A    between atoms: N_11  and  C_12
REMARK    7  A    between atoms: C_12  and  C_13
REMARK    8  A    between atoms: C_17  and  O_18
REMARK                            x       y       z     vdW  Elec       q    Type
REMARK                         _______ _______ _______ _____ _____    ______ ____
ROOT
ATOM      1  N   UNL     1       7.238   6.543  17.849  0.00  0.00    +0.000 NA
ATOM      2  C   UNL     1       6.277   7.386  17.110  0.00  0.00    +0.000 C 
ATOM      3  C   UNL     1       5.280   6.516  16.299  0.00  0.00    +0.000 C 
ATOM      4  N   UNL     1       4.537   5.512  17.102  0.00  0.00    +0.000 NA
ATOM      5  C   UNL     1       5.527   4.752  17.897  0.00  0.00    +0.000 C 
ATOM      6  C   UNL     1       6.498   5.623  18.730  0.00  0.00    +0.000 C 
ENDROOT
BRANCH   1   7
ATOM      7  C   UNL     1       8.266   7.349  18.514  0.00  0.00    +0.000 C 
BRANCH   7   8
ATOM      8  C   UNL     1       8.248   8.827  18.097  0.00  0.00    +0.000 C 
BRANCH   8   9
ATOM      9  C   UNL     1       8.962   9.702  19.128  0.00  0.00    +0.000 C 
BRANCH   9  13
ATOM     10  C   UNL     1       9.462  14.520  17.799  0.00  0.00    +0.000 C 
ATOM     11  N   UNL     1       9.646  13.104  17.965  0.00  0.00    +0.000 N 
ATOM     12  C   UNL     1       8.870  12.248  18.693  0.00  0.00    +0.000 A 
ATOM     13  C   UNL     1       9.423  10.993  18.546  0.00  0.00    +0.000 A 
ATOM     14  C   UNL     1      10.541  11.212  17.706  0.00  0.00    +0.000 A 
ATOM     15  N   UNL     1      10.680  12.490  17.354  0.00  0.00    +0.000 NA
ENDBRANCH   9  13
ENDBRANCH   8   9
ENDBRANCH   7   8
ENDBRANCH   1   7
BRANCH   4  16
ATOM     16  C   UNL     1       3.518   6.179  17.929  0.00  0.00    +0.000 C 
BRANCH  16  17
ATOM     17  C   UNL     1       2.604   5.245  18.692  0.00  0.00    +0.000 A 
ATOM     18  C   UNL     1       2.253   5.503  20.024  0.00  0.00    +0.000 A 
ATOM     19  C   UNL     1       1.461   4.599  20.736  0.00  0.00    +0.000 A 
ATOM     20  C   UNL     1       0.998   3.435  20.122  0.00  0.00    +0.000 A 
ATOM     21  C   UNL     1       1.325   3.191  18.792  0.00  0.00    +0.000 A 
ATOM     22  C   UNL     1       2.123   4.078  18.079  0.00  0.00    +0.000 A 
BRANCH  21  23
ATOM     23  O   UNL     1       0.881   2.077  18.143  0.00  0.00    +0.000 OA
ATOM     24  H   UNL     1      -0.087   2.130  18.068  0.00  0.00    +0.000 HD
ENDBRANCH  21  23
ENDBRANCH  16  17
ENDBRANCH   4  16
TORSDOF 7
ENDMDL
MODEL 4
REMARK VINA RESULT:      -7.4      1.192      1.398
REMARK  Name = 
REMARK  8 active torsions:
REMARK  status: ('A' for Active; 'I' for Inactive)
REMARK    1  A    between atoms: C_1  and  N_2
REMARK    2  A    between atoms: C_4  and  C_5
REMARK    3  A    between atoms: C_5  and  C_6
REMARK    4  A    between atoms: C_6  and  C_7
REMARK    5  A    between atoms: C_7  and  N_8
REMARK    6  A    between atoms: N_11  and  C_12
REMARK    7  A    between atoms: C_12  and  C_13
REMARK    8  A    between atoms: C_17  and  O_18
REMARK                            x       y       z     vdW  Elec       q    Type
REMARK                         _______ _______ _______ _____ _____    ______ ____
ROOT
ATOM      1  N   UNL     1       7.107   7.270  17.305  0.00  0.00    +0.000 NA
ATOM      2  C   UNL     1       5.644   7.086  17.217  0.00  0.00    +0.000 C 
ATOM      3  C   UNL     1       5.289   5.659  16.721  0.00  0.00    +0.000 C 
ATOM      4  N   UNL     1       5.875   4.558  17.526  0.00  0.00    +0.000 NA
ATOM      5  C   UNL     1       7.323   4.829  17.669  0.00  0.00    +0.000 C 
ATOM      6  C   UNL     1       7.671   6.241  18.196  0.00  0.00    +0.000 C 
ENDROOT
BRANCH   1   7
ATOM      7  C   UNL     1       7.461   8.650  17.645  0.00  0.00    +0.000 C 
BRANCH   7   8
ATOM      8  C   UNL     1       8.826   8.779  18.336  0.00  0.00    +0.000 C 
BRANCH   8   9
ATOM      9  C   UNL     1       8.898  10.047  19.189  0.00  0.00    +0.000 C 
BRANCH   9  13
ATOM     10  C   UNL     1      11.980  13.274  16.882  0.00  0.00    +0.000 C 
ATOM     11  N   UNL     1      10.826  12.609  17.425  0.00  0.00    +0.000 N 
ATOM     12  C   UNL     1      10.796  11.423  18.103  0.00  0.00    +0.000 A 
ATOM     13  C   UNL     1       9.478  11.196  18.439  0.00  0.00    +0.000 A 
ATOM     14  C   UNL     1       8.794  12.314  17.906  0.00  0.00    +0.000 A 
ATOM     15  N   UNL     1       9.608  13.171  17.289  0.00  0.00    +0.000 NA
ENDBRANCH   9  13
ENDBRANCH   8   9
ENDBRANCH   7   8
ENDBRANCH   1   7
BRANCH   4  16
ATOM     16  C   UNL     1       5.176   4.448  18.817  0.00  0.00    +0.000 C 
BRANCH  16  17
ATOM     17  C   UNL     1       3.849   3.723  18.764  0.00  0.00    +0.000 A 
ATOM     18  C   UNL     1       3.642   2.655  17.881  0.00  0.00    +0.000 A 
ATOM     19  C   UNL     1       2.392   2.036  17.797  0.00  0.00    +0.000 A 
ATOM     20  C   UNL     1       1.340   2.468  18.603  0.00  0.00    +0.000 A 
ATOM     21  C   UNL     1       1.551   3.511  19.499  0.00  0.00    +0.000 A 
ATOM     22  C   UNL     1       2.787   4.142  19.580  0.00  0.00    +0.000 A 
BRANCH  21  23
ATOM     23  O   UNL     1       0.558   3.955  20.322  0.00  0.00    +0.000 OA
ATOM     24  H   UNL     1      -0.237   3.421  20.160  0.00  0.00    +0.000 HD
ENDBRANCH  21  23
ENDBRANCH  16  17
ENDBRANCH   4  16
TORSDOF 7
ENDMDL
MODEL 5
REMARK VINA RESULT:      -7.2      1.418      1.868
REMARK  Name = 
REMARK  8 active torsions:
REMARK  status: ('A' for Active; 'I' for Inactive)
REMARK    1  A    between atoms: C_1  and  N_2
REMARK    2  A    between atoms: C_4  and  C_5
REMARK    3  A    between atoms: C_5  and  C_6
REMARK    4  A    between atoms: C_6  and  C_7
REMARK    5  A    between atoms: C_7  and  N_8
REMARK    6  A    between atoms: N_11  and  C_12
REMARK    7  A    between atoms: C_12  and  C_13
REMARK    8  A    between atoms: C_17  and  O_18
REMARK                            x       y       z     vdW  Elec       q    Type
REMARK                         _______ _______ _______ _____ _____    ______ ____
ROOT
ATOM      1  N   UNL     1       6.641   6.813  16.955  0.00  0.00    +0.000 NA
ATOM      2  C   UNL     1       5.667   6.517  18.025  0.00  0.00    +0.000 C 
ATOM      3  C   UNL     1       4.316   6.034  17.433  0.00  0.00    +0.000 C 
ATOM      4  N   UNL     1       4.420   4.863  16.526  0.00  0.00    +0.000 NA
ATOM      5  C   UNL     1       5.470   5.161  15.527  0.00  0.00    +0.000 C 
ATOM      6  C   UNL     1       6.825   5.611  16.123  0.00  0.00    +0.000 C 
ENDROOT
BRANCH   1   7
ATOM      7  C   UNL     1       7.875   7.394  17.491  0.00  0.00    +0.000 C 
BRANCH   7   8
ATOM      8  C   UNL     1       7.794   8.913  17.701  0.00  0.00    +0.000 C 
BRANCH   8   9
ATOM      9  C   UNL     1       8.804   9.382  18.749  0.00  0.00    +0.000 C 
BRANCH   9  13
ATOM     10  C   UNL     1      11.514  13.605  18.521  0.00  0.00    +0.000 C 
ATOM     11  N   UNL     1      10.488  12.609  18.370  0.00  0.00    +0.000 N 
ATOM     12  C   UNL     1      10.497  11.331  18.852  0.00  0.00    +0.000 A 
ATOM     13  C   UNL     1       9.300  10.759  18.474  0.00  0.00    +0.000 A 
ATOM     14  C   UNL     1       8.644  11.788  17.758  0.00  0.00    +0.000 A 
ATOM     15  N   UNL     1       9.362  12.910  17.693  0.00  0.00    +0.000 NA
ENDBRANCH   9  13
ENDBRANCH   8   9
ENDBRANCH   7   8
ENDBRANCH   1   7
BRANCH   4  16
ATOM     16  C   UNL     1       4.690   3.642  17.303  0.00  0.00    +0.000 C 
BRANCH  16  17
ATOM     17  C   UNL     1       3.614   3.269  18.300  0.00  0.00    +0.000 A 
ATOM     18  C   UNL     1       3.826   3.403  19.678  0.00  0.00    +0.000 A 
ATOM     19  C   UNL     1       2.849   2.994  20.589  0.00  0.00    +0.000 A 
ATOM     20  C   UNL     1       1.643   2.461  20.132  0.00  0.00    +0.000 A 
ATOM     21  C   UNL     1       1.421   2.353  18.764  0.00  0.00    +0.000 A 
ATOM     22  C   UNL     1       2.393   2.745  17.850  0.00  0.00    +0.000 A 
BRANCH  21  23
ATOM     23  O   UNL     1       0.251   1.857  18.269  0.00  0.00    +0.000 OA
ATOM     24  H   UNL     1      -0.339   1.661  19.016  0.00  0.00    +0.000 HD
ENDBRANCH  21  23
ENDBRANCH  16  17
ENDBRANCH   4  16
TORSDOF 7
ENDMDL
MODEL 6
REMARK VINA RESULT:      -7.1      1.321      1.488
REMARK  Name = 
REMARK  8 active torsions:
REMARK  status: ('A' for Active; 'I' for Inactive)
REMARK    1  A    between atoms: C_1  and  N_2
REMARK    2  A    between atoms: C_4  and  C_5
REMARK    3  A    between atoms: C_5  and  C_6
REMARK    4  A    between atoms: C_6  and  C_7
REMARK    5  A    between atoms: C_7  and  N_8
REMARK    6  A    between atoms: N_11  and  C_12
REMARK    7  A    between atoms: C_12  and  C_13
REMARK    8  A    between atoms: C_17  and  O_18
REMARK                            x       y       z     vdW  Elec       q    Type
REMARK                         _______ _______ _______ _____ _____    ______ ____
ROOT
ATOM      1  N   UNL     1       6.586   6.768  17.328  0.00  0.00    +0.000 NA
ATOM      2  C   UNL     1       5.557   6.489  18.350  0.00  0.00    +0.000 C 
ATOM      3  C   UNL     1       4.211   6.086  17.691  0.00  0.00    +0.000 C 
ATOM      4  N   UNL     1       4.296   4.938  16.754  0.00  0.00    +0.000 NA
ATOM      5  C   UNL     1       5.398   5.215  15.806  0.00  0.00    +0.000 C 
ATOM      6  C   UNL     1       6.748   5.583  16.467  0.00  0.00    +0.000 C 
ENDROOT
BRANCH   1   7
ATOM      7  C   UNL     1       7.822   7.275  17.928  0.00  0.00    +0.000 C 
BRANCH   7   8
ATOM      8  C   UNL     1       7.945   8.805  17.874  0.00  0.00    +0.000 C 
BRANCH   8   9
ATOM      9  C   UNL     1       9.051   9.305  18.805  0.00  0.00    +0.000 C 
BRANCH   9  13
ATOM     10  C   UNL     1       9.492  14.081  20.299  0.00  0.00    +0.000 C 
ATOM     11  N   UNL     1       9.295  12.885  19.525  0.00  0.00    +0.000 N 
ATOM     12  C   UNL     1       9.380  11.593  19.960  0.00  0.00    +0.000 A 
ATOM     13  C   UNL     1       9.099  10.792  18.873  0.00  0.00    +0.000 A 
ATOM     14  C   UNL     1       8.863  11.714  17.825  0.00  0.00    +0.000 A 
ATOM     15  N   UNL     1       8.983  12.982  18.217  0.00  0.00    +0.000 NA
ENDBRANCH   9  13
ENDBRANCH   8   9
ENDBRANCH   7   8
ENDBRANCH   1   7
BRANCH   4  16
ATOM     16  C   UNL     1       4.479   3.685  17.504  0.00  0.00    +0.000 C 
BRANCH  16  17
ATOM     17  C   UNL     1       3.325   3.308  18.408  0.00  0.00    +0.000 A 
ATOM     18  C   UNL     1       2.022   3.188  17.906  0.00  0.00    +0.000 A 
ATOM     19  C   UNL     1       0.956   2.904  18.763  0.00  0.00    +0.000 A 
ATOM     20  C   UNL     1       1.182   2.721  20.128  0.00  0.00    +0.000 A 
ATOM     21  C   UNL     1       2.478   2.814  20.623  0.00  0.00    +0.000 A 
ATOM     22  C   UNL     1       3.543   3.110  19.780  0.00  0.00    +0.000 A 
BRANCH  21  23
ATOM     23  O   UNL     1       2.751   2.625  21.945  0.00  0.00    +0.000 OA
ATOM     24  H   UNL     1       3.665   2.909  22.113  0.00  0.00    +0.000 HD
ENDBRANCH  21  23
ENDBRANCH  16  17
ENDBRANCH   4  16
TORSDOF 7
ENDMDL
MODEL 7
REMARK VINA RESULT:      -7.0      1.903      2.154
REMARK  Name = 
REMARK  8 active torsions:
REMARK  status: ('A' for Active; 'I' for Inactive)
REMARK    1  A    between atoms: C_1  and  N_2
REMARK    2  A    between atoms: C_4  and  C_5
REMARK    3  A    between atoms: C_5  and  C_6
REMARK    4  A    between atoms: C_6  and  C_7
REMARK    5  A    between atoms: C_7  and  N_8
REMARK    6  A    between atoms: N_11  and  C_12
REMARK    7  A    between atoms: C_12  and  C_13
REMARK    8  A    between atoms: C_17  and  O_18
REMARK                            x       y       z     vdW  Elec       q    Type
REMARK                         _______ _______ _______ _____ _____    ______ ____
ROOT
ATOM      1  N   UNL     1       7.094   7.260  17.233  0.00  0.00    +0.000 NA
ATOM      2  C   UNL     1       5.653   6.960  17.108  0.00  0.00    +0.000 C 
ATOM      3  C   UNL     1       5.425   5.483  16.687  0.00  0.00    +0.000 C 
ATOM      4  N   UNL     1       6.061   4.479  17.576  0.00  0.00    +0.000 NA
ATOM      5  C   UNL     1       7.478   4.868  17.751  0.00  0.00    +0.000 C 
ATOM      6  C   UNL     1       7.700   6.331  18.203  0.00  0.00    +0.000 C 
ENDROOT
BRANCH   1   7
ATOM      7  C   UNL     1       7.329   8.681  17.502  0.00  0.00    +0.000 C 
BRANCH   7   8
ATOM      8  C   UNL     1       8.545   8.939  18.404  0.00  0.00    +0.000 C 
BRANCH   8   9
ATOM      9  C   UNL     1       9.230  10.259  18.047  0.00  0.00    +0.000 C 
BRANCH   9  13
ATOM     10  C   UNL     1       9.299  14.322  21.000  0.00  0.00    +0.000 C 
ATOM     11  N   UNL     1       9.310  12.974  20.500  0.00  0.00    +0.000 N 
ATOM     12  C   UNL     1       9.208  12.572  19.198  0.00  0.00    +0.000 A 
ATOM     13  C   UNL     1       9.284  11.195  19.204  0.00  0.00    +0.000 A 
ATOM     14  C   UNL     1       9.426  10.869  20.574  0.00  0.00    +0.000 A 
ATOM     15  N   UNL     1       9.441  11.944  21.361  0.00  0.00    +0.000 NA
ENDBRANCH   9  13
ENDBRANCH   8   9
ENDBRANCH   7   8
ENDBRANCH   1   7
BRANCH   4  16
ATOM     16  C   UNL     1       5.324   4.389  18.848  0.00  0.00    +0.000 C 
BRANCH  16  17
ATOM     17  C   UNL     1       3.969   3.721  18.754  0.00  0.00    +0.000 A 
ATOM     18  C   UNL     1       3.714   2.733  17.794  0.00  0.00    +0.000 A 
ATOM     19  C   UNL     1       2.441   2.171  17.676  0.00  0.00    +0.000 A 
ATOM     20  C   UNL     1       1.412   2.578  18.526  0.00  0.00    +0.000 A 
ATOM     21  C   UNL     1       1.671   3.540  19.497  0.00  0.00    +0.000 A 
ATOM     22  C   UNL     1       2.932   4.115  19.612  0.00  0.00    +0.000 A 
BRANCH  21  23
ATOM     23  O   UNL     1       0.704   3.957  20.362  0.00  0.00    +0.000 OA
ATOM     24  H   UNL     1       0.471   4.874  20.144  0.00  0.00    +0.000 HD
ENDBRANCH  21  23
ENDBRANCH  16  17
ENDBRANCH   4  16
TORSDOF 7
ENDMDL
MODEL 8
REMARK VINA RESULT:      -7.0      2.125      2.492
REMARK  Name = 
REMARK  8 active torsions:
REMARK  status: ('A' for Active; 'I' for Inactive)
REMARK    1  A    between atoms: C_1  and  N_2
REMARK    2  A    between atoms: C_4  and  C_5
REMARK    3  A    between atoms: C_5  and  C_6
REMARK    4  A    between atoms: C_6  and  C_7
REMARK    5  A    between atoms: C_7  and  N_8
REMARK    6  A    between atoms: N_11  and  C_12
REMARK    7  A    between atoms: C_12  and  C_13
REMARK    8  A    between atoms: C_17  and  O_18
REMARK                            x       y       z     vdW  Elec       q    Type
REMARK                         _______ _______ _______ _____ _____    ______ ____
ROOT
ATOM      1  N   UNL     1       7.463   7.423  17.393  0.00  0.00    +0.000 NA
ATOM      2  C   UNL     1       6.013   7.218  17.199  0.00  0.00    +0.000 C 
ATOM      3  C   UNL     1       5.677   5.709  17.053  0.00  0.00    +0.000 C 
ATOM      4  N   UNL     1       6.148   4.857  18.174  0.00  0.00    +0.000 NA
ATOM      5  C   UNL     1       7.579   5.161  18.397  0.00  0.00    +0.000 C 
ATOM      6  C   UNL     1       7.905   6.663  18.575  0.00  0.00    +0.000 C 
ENDROOT
BRANCH   1   7
ATOM      7  C   UNL     1       7.812   8.845  17.402  0.00  0.00    +0.000 C 
BRANCH   7   8
ATOM      8  C   UNL     1       8.724   9.244  18.571  0.00  0.00    +0.000 C 
BRANCH   8   9
ATOM      9  C   UNL     1       9.458  10.554  18.280  0.00  0.00    +0.000 C 
BRANCH   9  13
ATOM     10  C   UNL     1      10.214  14.366  21.462  0.00  0.00    +0.000 C 
ATOM     11  N   UNL     1       9.883  13.094  20.880  0.00  0.00    +0.000 N 
ATOM     12  C   UNL     1       9.958  12.740  19.562  0.00  0.00    +0.000 A 
ATOM     13  C   UNL     1       9.555  11.424  19.485  0.00  0.00    +0.000 A 
ATOM     14  C   UNL     1       9.253  11.082  20.824  0.00  0.00    +0.000 A 
ATOM     15  N   UNL     1       9.449  12.092  21.671  0.00  0.00    +0.000 NA
ENDBRANCH   9  13
ENDBRANCH   8   9
ENDBRANCH   7   8
ENDBRANCH   1   7
BRANCH   4  16
ATOM     16  C   UNL     1       5.315   5.083  19.367  0.00  0.00    +0.000 C 
BRANCH  16  17
ATOM     17  C   UNL     1       3.929   4.479  19.301  0.00  0.00    +0.000 A 
ATOM     18  C   UNL     1       2.860   5.042  20.010  0.00  0.00    +0.000 A 
ATOM     19  C   UNL     1       1.600   4.437  19.992  0.00  0.00    +0.000 A 
ATOM     20  C   UNL     1       1.392   3.272  19.253  0.00  0.00    +0.000 A 
ATOM     21  C   UNL     1       2.446   2.727  18.528  0.00  0.00    +0.000 A 
ATOM     22  C   UNL     1       3.706   3.314  18.551  0.00  0.00    +0.000 A 
BRANCH  21  23
ATOM     23  O   UNL     1       2.287   1.601  17.776  0.00  0.00    +0.000 OA
ATOM     24  H   UNL     1       2.012   1.865  16.883  0.00  0.00    +0.000 HD
ENDBRANCH  21  23
ENDBRANCH  16  17
ENDBRANCH   4  16
TORSDOF 7
ENDMDL
MODEL 9
REMARK VINA RESULT:      -7.0      1.406      1.828
REMARK  Name = 
REMARK  8 active torsions:
REMARK  status: ('A' for Active; 'I' for Inactive)
REMARK    1  A    between atoms: C_1  and  N_2
REMARK    2  A    between atoms: C_4  and  C_5
REMARK    3  A    between atoms: C_5  and  C_6
REMARK    4  A    between atoms: C_6  and  C_7
REMARK    5  A    between atoms: C_7  and  N_8
REMARK    6  A    between atoms: N_11  and  C_12
REMARK    7  A    between atoms: C_12  and  C_13
REMARK    8  A    between atoms: C_17  and  O_18
REMARK                            x       y       z     vdW  Elec       q    Type
REMARK                         _______ _______ _______ _____ _____    ______ ____
ROOT
ATOM      1  N   UNL     1       6.834   7.124  16.887  0.00  0.00    +0.000 NA
ATOM      2  C   UNL     1       5.773   7.224  17.910  0.00  0.00    +0.000 C 
ATOM      3  C   UNL     1       4.415   6.715  17.358  0.00  0.00    +0.000 C 
ATOM      4  N   UNL     1       4.444   5.334  16.814  0.00  0.00    +0.000 NA
ATOM      5  C   UNL     1       5.576   5.250  15.865  0.00  0.00    +0.000 C 
ATOM      6  C   UNL     1       6.936   5.727  16.430  0.00  0.00    +0.000 C 
ENDROOT
BRANCH   1   7
ATOM      7  C   UNL     1       8.089   7.721  17.348  0.00  0.00    +0.000 C 
BRANCH   7   8
ATOM      8  C   UNL     1       7.940   9.177  17.812  0.00  0.00    +0.000 C 
BRANCH   8   9
ATOM      9  C   UNL     1       8.841   9.473  19.012  0.00  0.00    +0.000 C 
BRANCH   9  13
ATOM     10  C   UNL     1      11.306  13.476  17.244  0.00  0.00    +0.000 C 
ATOM     11  N   UNL     1      10.645  12.520  18.091  0.00  0.00    +0.000 N 
ATOM     12  C   UNL     1      10.050  11.350  17.713  0.00  0.00    +0.000 A 
ATOM     13  C   UNL     1       9.569  10.764  18.864  0.00  0.00    +0.000 A 
ATOM     14  C   UNL     1       9.926  11.676  19.885  0.00  0.00    +0.000 A 
ATOM     15  N   UNL     1      10.578  12.742  19.419  0.00  0.00    +0.000 NA
ENDBRANCH   9  13
ENDBRANCH   8   9
ENDBRANCH   7   8
ENDBRANCH   1   7
BRANCH   4  16
ATOM     16  C   UNL     1       4.536   4.359  17.913  0.00  0.00    +0.000 C 
BRANCH  16  17
ATOM     17  C   UNL     1       3.240   4.108  18.654  0.00  0.00    +0.000 A 
ATOM     18  C   UNL     1       2.941   4.791  19.840  0.00  0.00    +0.000 A 
ATOM     19  C   UNL     1       1.771   4.503  20.548  0.00  0.00    +0.000 A 
ATOM     20  C   UNL     1       0.881   3.541  20.071  0.00  0.00    +0.000 A 
ATOM     21  C   UNL     1       1.164   2.881  18.879  0.00  0.00    +0.000 A 
ATOM     22  C   UNL     1       2.332   3.151  18.175  0.00  0.00    +0.000 A 
BRANCH  21  23
ATOM     23  O   UNL     1       0.316   1.947  18.363  0.00  0.00    +0.000 OA
ATOM     24  H   UNL     1      -0.253   1.620  19.079  0.00  0.00    +0.000 HD
ENDBRANCH  21  23
ENDBRANCH  16  17
ENDBRANCH   4  16
TORSDOF 7
ENDMDL
