MODEL 1
REMARK VINA RESULT:      -8.4      0.000      0.000
REMARK  Name = 
REMARK  6 active torsions:
REMARK  status: ('A' for Active; 'I' for Inactive)
REMARK    1  A    between atoms: C_1  and  C_2
REMARK    2  A    between atoms: C_2  and  C_4
REMARK    3  A    between atoms: C_7  and  N_8
REMARK    4  A    between atoms: N_11  and  C_12
REMARK    5  A    between atoms: C_12  and  C_13
REMARK    6  A    between atoms: C_17  and  C_18
REMARK                            x       y       z     vdW  Elec       q    Type
REMARK                         _______ _______ _______ _____ _____    ______ ____
ROOT
ATOM      1  N   UNL     1       2.613   5.919  18.783  0.00  0.00    +0.000 N 
ATOM      2  C   UNL     1       4.002   5.750  18.584  0.00  0.00    +0.000 C 
ATOM      3  O   UNL     1       4.807   6.671  18.686  0.00  0.00    +0.000 OA
ATOM      4  N   UNL     1       4.441   4.450  18.295  0.00  0.00    +0.000 N 
ATOM      5  C   UNL     1       4.056   3.482  19.267  0.00  0.00    +0.000 A 
ATOM      6  C   UNL     1       5.013   2.597  19.770  0.00  0.00    +0.000 A 
ATOM      7  C   UNL     1       4.676   1.732  20.814  0.00  0.00    +0.000 A 
ATOM      8  C   UNL     1       3.387   1.750  21.355  0.00  0.00    +0.000 A 
ATOM      9  C   UNL     1       2.421   2.620  20.844  0.00  0.00    +0.000 A 
ATOM     10  C   UNL     1       2.764   3.474  19.795  0.00  0.00    +0.000 A 
ATOM     11  S   UNL     1       1.607   4.633  19.143  0.00  0.00    +0.000 S 
ATOM     12  O   UNL     1       0.718   4.995  20.225  0.00  0.00    +0.000 OA
ATOM     13  O   UNL     1       1.100   4.075  17.904  0.00  0.00    +0.000 OA
ENDROOT
BRANCH   1  17
ATOM     14  C   UNL     1       1.092   9.858  19.208  0.00  0.00    +0.000 A 
ATOM     15  C   UNL     1       1.406   9.349  17.942  0.00  0.00    +0.000 A 
ATOM     16  C   UNL     1       1.913   8.051  17.810  0.00  0.00    +0.000 A 
ATOM     17  C   UNL     1       2.111   7.249  18.935  0.00  0.00    +0.000 A 
ATOM     18  C   UNL     1       1.804   7.748  20.202  0.00  0.00    +0.000 A 
ATOM     19  C   UNL     1       1.296   9.049  20.336  0.00  0.00    +0.000 A 
BRANCH  14  21
ATOM     20  C   UNL     1      -0.633  11.679  18.554  0.00  0.00    +0.000 C 
ATOM     21  C   UNL     1       0.538  11.235  19.396  0.00  0.00    +0.000 C 
ATOM     22  O   UNL     1       1.029  11.981  20.242  0.00  0.00    +0.000 OA
ENDBRANCH  14  21
ENDBRANCH   1  17
BRANCH   4  23
ATOM     23  C   UNL     1       4.137   4.026  16.909  0.00  0.00    +0.000 C 
BRANCH  23  24
ATOM     24  C   UNL     1       5.283   4.111  15.925  0.00  0.00    +0.000 A 
ATOM     25  C   UNL     1       6.420   4.854  16.289  0.00  0.00    +0.000 A 
ATOM     26  C   UNL     1       7.435   5.108  15.367  0.00  0.00    +0.000 A 
ATOM     27  C   UNL     1       7.311   4.654  14.057  0.00  0.00    +0.000 A 
ATOM     28  C   UNL     1       6.194   3.900  13.673  0.00  0.00    +0.000 A 
ATOM     29  C   UNL     1       5.220   3.577  14.634  0.00  0.00    +0.000 A 
BRANCH  28  30
ATOM     30  C   UNL     1       5.966   3.511  12.235  0.00  0.00    +0.000 C 
ATOM     31  F   UNL     1       4.683   3.697  11.818  0.00  0.00    +0.000 F 
ATOM     32  F   UNL     1       6.753   4.196  11.363  0.00  0.00    +0.000 F 
ATOM     33  F   UNL     1       6.232   2.189  12.021  0.00  0.00    +0.000 F 
ENDBRANCH  28  30
ENDBRANCH  23  24
ENDBRANCH   4  23
TORSDOF 5
ENDMDL
MODEL 2
REMARK VINA RESULT:      -8.3      0.181      1.087
REMARK  Name = 
REMARK  6 active torsions:
REMARK  status: ('A' for Active; 'I' for Inactive)
REMARK    1  A    between atoms: C_1  and  C_2
REMARK    2  A    between atoms: C_2  and  C_4
REMARK    3  A    between atoms: C_7  and  N_8
REMARK    4  A    between atoms: N_11  and  C_12
REMARK    5  A    between atoms: C_12  and  C_13
REMARK    6  A    between atoms: C_17  and  C_18
REMARK                            x       y       z     vdW  Elec       q    Type
REMARK                         _______ _______ _______ _____ _____    ______ ____
ROOT
ATOM      1  N   UNL     1       2.610   5.931  18.746  0.00  0.00    +0.000 N 
ATOM      2  C   UNL     1       3.999   5.756  18.552  0.00  0.00    +0.000 C 
ATOM      3  O   UNL     1       4.807   6.675  18.645  0.00  0.00    +0.000 OA
ATOM      4  N   UNL     1       4.435   4.451  18.276  0.00  0.00    +0.000 N 
ATOM      5  C   UNL     1       4.045   3.495  19.258  0.00  0.00    +0.000 A 
ATOM      6  C   UNL     1       4.999   2.612  19.772  0.00  0.00    +0.000 A 
ATOM      7  C   UNL     1       4.658   1.760  20.824  0.00  0.00    +0.000 A 
ATOM      8  C   UNL     1       3.369   1.787  21.363  0.00  0.00    +0.000 A 
ATOM      9  C   UNL     1       2.406   2.654  20.841  0.00  0.00    +0.000 A 
ATOM     10  C   UNL     1       2.753   3.495  19.784  0.00  0.00    +0.000 A 
ATOM     11  S   UNL     1       1.599   4.652  19.119  0.00  0.00    +0.000 S 
ATOM     12  O   UNL     1       0.711   5.026  20.195  0.00  0.00    +0.000 OA
ATOM     13  O   UNL     1       1.093   4.082  17.885  0.00  0.00    +0.000 OA
ENDROOT
BRANCH   1  17
ATOM     14  C   UNL     1       1.160   9.895  19.182  0.00  0.00    +0.000 A 
ATOM     15  C   UNL     1       1.321   9.069  20.300  0.00  0.00    +0.000 A 
ATOM     16  C   UNL     1       1.794   7.760  20.149  0.00  0.00    +0.000 A 
ATOM     17  C   UNL     1       2.112   7.263  18.884  0.00  0.00    +0.000 A 
ATOM     18  C   UNL     1       1.951   8.078  17.761  0.00  0.00    +0.000 A 
ATOM     19  C   UNL     1       1.477   9.389  17.912  0.00  0.00    +0.000 A 
BRANCH  14  21
ATOM     20  C   UNL     1      -0.797  11.592  19.082  0.00  0.00    +0.000 C 
ATOM     21  C   UNL     1       0.668  11.303  19.297  0.00  0.00    +0.000 C 
ATOM     22  O   UNL     1       1.456  12.204  19.580  0.00  0.00    +0.000 OA
ENDBRANCH  14  21
ENDBRANCH   1  17
BRANCH   4  23
ATOM     23  C   UNL     1       4.132   4.014  16.894  0.00  0.00    +0.000 C 
BRANCH  23  24
ATOM     24  C   UNL     1       5.275   4.099  15.908  0.00  0.00    +0.000 A 
ATOM     25  C   UNL     1       6.413   4.841  16.270  0.00  0.00    +0.000 A 
ATOM     26  C   UNL     1       7.426   5.096  15.346  0.00  0.00    +0.000 A 
ATOM     27  C   UNL     1       7.299   4.641  14.035  0.00  0.00    +0.000 A 
ATOM     28  C   UNL     1       6.181   3.888  13.655  0.00  0.00    +0.000 A 
ATOM     29  C   UNL     1       5.209   3.565  14.617  0.00  0.00    +0.000 A 
BRANCH  28  30
ATOM     30  C   UNL     1       5.950   3.499  12.216  0.00  0.00    +0.000 C 
ATOM     31  F   UNL     1       6.279   2.206  11.943  0.00  0.00    +0.000 F 
ATOM     32  F   UNL     1       4.658   3.656  11.820  0.00  0.00    +0.000 F 
ATOM     33  F   UNL     1       6.698   4.256  11.362  0.00  0.00    +0.000 F 
ENDBRANCH  28  30
ENDBRANCH  23  24
ENDBRANCH   4  23
TORSDOF 5
ENDMDL
MODEL 3
REMARK VINA RESULT:      -8.3      4.784      8.219
REMARK  Name = 
REMARK  6 active torsions:
REMARK  status: ('A' for Active; 'I' for Inactive)
REMARK    1  A    between atoms: C_1  and  C_2
REMARK    2  A    between atoms: C_2  and  C_4
REMARK    3  A    between atoms: C_7  and  N_8
REMARK    4  A    between atoms: N_11  and  C_12
REMARK    5  A    between atoms: C_12  and  C_13
REMARK    6  A    between atoms: C_17  and  C_18
REMARK                            x       y       z     vdW  Elec       q    Type
REMARK                         _______ _______ _______ _____ _____    ______ ____
ROOT
ATOM      1  N   UNL     1       4.295   5.090  17.961  0.00  0.00    +0.000 N 
ATOM      2  C   UNL     1       2.957   5.542  17.925  0.00  0.00    +0.000 C 
ATOM      3  O   UNL     1       2.343   5.728  16.877  0.00  0.00    +0.000 OA
ATOM      4  N   UNL     1       2.328   5.742  19.163  0.00  0.00    +0.000 N 
ATOM      5  C   UNL     1       2.338   4.593  20.005  0.00  0.00    +0.000 A 
ATOM      6  C   UNL     1       1.152   4.183  20.620  0.00  0.00    +0.000 A 
ATOM      7  C   UNL     1       1.124   2.989  21.343  0.00  0.00    +0.000 A 
ATOM      8  C   UNL     1       2.275   2.204  21.452  0.00  0.00    +0.000 A 
ATOM      9  C   UNL     1       3.468   2.618  20.855  0.00  0.00    +0.000 A 
ATOM     10  C   UNL     1       3.490   3.817  20.143  0.00  0.00    +0.000 A 
ATOM     11  S   UNL     1       4.949   4.366  19.319  0.00  0.00    +0.000 S 
ATOM     12  O   UNL     1       5.687   3.184  18.938  0.00  0.00    +0.000 OA
ATOM     13  O   UNL     1       5.546   5.392  20.153  0.00  0.00    +0.000 OA
ENDROOT
BRANCH   1  17
ATOM     14  C   UNL     1       6.467   4.868  14.322  0.00  0.00    +0.000 A 
ATOM     15  C   UNL     1       6.708   5.902  15.233  0.00  0.00    +0.000 A 
ATOM     16  C   UNL     1       5.984   5.973  16.429  0.00  0.00    +0.000 A 
ATOM     17  C   UNL     1       5.014   5.015  16.728  0.00  0.00    +0.000 A 
ATOM     18  C   UNL     1       4.764   3.980  15.825  0.00  0.00    +0.000 A 
ATOM     19  C   UNL     1       5.489   3.908  14.626  0.00  0.00    +0.000 A 
BRANCH  14  21
ATOM     20  C   UNL     1       6.875   3.634  12.079  0.00  0.00    +0.000 C 
ATOM     21  C   UNL     1       7.225   4.746  13.038  0.00  0.00    +0.000 C 
ATOM     22  O   UNL     1       8.109   5.557  12.770  0.00  0.00    +0.000 OA
ENDBRANCH  14  21
ENDBRANCH   1  17
BRANCH   4  23
ATOM     23  C   UNL     1       2.780   6.969  19.856  0.00  0.00    +0.000 C 
BRANCH  23  24
ATOM     24  C   UNL     1       1.734   8.045  20.048  0.00  0.00    +0.000 A 
ATOM     25  C   UNL     1       1.505   8.946  18.994  0.00  0.00    +0.000 A 
ATOM     26  C   UNL     1       0.678  10.056  19.167  0.00  0.00    +0.000 A 
ATOM     27  C   UNL     1       0.098  10.300  20.409  0.00  0.00    +0.000 A 
ATOM     28  C   UNL     1       0.301   9.410  21.471  0.00  0.00    +0.000 A 
ATOM     29  C   UNL     1       1.065   8.250  21.259  0.00  0.00    +0.000 A 
BRANCH  28  30
ATOM     30  C   UNL     1      -0.201   9.717  22.859  0.00  0.00    +0.000 C 
ATOM     31  F   UNL     1       0.724   9.494  23.834  0.00  0.00    +0.000 F 
ATOM     32  F   UNL     1      -0.609  11.005  23.009  0.00  0.00    +0.000 F 
ATOM     33  F   UNL     1      -1.275   8.942  23.190  0.00  0.00    +0.000 F 
ENDBRANCH  28  30
ENDBRANCH  23  24
ENDBRANCH   4  23
TORSDOF 5
ENDMDL
MODEL 4
REMARK VINA RESULT:      -8.3      4.782      8.214
REMARK  Name = 
REMARK  6 active torsions:
REMARK  status: ('A' for Active; 'I' for Inactive)
REMARK    1  A    between atoms: C_1  and  C_2
REMARK    2  A    between atoms: C_2  and  C_4
REMARK    3  A    between atoms: C_7  and  N_8
REMARK    4  A    between atoms: N_11  and  C_12
REMARK    5  A    between atoms: C_12  and  C_13
REMARK    6  A    between atoms: C_17  and  C_18
REMARK                            x       y       z     vdW  Elec       q    Type
REMARK                         _______ _______ _______ _____ _____    ______ ____
ROOT
ATOM      1  N   UNL     1       4.344   5.078  17.969  0.00  0.00    +0.000 N 
ATOM      2  C   UNL     1       3.010   5.538  17.903  0.00  0.00    +0.000 C 
ATOM      3  O   UNL     1       2.420   5.724  16.842  0.00  0.00    +0.000 OA
ATOM      4  N   UNL     1       2.355   5.744  19.126  0.00  0.00    +0.000 N 
ATOM      5  C   UNL     1       2.341   4.597  19.971  0.00  0.00    +0.000 A 
ATOM      6  C   UNL     1       1.139   4.195  20.562  0.00  0.00    +0.000 A 
ATOM      7  C   UNL     1       1.088   3.003  21.286  0.00  0.00    +0.000 A 
ATOM      8  C   UNL     1       2.233   2.212  21.422  0.00  0.00    +0.000 A 
ATOM      9  C   UNL     1       3.441   2.618  20.850  0.00  0.00    +0.000 A 
ATOM     10  C   UNL     1       3.485   3.816  20.136  0.00  0.00    +0.000 A 
ATOM     11  S   UNL     1       4.965   4.354  19.343  0.00  0.00    +0.000 S 
ATOM     12  O   UNL     1       5.705   3.167  18.980  0.00  0.00    +0.000 OA
ATOM     13  O   UNL     1       5.549   5.379  20.187  0.00  0.00    +0.000 OA
ENDROOT
BRANCH   1  17
ATOM     14  C   UNL     1       6.523   4.837  14.336  0.00  0.00    +0.000 A 
ATOM     15  C   UNL     1       5.473   3.950  14.596  0.00  0.00    +0.000 A 
ATOM     16  C   UNL     1       4.762   4.030  15.799  0.00  0.00    +0.000 A 
ATOM     17  C   UNL     1       5.090   4.996  16.752  0.00  0.00    +0.000 A 
ATOM     18  C   UNL     1       6.138   5.884  16.504  0.00  0.00    +0.000 A 
ATOM     19  C   UNL     1       6.851   5.804  15.299  0.00  0.00    +0.000 A 
BRANCH  14  21
ATOM     20  C   UNL     1       6.987   3.730  12.038  0.00  0.00    +0.000 C 
ATOM     21  C   UNL     1       7.303   4.795  13.059  0.00  0.00    +0.000 C 
ATOM     22  O   UNL     1       8.179   5.632  12.850  0.00  0.00    +0.000 OA
ENDBRANCH  14  21
ENDBRANCH   1  17
BRANCH   4  23
ATOM     23  C   UNL     1       2.799   6.971  19.826  0.00  0.00    +0.000 C 
BRANCH  23  24
ATOM     24  C   UNL     1       1.745   8.036  20.029  0.00  0.00    +0.000 A 
ATOM     25  C   UNL     1       1.493   8.932  18.975  0.00  0.00    +0.000 A 
ATOM     26  C   UNL     1       0.658  10.034  19.157  0.00  0.00    +0.000 A 
ATOM     27  C   UNL     1       0.089  10.275  20.405  0.00  0.00    +0.000 A 
ATOM     28  C   UNL     1       0.315   9.389  21.466  0.00  0.00    +0.000 A 
ATOM     29  C   UNL     1       1.088   8.236  21.247  0.00  0.00    +0.000 A 
BRANCH  28  30
ATOM     30  C   UNL     1      -0.174   9.693  22.860  0.00  0.00    +0.000 C 
ATOM     31  F   UNL     1      -1.254   8.952  23.232  0.00  0.00    +0.000 F 
ATOM     32  F   UNL     1       0.774   9.493  23.815  0.00  0.00    +0.000 F 
ATOM     33  F   UNL     1      -0.563  10.995  22.986  0.00  0.00    +0.000 F 
ENDBRANCH  28  30
ENDBRANCH  23  24
ENDBRANCH   4  23
TORSDOF 5
ENDMDL
MODEL 5
REMARK VINA RESULT:      -8.0      3.812      7.681
REMARK  Name = 
REMARK  6 active torsions:
REMARK  status: ('A' for Active; 'I' for Inactive)
REMARK    1  A    between atoms: C_1  and  C_2
REMARK    2  A    between atoms: C_2  and  C_4
REMARK    3  A    between atoms: C_7  and  N_8
REMARK    4  A    between atoms: N_11  and  C_12
REMARK    5  A    between atoms: C_12  and  C_13
REMARK    6  A    between atoms: C_17  and  C_18
REMARK                            x       y       z     vdW  Elec       q    Type
REMARK                         _______ _______ _______ _____ _____    ______ ____
ROOT
ATOM      1  N   UNL     1       4.285   5.151  17.979  0.00  0.00    +0.000 N 
ATOM      2  C   UNL     1       2.959   5.639  17.949  0.00  0.00    +0.000 C 
ATOM      3  O   UNL     1       2.351   5.854  16.904  0.00  0.00    +0.000 OA
ATOM      4  N   UNL     1       2.335   5.840  19.189  0.00  0.00    +0.000 N 
ATOM      5  C   UNL     1       2.315   4.681  20.017  0.00  0.00    +0.000 A 
ATOM      6  C   UNL     1       1.119   4.294  20.628  0.00  0.00    +0.000 A 
ATOM      7  C   UNL     1       1.058   3.092  21.335  0.00  0.00    +0.000 A 
ATOM      8  C   UNL     1       2.189   2.276  21.434  0.00  0.00    +0.000 A 
ATOM      9  C   UNL     1       3.392   2.666  20.842  0.00  0.00    +0.000 A 
ATOM     10  C   UNL     1       3.446   3.873  20.145  0.00  0.00    +0.000 A 
ATOM     11  S   UNL     1       4.919   4.394  19.328  0.00  0.00    +0.000 S 
ATOM     12  O   UNL     1       5.626   3.197  18.932  0.00  0.00    +0.000 OA
ATOM     13  O   UNL     1       5.543   5.393  20.175  0.00  0.00    +0.000 OA
ENDROOT
BRANCH   1  17
ATOM     14  C   UNL     1       6.451   4.921  14.338  0.00  0.00    +0.000 A 
ATOM     15  C   UNL     1       6.653   5.988  15.220  0.00  0.00    +0.000 A 
ATOM     16  C   UNL     1       5.931   6.062  16.416  0.00  0.00    +0.000 A 
ATOM     17  C   UNL     1       5.002   5.073  16.746  0.00  0.00    +0.000 A 
ATOM     18  C   UNL     1       4.791   4.005  15.871  0.00  0.00    +0.000 A 
ATOM     19  C   UNL     1       5.515   3.931  14.672  0.00  0.00    +0.000 A 
BRANCH  14  21
ATOM     20  C   UNL     1       6.849   3.690  12.091  0.00  0.00    +0.000 C 
ATOM     21  C   UNL     1       7.208   4.796  13.053  0.00  0.00    +0.000 C 
ATOM     22  O   UNL     1       8.101   5.600  12.789  0.00  0.00    +0.000 OA
ENDBRANCH  14  21
ENDBRANCH   1  17
BRANCH   4  23
ATOM     23  C   UNL     1       2.820   7.046  19.898  0.00  0.00    +0.000 C 
BRANCH  23  24
ATOM     24  C   UNL     1       1.768   8.076  20.248  0.00  0.00    +0.000 A 
ATOM     25  C   UNL     1       1.265   8.093  21.561  0.00  0.00    +0.000 A 
ATOM     26  C   UNL     1       0.182   8.903  21.901  0.00  0.00    +0.000 A 
ATOM     27  C   UNL     1      -0.437   9.680  20.925  0.00  0.00    +0.000 A 
ATOM     28  C   UNL     1       0.055   9.689  19.613  0.00  0.00    +0.000 A 
ATOM     29  C   UNL     1       1.200   8.935  19.303  0.00  0.00    +0.000 A 
BRANCH  28  30
ATOM     30  C   UNL     1      -0.673  10.411  18.507  0.00  0.00    +0.000 C 
ATOM     31  F   UNL     1      -2.004  10.570  18.745  0.00  0.00    +0.000 F 
ATOM     32  F   UNL     1      -0.178  11.654  18.264  0.00  0.00    +0.000 F 
ATOM     33  F   UNL     1      -0.590   9.736  17.324  0.00  0.00    +0.000 F 
ENDBRANCH  28  30
ENDBRANCH  23  24
ENDBRANCH   4  23
TORSDOF 5
ENDMDL
MODEL 6
REMARK VINA RESULT:      -8.0      3.823      7.711
REMARK  Name = 
REMARK  6 active torsions:
REMARK  status: ('A' for Active; 'I' for Inactive)
REMARK    1  A    between atoms: C_1  and  C_2
REMARK    2  A    between atoms: C_2  and  C_4
REMARK    3  A    between atoms: C_7  and  N_8
REMARK    4  A    between atoms: N_11  and  C_12
REMARK    5  A    between atoms: C_12  and  C_13
REMARK    6  A    between atoms: C_17  and  C_18
REMARK                            x       y       z     vdW  Elec       q    Type
REMARK                         _______ _______ _______ _____ _____    ______ ____
ROOT
ATOM      1  N   UNL     1       4.342   5.149  17.964  0.00  0.00    +0.000 N 
ATOM      2  C   UNL     1       3.019   5.642  17.902  0.00  0.00    +0.000 C 
ATOM      3  O   UNL     1       2.435   5.853  16.843  0.00  0.00    +0.000 OA
ATOM      4  N   UNL     1       2.369   5.854  19.127  0.00  0.00    +0.000 N 
ATOM      5  C   UNL     1       2.327   4.700  19.962  0.00  0.00    +0.000 A 
ATOM      6  C   UNL     1       1.116   4.322  20.549  0.00  0.00    +0.000 A 
ATOM      7  C   UNL     1       1.035   3.125  21.263  0.00  0.00    +0.000 A 
ATOM      8  C   UNL     1       2.160   2.305  21.391  0.00  0.00    +0.000 A 
ATOM      9  C   UNL     1       3.378   2.686  20.823  0.00  0.00    +0.000 A 
ATOM     10  C   UNL     1       3.451   3.889  20.120  0.00  0.00    +0.000 A 
ATOM     11  S   UNL     1       4.944   4.398  19.332  0.00  0.00    +0.000 S 
ATOM     12  O   UNL     1       5.654   3.196  18.958  0.00  0.00    +0.000 OA
ATOM     13  O   UNL     1       5.553   5.400  20.185  0.00  0.00    +0.000 OA
ENDROOT
BRANCH   1  17
ATOM     14  C   UNL     1       6.515   4.885  14.329  0.00  0.00    +0.000 A 
ATOM     15  C   UNL     1       5.488   3.977  14.612  0.00  0.00    +0.000 A 
ATOM     16  C   UNL     1       4.779   4.066  15.816  0.00  0.00    +0.000 A 
ATOM     17  C   UNL     1       5.086   5.059  16.747  0.00  0.00    +0.000 A 
ATOM     18  C   UNL     1       6.110   5.968  16.476  0.00  0.00    +0.000 A 
ATOM     19  C   UNL     1       6.821   5.880  15.270  0.00  0.00    +0.000 A 
BRANCH  14  21
ATOM     20  C   UNL     1       6.964   3.772  12.031  0.00  0.00    +0.000 C 
ATOM     21  C   UNL     1       7.291   4.835  13.051  0.00  0.00    +0.000 C 
ATOM     22  O   UNL     1       8.174   5.665  12.839  0.00  0.00    +0.000 OA
ENDBRANCH  14  21
ENDBRANCH   1  17
BRANCH   4  23
ATOM     23  C   UNL     1       2.844   7.062  19.839  0.00  0.00    +0.000 C 
BRANCH  23  24
ATOM     24  C   UNL     1       1.781   8.073  20.207  0.00  0.00    +0.000 A 
ATOM     25  C   UNL     1       1.229   8.018  21.499  0.00  0.00    +0.000 A 
ATOM     26  C   UNL     1       0.135   8.810  21.845  0.00  0.00    +0.000 A 
ATOM     27  C   UNL     1      -0.447   9.643  20.892  0.00  0.00    +0.000 A 
ATOM     28  C   UNL     1       0.093   9.725  19.602  0.00  0.00    +0.000 A 
ATOM     29  C   UNL     1       1.249   8.987  19.293  0.00  0.00    +0.000 A 
BRANCH  28  30
ATOM     30  C   UNL     1      -0.592  10.511  18.513  0.00  0.00    +0.000 C 
ATOM     31  F   UNL     1       0.013  11.699  18.237  0.00  0.00    +0.000 F 
ATOM     32  F   UNL     1      -0.668   9.838  17.334  0.00  0.00    +0.000 F 
ATOM     33  F   UNL     1      -1.877  10.824  18.849  0.00  0.00    +0.000 F 
ENDBRANCH  28  30
ENDBRANCH  23  24
ENDBRANCH   4  23
TORSDOF 5
ENDMDL
MODEL 7
REMARK VINA RESULT:      -7.8      4.633      7.910
REMARK  Name = 
REMARK  6 active torsions:
REMARK  status: ('A' for Active; 'I' for Inactive)
REMARK    1  A    between atoms: C_1  and  C_2
REMARK    2  A    between atoms: C_2  and  C_4
REMARK    3  A    between atoms: C_7  and  N_8
REMARK    4  A    between atoms: N_11  and  C_12
REMARK    5  A    between atoms: C_12  and  C_13
REMARK    6  A    between atoms: C_17  and  C_18
REMARK                            x       y       z     vdW  Elec       q    Type
REMARK                         _______ _______ _______ _____ _____    ______ ____
ROOT
ATOM      1  N   UNL     1       4.171   5.011  18.046  0.00  0.00    +0.000 N 
ATOM      2  C   UNL     1       2.813   5.401  18.028  0.00  0.00    +0.000 C 
ATOM      3  O   UNL     1       2.168   5.524  16.990  0.00  0.00    +0.000 OA
ATOM      4  N   UNL     1       2.204   5.614  19.273  0.00  0.00    +0.000 N 
ATOM      5  C   UNL     1       2.286   4.495  20.152  0.00  0.00    +0.000 A 
ATOM      6  C   UNL     1       1.135   4.052  20.809  0.00  0.00    +0.000 A 
ATOM      7  C   UNL     1       1.178   2.883  21.570  0.00  0.00    +0.000 A 
ATOM      8  C   UNL     1       2.367   2.155  21.677  0.00  0.00    +0.000 A 
ATOM      9  C   UNL     1       3.525   2.603  21.038  0.00  0.00    +0.000 A 
ATOM     10  C   UNL     1       3.476   3.778  20.287  0.00  0.00    +0.000 A 
ATOM     11  S   UNL     1       4.889   4.364  19.411  0.00  0.00    +0.000 S 
ATOM     12  O   UNL     1       5.672   3.204  19.050  0.00  0.00    +0.000 OA
ATOM     13  O   UNL     1       5.456   5.444  20.197  0.00  0.00    +0.000 OA
ENDROOT
BRANCH   1  17
ATOM     14  C   UNL     1       6.265   4.781  14.362  0.00  0.00    +0.000 A 
ATOM     15  C   UNL     1       6.126   6.005  15.026  0.00  0.00    +0.000 A 
ATOM     16  C   UNL     1       5.428   6.075  16.238  0.00  0.00    +0.000 A 
ATOM     17  C   UNL     1       4.865   4.928  16.800  0.00  0.00    +0.000 A 
ATOM     18  C   UNL     1       4.996   3.702  16.144  0.00  0.00    +0.000 A 
ATOM     19  C   UNL     1       5.695   3.631  14.929  0.00  0.00    +0.000 A 
BRANCH  14  21
ATOM     20  C   UNL     1       6.614   3.579  12.092  0.00  0.00    +0.000 C 
ATOM     21  C   UNL     1       7.011   4.657  13.071  0.00  0.00    +0.000 C 
ATOM     22  O   UNL     1       7.925   5.438  12.816  0.00  0.00    +0.000 OA
ENDBRANCH  14  21
ENDBRANCH   1  17
BRANCH   4  23
ATOM     23  C   UNL     1       2.615   6.883  19.916  0.00  0.00    +0.000 C 
BRANCH  23  24
ATOM     24  C   UNL     1       1.816   8.108  19.531  0.00  0.00    +0.000 A 
ATOM     25  C   UNL     1       1.939   8.598  18.219  0.00  0.00    +0.000 A 
ATOM     26  C   UNL     1       1.363   9.813  17.851  0.00  0.00    +0.000 A 
ATOM     27  C   UNL     1       0.684  10.574  18.800  0.00  0.00    +0.000 A 
ATOM     28  C   UNL     1       0.537  10.101  20.110  0.00  0.00    +0.000 A 
ATOM     29  C   UNL     1       1.048   8.835  20.446  0.00  0.00    +0.000 A 
BRANCH  28  30
ATOM     30  C   UNL     1      -0.071  10.959  21.191  0.00  0.00    +0.000 C 
ATOM     31  F   UNL     1       0.044  10.425  22.439  0.00  0.00    +0.000 F 
ATOM     32  F   UNL     1       0.473  12.203  21.257  0.00  0.00    +0.000 F 
ATOM     33  F   UNL     1      -1.409  11.144  20.995  0.00  0.00    +0.000 F 
ENDBRANCH  28  30
ENDBRANCH  23  24
ENDBRANCH   4  23
TORSDOF 5
ENDMDL
MODEL 8
REMARK VINA RESULT:      -7.7      9.077     11.824
REMARK  Name = 
REMARK  6 active torsions:
REMARK  status: ('A' for Active; 'I' for Inactive)
REMARK    1  A    between atoms: C_1  and  C_2
REMARK    2  A    between atoms: C_2  and  C_4
REMARK    3  A    between atoms: C_7  and  N_8
REMARK    4  A    between atoms: N_11  and  C_12
REMARK    5  A    between atoms: C_12  and  C_13
REMARK    6  A    between atoms: C_17  and  C_18
REMARK                            x       y       z     vdW  Elec       q    Type
REMARK                         _______ _______ _______ _____ _____    ______ ____
ROOT
ATOM      1  N   UNL     1       0.514  12.818  19.702  0.00  0.00    +0.000 N 
ATOM      2  C   UNL     1      -0.729  13.478  19.826  0.00  0.00    +0.000 C 
ATOM      3  O   UNL     1      -0.853  14.694  19.703  0.00  0.00    +0.000 OA
ATOM      4  N   UNL     1      -1.850  12.669  20.064  0.00  0.00    +0.000 N 
ATOM      5  C   UNL     1      -2.037  11.645  19.092  0.00  0.00    +0.000 A 
ATOM      6  C   UNL     1      -3.300  11.464  18.521  0.00  0.00    +0.000 A 
ATOM      7  C   UNL     1      -3.465  10.552  17.478  0.00  0.00    +0.000 A 
ATOM      8  C   UNL     1      -2.372   9.820  17.003  0.00  0.00    +0.000 A 
ATOM      9  C   UNL     1      -1.111   9.984  17.582  0.00  0.00    +0.000 A 
ATOM     10  C   UNL     1      -0.958  10.891  18.630  0.00  0.00    +0.000 A 
ATOM     11  S   UNL     1       0.618  11.183  19.365  0.00  0.00    +0.000 S 
ATOM     12  O   UNL     1       1.610  10.956  18.338  0.00  0.00    +0.000 OA
ATOM     13  O   UNL     1       0.645  10.449  20.616  0.00  0.00    +0.000 OA
ENDROOT
BRANCH   1  17
ATOM     14  C   UNL     1       3.999  15.220  19.399  0.00  0.00    +0.000 A 
ATOM     15  C   UNL     1       3.157  15.045  18.295  0.00  0.00    +0.000 A 
ATOM     16  C   UNL     1       2.012  14.246  18.400  0.00  0.00    +0.000 A 
ATOM     17  C   UNL     1       1.695  13.616  19.604  0.00  0.00    +0.000 A 
ATOM     18  C   UNL     1       2.531  13.781  20.711  0.00  0.00    +0.000 A 
ATOM     19  C   UNL     1       3.678  14.581  20.607  0.00  0.00    +0.000 A 
BRANCH  14  21
ATOM     20  C   UNL     1       6.515  15.554  19.925  0.00  0.00    +0.000 C 
ATOM     21  C   UNL     1       5.227  16.073  19.336  0.00  0.00    +0.000 C 
ATOM     22  O   UNL     1       5.177  17.176  18.795  0.00  0.00    +0.000 OA
ENDBRANCH  14  21
ENDBRANCH   1  17
BRANCH   4  23
ATOM     23  C   UNL     1      -1.919  12.164  21.454  0.00  0.00    +0.000 C 
BRANCH  23  24
ATOM     24  C   UNL     1      -3.154  12.551  22.238  0.00  0.00    +0.000 A 
ATOM     25  C   UNL     1      -3.088  12.517  23.642  0.00  0.00    +0.000 A 
ATOM     26  C   UNL     1      -4.232  12.701  24.417  0.00  0.00    +0.000 A 
ATOM     27  C   UNL     1      -5.467  12.884  23.799  0.00  0.00    +0.000 A 
ATOM     28  C   UNL     1      -5.555  12.935  22.401  0.00  0.00    +0.000 A 
ATOM     29  C   UNL     1      -4.382  12.835  21.634  0.00  0.00    +0.000 A 
BRANCH  28  30
ATOM     30  C   UNL     1      -6.889  12.996  21.701  0.00  0.00    +0.000 C 
ATOM     31  F   UNL     1      -7.479  11.779  21.547  0.00  0.00    +0.000 F 
ATOM     32  F   UNL     1      -7.795  13.781  22.343  0.00  0.00    +0.000 F 
ATOM     33  F   UNL     1      -6.775  13.509  20.442  0.00  0.00    +0.000 F 
ENDBRANCH  28  30
ENDBRANCH  23  24
ENDBRANCH   4  23
TORSDOF 5
ENDMDL
MODEL 9
REMARK VINA RESULT:      -7.6      8.993     11.834
REMARK  Name = 
REMARK  6 active torsions:
REMARK  status: ('A' for Active; 'I' for Inactive)
REMARK    1  A    between atoms: C_1  and  C_2
REMARK    2  A    between atoms: C_2  and  C_4
REMARK    3  A    between atoms: C_7  and  N_8
REMARK    4  A    between atoms: N_11  and  C_12
REMARK    5  A    between atoms: C_12  and  C_13
REMARK    6  A    between atoms: C_17  and  C_18
REMARK                            x       y       z     vdW  Elec       q    Type
REMARK                         _______ _______ _______ _____ _____    ______ ____
ROOT
ATOM      1  N   UNL     1       0.513  12.834  19.629  0.00  0.00    +0.000 N 
ATOM      2  C   UNL     1      -0.732  13.490  19.757  0.00  0.00    +0.000 C 
ATOM      3  O   UNL     1      -0.864  14.704  19.625  0.00  0.00    +0.000 OA
ATOM      4  N   UNL     1      -1.847  12.678  20.012  0.00  0.00    +0.000 N 
ATOM      5  C   UNL     1      -2.037  11.644  19.050  0.00  0.00    +0.000 A 
ATOM      6  C   UNL     1      -3.304  11.452  18.491  0.00  0.00    +0.000 A 
ATOM      7  C   UNL     1      -3.472  10.529  17.457  0.00  0.00    +0.000 A 
ATOM      8  C   UNL     1      -2.380   9.799  16.980  0.00  0.00    +0.000 A 
ATOM      9  C   UNL     1      -1.115   9.974  17.547  0.00  0.00    +0.000 A 
ATOM     10  C   UNL     1      -0.958  10.891  18.587  0.00  0.00    +0.000 A 
ATOM     11  S   UNL     1       0.622  11.197  19.306  0.00  0.00    +0.000 S 
ATOM     12  O   UNL     1       1.607  10.966  18.273  0.00  0.00    +0.000 OA
ATOM     13  O   UNL     1       0.663  10.474  20.563  0.00  0.00    +0.000 OA
ENDROOT
BRANCH   1  17
ATOM     14  C   UNL     1       4.028  15.189  19.309  0.00  0.00    +0.000 A 
ATOM     15  C   UNL     1       3.624  14.678  20.548  0.00  0.00    +0.000 A 
ATOM     16  C   UNL     1       2.460  13.907  20.648  0.00  0.00    +0.000 A 
ATOM     17  C   UNL     1       1.689  13.637  19.515  0.00  0.00    +0.000 A 
ATOM     18  C   UNL     1       2.081  14.146  18.275  0.00  0.00    +0.000 A 
ATOM     19  C   UNL     1       3.248  14.918  18.175  0.00  0.00    +0.000 A 
BRANCH  14  21
ATOM     20  C   UNL     1       6.614  15.324  19.198  0.00  0.00    +0.000 C 
ATOM     21  C   UNL     1       5.270  16.009  19.153  0.00  0.00    +0.000 C 
ATOM     22  O   UNL     1       5.184  17.222  18.976  0.00  0.00    +0.000 OA
ENDBRANCH  14  21
ENDBRANCH   1  17
BRANCH   4  23
ATOM     23  C   UNL     1      -1.903  12.184  21.407  0.00  0.00    +0.000 C 
BRANCH  23  24
ATOM     24  C   UNL     1      -3.132  12.575  22.198  0.00  0.00    +0.000 A 
ATOM     25  C   UNL     1      -3.046  12.579  23.601  0.00  0.00    +0.000 A 
ATOM     26  C   UNL     1      -4.183  12.766  24.388  0.00  0.00    +0.000 A 
ATOM     27  C   UNL     1      -5.428  12.917  23.782  0.00  0.00    +0.000 A 
ATOM     28  C   UNL     1      -5.536  12.929  22.385  0.00  0.00    +0.000 A 
ATOM     29  C   UNL     1      -4.373  12.826  21.604  0.00  0.00    +0.000 A 
BRANCH  28  30
ATOM     30  C   UNL     1      -6.881  12.954  21.703  0.00  0.00    +0.000 C 
ATOM     31  F   UNL     1      -7.514  14.156  21.792  0.00  0.00    +0.000 F 
ATOM     32  F   UNL     1      -6.814  12.655  20.378  0.00  0.00    +0.000 F 
ATOM     33  F   UNL     1      -7.741  12.046  22.250  0.00  0.00    +0.000 F 
ENDBRANCH  28  30
ENDBRANCH  23  24
ENDBRANCH   4  23
TORSDOF 5
ENDMDL
