MODEL 1
REMARK VINA RESULT:      -7.7      0.000      0.000
REMARK  Name = 
REMARK  6 active torsions:
REMARK  status: ('A' for Active; 'I' for Inactive)
REMARK    1  A    between atoms: C_2  and  C_18
REMARK    2  A    between atoms: N_3  and  C_4
REMARK    3  A    between atoms: C_4  and  C_5
REMARK    4  A    between atoms: C_5  and  N_6
REMARK    5  A    between atoms: C_5  and  C_15
REMARK    6  A    between atoms: C_7  and  C_9
REMARK                            x       y       z     vdW  Elec       q    Type
REMARK                         _______ _______ _______ _____ _____    ______ ____
ROOT
ATOM      1  C   UNL     1       3.182   3.890  19.010  0.00  0.00    +0.000 C 
ENDROOT
BRANCH   1   2
ATOM      2  N   UNL     1       3.902   4.081  17.753  0.00  0.00    +0.000 N 
ATOM      3  C   UNL     1       5.272   4.196  17.683  0.00  0.00    +0.000 C 
ATOM      4  O   UNL     1       6.010   4.135  18.660  0.00  0.00    +0.000 OA
ATOM      5  H   UNL     1       3.362   3.953  16.910  0.00  0.00    +0.000 HD
BRANCH   3   6
ATOM      6  C   UNL     1       5.859   4.368  16.337  0.00  0.00    +0.000 A 
ATOM      7  C   UNL     1       5.334   3.801  15.176  0.00  0.00    +0.000 A 
ATOM      8  C   UNL     1       5.964   4.042  13.954  0.00  0.00    +0.000 A 
ATOM      9  C   UNL     1       7.097   4.843  13.940  0.00  0.00    +0.000 A 
ATOM     10  N   UNL     1       7.626   5.413  15.043  0.00  0.00    +0.000 NA
ATOM     11  C   UNL     1       6.988   5.174  16.215  0.00  0.00    +0.000 A 
ENDBRANCH   3   6
ENDBRANCH   1   2
BRANCH   1  12
ATOM     12  C   UNL     1       1.701   3.780  18.738  0.00  0.00    +0.000 C 
ATOM     13  C   UNL     1       1.038   2.427  18.630  0.00  0.00    +0.000 C 
ATOM     14  C   UNL     1       0.754   3.307  19.814  0.00  0.00    +0.000 C 
ENDBRANCH   1  12
BRANCH   1  15
ATOM     15  C   UNL     1       3.486   4.984  20.063  0.00  0.00    +0.000 C 
BRANCH  15  18
ATOM     16  O   UNL     1       3.678   7.122  18.219  0.00  0.00    +0.000 OA
ATOM     17  C   UNL     1       2.792   7.139  19.063  0.00  0.00    +0.000 C 
ATOM     18  N   UNL     1       2.601   6.140  19.990  0.00  0.00    +0.000 N 
ATOM     19  H   UNL     1       1.760   6.115  20.554  0.00  0.00    +0.000 HD
BRANCH  17  20
ATOM     20  C   UNL     1       1.824   8.253  19.094  0.00  0.00    +0.000 A 
ATOM     21  C   UNL     1       1.427   8.945  17.948  0.00  0.00    +0.000 A 
ATOM     22  C   UNL     1       0.500   9.978  18.068  0.00  0.00    +0.000 A 
ATOM     23  C   UNL     1       0.007  10.282  19.329  0.00  0.00    +0.000 A 
ATOM     24  N   UNL     1       0.367   9.626  20.454  0.00  0.00    +0.000 NA
ATOM     25  C   UNL     1       1.258   8.614  20.310  0.00  0.00    +0.000 A 
ENDBRANCH  17  20
ENDBRANCH  15  18
ENDBRANCH   1  15
TORSDOF 6
ENDMDL
MODEL 2
REMARK VINA RESULT:      -7.7      1.227      6.850
REMARK  Name = 
REMARK  6 active torsions:
REMARK  status: ('A' for Active; 'I' for Inactive)
REMARK    1  A    between atoms: C_2  and  C_18
REMARK    2  A    between atoms: N_3  and  C_4
REMARK    3  A    between atoms: C_4  and  C_5
REMARK    4  A    between atoms: C_5  and  N_6
REMARK    5  A    between atoms: C_5  and  C_15
REMARK    6  A    between atoms: C_7  and  C_9
REMARK                            x       y       z     vdW  Elec       q    Type
REMARK                         _______ _______ _______ _____ _____    ______ ____
ROOT
ATOM      1  C   UNL     1       2.360   5.158  20.067  0.00  0.00    +0.000 C 
ENDROOT
BRANCH   1   2
ATOM      2  N   UNL     1       1.906   6.516  20.357  0.00  0.00    +0.000 N 
ATOM      3  C   UNL     1       1.935   7.531  19.428  0.00  0.00    +0.000 C 
ATOM      4  O   UNL     1       2.328   7.388  18.276  0.00  0.00    +0.000 OA
ATOM      5  H   UNL     1       1.405   6.639  21.225  0.00  0.00    +0.000 HD
BRANCH   3   6
ATOM      6  C   UNL     1       1.425   8.849  19.864  0.00  0.00    +0.000 A 
ATOM      7  C   UNL     1       0.981   9.127  21.157  0.00  0.00    +0.000 A 
ATOM      8  C   UNL     1       0.533  10.414  21.461  0.00  0.00    +0.000 A 
ATOM      9  C   UNL     1       0.547  11.375  20.460  0.00  0.00    +0.000 A 
ATOM     10  N   UNL     1       0.978  11.140  19.202  0.00  0.00    +0.000 NA
ATOM     11  C   UNL     1       1.419   9.887  18.936  0.00  0.00    +0.000 A 
ENDBRANCH   3   6
ENDBRANCH   1   2
BRANCH   1  12
ATOM     12  C   UNL     1       1.837   4.209  21.118  0.00  0.00    +0.000 C 
ATOM     13  C   UNL     1       1.188   2.905  20.721  0.00  0.00    +0.000 C 
ATOM     14  C   UNL     1       2.534   2.897  21.387  0.00  0.00    +0.000 C 
ENDBRANCH   1  12
BRANCH   1  15
ATOM     15  C   UNL     1       3.898   5.045  19.914  0.00  0.00    +0.000 C 
BRANCH  15  18
ATOM     16  O   UNL     1       6.503   4.385  19.030  0.00  0.00    +0.000 OA
ATOM     17  C   UNL     1       5.655   4.703  18.206  0.00  0.00    +0.000 C 
ATOM     18  N   UNL     1       4.355   5.020  18.531  0.00  0.00    +0.000 N 
ATOM     19  H   UNL     1       3.652   5.110  17.809  0.00  0.00    +0.000 HD
BRANCH  17  20
ATOM     20  C   UNL     1       5.989   4.712  16.768  0.00  0.00    +0.000 A 
ATOM     21  C   UNL     1       5.156   4.162  15.792  0.00  0.00    +0.000 A 
ATOM     22  C   UNL     1       5.546   4.222  14.456  0.00  0.00    +0.000 A 
ATOM     23  C   UNL     1       6.755   4.828  14.146  0.00  0.00    +0.000 A 
ATOM     24  N   UNL     1       7.579   5.376  15.068  0.00  0.00    +0.000 NA
ATOM     25  C   UNL     1       7.170   5.318  16.359  0.00  0.00    +0.000 A 
ENDBRANCH  17  20
ENDBRANCH  15  18
ENDBRANCH   1  15
TORSDOF 6
ENDMDL
MODEL 3
REMARK VINA RESULT:      -7.7      3.404      5.202
REMARK  Name = 
REMARK  6 active torsions:
REMARK  status: ('A' for Active; 'I' for Inactive)
REMARK    1  A    between atoms: C_2  and  C_18
REMARK    2  A    between atoms: N_3  and  C_4
REMARK    3  A    between atoms: C_4  and  C_5
REMARK    4  A    between atoms: C_5  and  N_6
REMARK    5  A    between atoms: C_5  and  C_15
REMARK    6  A    between atoms: C_7  and  C_9
REMARK                            x       y       z     vdW  Elec       q    Type
REMARK                         _______ _______ _______ _____ _____    ______ ____
ROOT
ATOM      1  C   UNL     1       6.424   6.977  17.284  0.00  0.00    +0.000 C 
ENDROOT
BRANCH   1   2
ATOM      2  N   UNL     1       6.268   6.296  16.001  0.00  0.00    +0.000 N 
ATOM      3  C   UNL     1       6.981   5.170  15.657  0.00  0.00    +0.000 C 
ATOM      4  O   UNL     1       7.796   4.629  16.396  0.00  0.00    +0.000 OA
ATOM      5  H   UNL     1       5.483   6.590  15.438  0.00  0.00    +0.000 HD
BRANCH   3   6
ATOM      6  C   UNL     1       6.700   4.583  14.329  0.00  0.00    +0.000 A 
ATOM      7  C   UNL     1       5.599   3.773  14.049  0.00  0.00    +0.000 A 
ATOM      8  C   UNL     1       5.426   3.284  12.753  0.00  0.00    +0.000 A 
ATOM      9  C   UNL     1       6.361   3.624  11.785  0.00  0.00    +0.000 A 
ATOM     10  N   UNL     1       7.432   4.411  12.023  0.00  0.00    +0.000 NA
ATOM     11  C   UNL     1       7.570   4.883  13.285  0.00  0.00    +0.000 A 
ENDBRANCH   3   6
ENDBRANCH   1   2
BRANCH   1  12
ATOM     12  C   UNL     1       7.778   7.641  17.349  0.00  0.00    +0.000 C 
ATOM     13  C   UNL     1       7.913   9.067  17.827  0.00  0.00    +0.000 C 
ATOM     14  C   UNL     1       8.426   7.942  18.679  0.00  0.00    +0.000 C 
ENDBRANCH   1  12
BRANCH   1  15
ATOM     15  C   UNL     1       6.187   6.050  18.503  0.00  0.00    +0.000 C 
BRANCH  15  18
ATOM     16  O   UNL     1       5.580   3.438  19.404  0.00  0.00    +0.000 OA
ATOM     17  C   UNL     1       4.679   4.146  18.973  0.00  0.00    +0.000 C 
ATOM     18  N   UNL     1       4.866   5.436  18.532  0.00  0.00    +0.000 N 
ATOM     19  H   UNL     1       4.072   6.036  18.346  0.00  0.00    +0.000 HD
BRANCH  17  20
ATOM     20  C   UNL     1       3.291   3.643  18.954  0.00  0.00    +0.000 A 
ATOM     21  C   UNL     1       2.731   2.920  20.008  0.00  0.00    +0.000 A 
ATOM     22  C   UNL     1       1.409   2.492  19.910  0.00  0.00    +0.000 A 
ATOM     23  C   UNL     1       0.697   2.801  18.759  0.00  0.00    +0.000 A 
ATOM     24  N   UNL     1       1.210   3.505  17.725  0.00  0.00    +0.000 NA
ATOM     25  C   UNL     1       2.493   3.924  17.852  0.00  0.00    +0.000 A 
ENDBRANCH  17  20
ENDBRANCH  15  18
ENDBRANCH   1  15
TORSDOF 6
ENDMDL
MODEL 4
REMARK VINA RESULT:      -7.6      1.177      6.340
REMARK  Name = 
REMARK  6 active torsions:
REMARK  status: ('A' for Active; 'I' for Inactive)
REMARK    1  A    between atoms: C_2  and  C_18
REMARK    2  A    between atoms: N_3  and  C_4
REMARK    3  A    between atoms: C_4  and  C_5
REMARK    4  A    between atoms: C_5  and  N_6
REMARK    5  A    between atoms: C_5  and  C_15
REMARK    6  A    between atoms: C_7  and  C_9
REMARK                            x       y       z     vdW  Elec       q    Type
REMARK                         _______ _______ _______ _____ _____    ______ ____
ROOT
ATOM      1  C   UNL     1       2.886   4.414  20.048  0.00  0.00    +0.000 C 
ENDROOT
BRANCH   1   2
ATOM      2  N   UNL     1       2.560   5.837  19.987  0.00  0.00    +0.000 N 
ATOM      3  C   UNL     1       2.368   6.513  18.804  0.00  0.00    +0.000 C 
ATOM      4  O   UNL     1       2.437   5.986  17.700  0.00  0.00    +0.000 OA
ATOM      5  H   UNL     1       2.310   6.271  20.864  0.00  0.00    +0.000 HD
BRANCH   3   6
ATOM      6  C   UNL     1       2.025   7.949  18.904  0.00  0.00    +0.000 A 
ATOM      7  C   UNL     1       2.207   8.870  17.872  0.00  0.00    +0.000 A 
ATOM      8  C   UNL     1       1.834  10.200  18.072  0.00  0.00    +0.000 A 
ATOM      9  C   UNL     1       1.293  10.559  19.299  0.00  0.00    +0.000 A 
ATOM     10  N   UNL     1       1.097   9.691  20.314  0.00  0.00    +0.000 NA
ATOM     11  C   UNL     1       1.455   8.403  20.089  0.00  0.00    +0.000 A 
ENDBRANCH   3   6
ENDBRANCH   1   2
BRANCH   1  12
ATOM     12  C   UNL     1       2.348   3.821  21.327  0.00  0.00    +0.000 C 
ATOM     13  C   UNL     1       1.175   2.870  21.299  0.00  0.00    +0.000 C 
ATOM     14  C   UNL     1       2.544   2.356  21.638  0.00  0.00    +0.000 C 
ENDBRANCH   1  12
BRANCH   1  15
ATOM     15  C   UNL     1       4.398   4.125  19.879  0.00  0.00    +0.000 C 
BRANCH  15  18
ATOM     16  O   UNL     1       6.293   5.846  18.671  0.00  0.00    +0.000 OA
ATOM     17  C   UNL     1       5.758   4.977  17.994  0.00  0.00    +0.000 C 
ATOM     18  N   UNL     1       4.841   4.077  18.491  0.00  0.00    +0.000 N 
ATOM     19  H   UNL     1       4.556   3.277  17.941  0.00  0.00    +0.000 HD
BRANCH  17  20
ATOM     20  C   UNL     1       6.123   4.819  16.573  0.00  0.00    +0.000 A 
ATOM     21  C   UNL     1       5.404   4.012  15.690  0.00  0.00    +0.000 A 
ATOM     22  C   UNL     1       5.814   3.929  14.361  0.00  0.00    +0.000 A 
ATOM     23  C   UNL     1       6.929   4.653  13.966  0.00  0.00    +0.000 A 
ATOM     24  N   UNL     1       7.641   5.448  14.796  0.00  0.00    +0.000 NA
ATOM     25  C   UNL     1       7.213   5.526  16.080  0.00  0.00    +0.000 A 
ENDBRANCH  17  20
ENDBRANCH  15  18
ENDBRANCH   1  15
TORSDOF 6
ENDMDL
MODEL 5
REMARK VINA RESULT:      -7.5      3.426      5.241
REMARK  Name = 
REMARK  6 active torsions:
REMARK  status: ('A' for Active; 'I' for Inactive)
REMARK    1  A    between atoms: C_2  and  C_18
REMARK    2  A    between atoms: N_3  and  C_4
REMARK    3  A    between atoms: C_4  and  C_5
REMARK    4  A    between atoms: C_5  and  N_6
REMARK    5  A    between atoms: C_5  and  C_15
REMARK    6  A    between atoms: C_7  and  C_9
REMARK                            x       y       z     vdW  Elec       q    Type
REMARK                         _______ _______ _______ _____ _____    ______ ____
ROOT
ATOM      1  C   UNL     1       6.481   6.947  17.297  0.00  0.00    +0.000 C 
ENDROOT
BRANCH   1   2
ATOM      2  N   UNL     1       6.343   6.313  15.989  0.00  0.00    +0.000 N 
ATOM      3  C   UNL     1       7.041   5.184  15.625  0.00  0.00    +0.000 C 
ATOM      4  O   UNL     1       7.825   4.601  16.365  0.00  0.00    +0.000 OA
ATOM      5  H   UNL     1       5.580   6.642  15.416  0.00  0.00    +0.000 HD
BRANCH   3   6
ATOM      6  C   UNL     1       6.783   4.647  14.271  0.00  0.00    +0.000 A 
ATOM      7  C   UNL     1       7.595   4.895  13.164  0.00  0.00    +0.000 A 
ATOM      8  C   UNL     1       7.263   4.323  11.934  0.00  0.00    +0.000 A 
ATOM      9  C   UNL     1       6.131   3.525  11.859  0.00  0.00    +0.000 A 
ATOM     10  N   UNL     1       5.329   3.260  12.913  0.00  0.00    +0.000 NA
ATOM     11  C   UNL     1       5.681   3.816  14.097  0.00  0.00    +0.000 A 
ENDBRANCH   3   6
ENDBRANCH   1   2
BRANCH   1  12
ATOM     12  C   UNL     1       7.825   7.625  17.398  0.00  0.00    +0.000 C 
ATOM     13  C   UNL     1       7.929   9.065  17.843  0.00  0.00    +0.000 C 
ATOM     14  C   UNL     1       8.417   7.967  18.744  0.00  0.00    +0.000 C 
ENDBRANCH   1  12
BRANCH   1  15
ATOM     15  C   UNL     1       6.246   5.973  18.479  0.00  0.00    +0.000 C 
BRANCH  15  18
ATOM     16  O   UNL     1       5.520   3.463  19.567  0.00  0.00    +0.000 OA
ATOM     17  C   UNL     1       4.656   4.169  19.063  0.00  0.00    +0.000 C 
ATOM     18  N   UNL     1       4.901   5.413  18.527  0.00  0.00    +0.000 N 
ATOM     19  H   UNL     1       4.136   6.026  18.278  0.00  0.00    +0.000 HD
BRANCH  17  20
ATOM     20  C   UNL     1       3.250   3.719  19.053  0.00  0.00    +0.000 A 
ATOM     21  C   UNL     1       2.615   3.189  20.178  0.00  0.00    +0.000 A 
ATOM     22  C   UNL     1       1.282   2.798  20.081  0.00  0.00    +0.000 A 
ATOM     23  C   UNL     1       0.634   2.950  18.864  0.00  0.00    +0.000 A 
ATOM     24  N   UNL     1       1.219   3.467  17.761  0.00  0.00    +0.000 NA
ATOM     25  C   UNL     1       2.513   3.855  17.884  0.00  0.00    +0.000 A 
ENDBRANCH  17  20
ENDBRANCH  15  18
ENDBRANCH   1  15
TORSDOF 6
ENDMDL
MODEL 6
REMARK VINA RESULT:      -7.3      1.823      6.048
REMARK  Name = 
REMARK  6 active torsions:
REMARK  status: ('A' for Active; 'I' for Inactive)
REMARK    1  A    between atoms: C_2  and  C_18
REMARK    2  A    between atoms: N_3  and  C_4
REMARK    3  A    between atoms: C_4  and  C_5
REMARK    4  A    between atoms: C_5  and  N_6
REMARK    5  A    between atoms: C_5  and  C_15
REMARK    6  A    between atoms: C_7  and  C_9
REMARK                            x       y       z     vdW  Elec       q    Type
REMARK                         _______ _______ _______ _____ _____    ______ ____
ROOT
ATOM      1  C   UNL     1       5.439   4.933  16.254  0.00  0.00    +0.000 C 
ENDROOT
BRANCH   1   2
ATOM      2  N   UNL     1       4.448   5.899  16.722  0.00  0.00    +0.000 N 
ATOM      3  C   UNL     1       4.351   6.297  18.036  0.00  0.00    +0.000 C 
ATOM      4  O   UNL     1       5.091   5.893  18.926  0.00  0.00    +0.000 OA
ATOM      5  H   UNL     1       3.942   6.396  16.004  0.00  0.00    +0.000 HD
BRANCH   3   6
ATOM      6  C   UNL     1       3.308   7.296  18.355  0.00  0.00    +0.000 A 
ATOM      7  C   UNL     1       2.952   8.351  17.515  0.00  0.00    +0.000 A 
ATOM      8  C   UNL     1       1.941   9.227  17.912  0.00  0.00    +0.000 A 
ATOM      9  C   UNL     1       1.323   9.015  19.136  0.00  0.00    +0.000 A 
ATOM     10  N   UNL     1       1.638   8.000  19.968  0.00  0.00    +0.000 NA
ATOM     11  C   UNL     1       2.614   7.155  19.553  0.00  0.00    +0.000 A 
ENDBRANCH   3   6
ENDBRANCH   1   2
BRANCH   1  12
ATOM     12  C   UNL     1       5.690   5.133  14.779  0.00  0.00    +0.000 C 
ATOM     13  C   UNL     1       7.078   4.965  14.207  0.00  0.00    +0.000 C 
ATOM     14  C   UNL     1       6.010   3.959  13.886  0.00  0.00    +0.000 C 
ENDBRANCH   1  12
BRANCH   1  15
ATOM     15  C   UNL     1       5.061   3.464  16.571  0.00  0.00    +0.000 C 
BRANCH  15  18
ATOM     16  O   UNL     1       2.297   3.083  17.040  0.00  0.00    +0.000 OA
ATOM     17  C   UNL     1       3.064   3.124  17.993  0.00  0.00    +0.000 C 
ATOM     18  N   UNL     1       4.426   3.283  17.871  0.00  0.00    +0.000 N 
ATOM     19  H   UNL     1       5.034   3.142  18.668  0.00  0.00    +0.000 HD
BRANCH  17  20
ATOM     20  C   UNL     1       2.548   2.948  19.365  0.00  0.00    +0.000 A 
ATOM     21  C   UNL     1       1.199   3.099  19.692  0.00  0.00    +0.000 A 
ATOM     22  C   UNL     1       0.797   2.905  21.012  0.00  0.00    +0.000 A 
ATOM     23  C   UNL     1       1.758   2.571  21.955  0.00  0.00    +0.000 A 
ATOM     24  N   UNL     1       3.069   2.410  21.666  0.00  0.00    +0.000 NA
ATOM     25  C   UNL     1       3.434   2.588  20.372  0.00  0.00    +0.000 A 
ENDBRANCH  17  20
ENDBRANCH  15  18
ENDBRANCH   1  15
TORSDOF 6
ENDMDL
MODEL 7
REMARK VINA RESULT:      -7.3      1.497      6.899
REMARK  Name = 
REMARK  6 active torsions:
REMARK  status: ('A' for Active; 'I' for Inactive)
REMARK    1  A    between atoms: C_2  and  C_18
REMARK    2  A    between atoms: N_3  and  C_4
REMARK    3  A    between atoms: C_4  and  C_5
REMARK    4  A    between atoms: C_5  and  N_6
REMARK    5  A    between atoms: C_5  and  C_15
REMARK    6  A    between atoms: C_7  and  C_9
REMARK                            x       y       z     vdW  Elec       q    Type
REMARK                         _______ _______ _______ _____ _____    ______ ____
ROOT
ATOM      1  C   UNL     1       2.195   5.087  20.225  0.00  0.00    +0.000 C 
ENDROOT
BRANCH   1   2
ATOM      2  N   UNL     1       1.701   6.384  20.680  0.00  0.00    +0.000 N 
ATOM      3  C   UNL     1       1.850   7.542  19.950  0.00  0.00    +0.000 C 
ATOM      4  O   UNL     1       2.393   7.588  18.852  0.00  0.00    +0.000 OA
ATOM      5  H   UNL     1       1.089   6.367  21.482  0.00  0.00    +0.000 HD
BRANCH   3   6
ATOM      6  C   UNL     1       1.281   8.776  20.533  0.00  0.00    +0.000 A 
ATOM      7  C   UNL     1       0.800   9.847  19.780  0.00  0.00    +0.000 A 
ATOM      8  C   UNL     1       0.270  10.958  20.438  0.00  0.00    +0.000 A 
ATOM      9  C   UNL     1       0.242  10.957  21.825  0.00  0.00    +0.000 A 
ATOM     10  N   UNL     1       0.693   9.934  22.582  0.00  0.00    +0.000 NA
ATOM     11  C   UNL     1       1.190   8.861  21.919  0.00  0.00    +0.000 A 
ENDBRANCH   3   6
ENDBRANCH   1   2
BRANCH   1  12
ATOM     12  C   UNL     1       1.556   3.984  21.034  0.00  0.00    +0.000 C 
ATOM     13  C   UNL     1       1.173   2.676  20.384  0.00  0.00    +0.000 C 
ATOM     14  C   UNL     1       2.320   2.721  21.353  0.00  0.00    +0.000 C 
ENDBRANCH   1  12
BRANCH   1  15
ATOM     15  C   UNL     1       3.740   4.980  20.239  0.00  0.00    +0.000 C 
BRANCH  15  18
ATOM     16  O   UNL     1       4.013   3.019  18.217  0.00  0.00    +0.000 OA
ATOM     17  C   UNL     1       4.460   4.143  18.024  0.00  0.00    +0.000 C 
ATOM     18  N   UNL     1       4.360   5.171  18.934  0.00  0.00    +0.000 N 
ATOM     19  H   UNL     1       4.591   6.119  18.666  0.00  0.00    +0.000 HD
BRANCH  17  20
ATOM     20  C   UNL     1       5.107   4.469  16.739  0.00  0.00    +0.000 A 
ATOM     21  C   UNL     1       5.683   3.501  15.913  0.00  0.00    +0.000 A 
ATOM     22  C   UNL     1       6.266   3.897  14.711  0.00  0.00    +0.000 A 
ATOM     23  C   UNL     1       6.253   5.244  14.381  0.00  0.00    +0.000 A 
ATOM     24  N   UNL     1       5.696   6.202  15.156  0.00  0.00    +0.000 NA
ATOM     25  C   UNL     1       5.122   5.791  16.313  0.00  0.00    +0.000 A 
ENDBRANCH  17  20
ENDBRANCH  15  18
ENDBRANCH   1  15
TORSDOF 6
ENDMDL
MODEL 8
REMARK VINA RESULT:      -7.1      3.600      5.386
REMARK  Name = 
REMARK  6 active torsions:
REMARK  status: ('A' for Active; 'I' for Inactive)
REMARK    1  A    between atoms: C_2  and  C_18
REMARK    2  A    between atoms: N_3  and  C_4
REMARK    3  A    between atoms: C_4  and  C_5
REMARK    4  A    between atoms: C_5  and  N_6
REMARK    5  A    between atoms: C_5  and  C_15
REMARK    6  A    between atoms: C_7  and  C_9
REMARK                            x       y       z     vdW  Elec       q    Type
REMARK                         _______ _______ _______ _____ _____    ______ ____
ROOT
ATOM      1  C   UNL     1       7.080   6.218  17.342  0.00  0.00    +0.000 C 
ENDROOT
BRANCH   1   2
ATOM      2  N   UNL     1       7.134   5.629  16.006  0.00  0.00    +0.000 N 
ATOM      3  C   UNL     1       6.051   5.028  15.406  0.00  0.00    +0.000 C 
ATOM      4  O   UNL     1       4.945   4.944  15.927  0.00  0.00    +0.000 OA
ATOM      5  H   UNL     1       7.962   5.835  15.466  0.00  0.00    +0.000 HD
BRANCH   3   6
ATOM      6  C   UNL     1       6.255   4.493  14.042  0.00  0.00    +0.000 A 
ATOM      7  C   UNL     1       5.371   3.624  13.403  0.00  0.00    +0.000 A 
ATOM      8  C   UNL     1       5.657   3.193  12.107  0.00  0.00    +0.000 A 
ATOM      9  C   UNL     1       6.819   3.647  11.498  0.00  0.00    +0.000 A 
ATOM     10  N   UNL     1       7.691   4.493  12.087  0.00  0.00    +0.000 NA
ATOM     11  C   UNL     1       7.383   4.907  13.340  0.00  0.00    +0.000 A 
ENDBRANCH   3   6
ENDBRANCH   1   2
BRANCH   1  12
ATOM     12  C   UNL     1       8.091   7.333  17.450  0.00  0.00    +0.000 C 
ATOM     13  C   UNL     1       7.646   8.749  17.732  0.00  0.00    +0.000 C 
ATOM     14  C   UNL     1       8.389   7.975  18.784  0.00  0.00    +0.000 C 
ENDBRANCH   1  12
BRANCH   1  15
ATOM     15  C   UNL     1       7.256   5.178  18.477  0.00  0.00    +0.000 C 
BRANCH  15  18
ATOM     16  O   UNL     1       4.744   5.937  19.538  0.00  0.00    +0.000 OA
ATOM     17  C   UNL     1       4.928   4.771  19.211  0.00  0.00    +0.000 C 
ATOM     18  N   UNL     1       6.103   4.306  18.666  0.00  0.00    +0.000 N 
ATOM     19  H   UNL     1       6.151   3.381  18.257  0.00  0.00    +0.000 HD
BRANCH  17  20
ATOM     20  C   UNL     1       3.837   3.786  19.347  0.00  0.00    +0.000 A 
ATOM     21  C   UNL     1       2.794   3.931  20.263  0.00  0.00    +0.000 A 
ATOM     22  C   UNL     1       1.800   2.957  20.318  0.00  0.00    +0.000 A 
ATOM     23  C   UNL     1       1.886   1.873  19.456  0.00  0.00    +0.000 A 
ATOM     24  N   UNL     1       2.879   1.710  18.553  0.00  0.00    +0.000 NA
ATOM     25  C   UNL     1       3.826   2.679  18.508  0.00  0.00    +0.000 A 
ENDBRANCH  17  20
ENDBRANCH  15  18
ENDBRANCH   1  15
TORSDOF 6
ENDMDL
MODEL 9
REMARK VINA RESULT:      -7.1      1.177      6.838
REMARK  Name = 
REMARK  6 active torsions:
REMARK  status: ('A' for Active; 'I' for Inactive)
REMARK    1  A    between atoms: C_2  and  C_18
REMARK    2  A    between atoms: N_3  and  C_4
REMARK    3  A    between atoms: C_4  and  C_5
REMARK    4  A    between atoms: C_5  and  N_6
REMARK    5  A    between atoms: C_5  and  C_15
REMARK    6  A    between atoms: C_7  and  C_9
REMARK                            x       y       z     vdW  Elec       q    Type
REMARK                         _______ _______ _______ _____ _____    ______ ____
ROOT
ATOM      1  C   UNL     1       2.148   4.879  19.576  0.00  0.00    +0.000 C 
ENDROOT
BRANCH   1   2
ATOM      2  N   UNL     1       1.755   6.168  20.139  0.00  0.00    +0.000 N 
ATOM      3  C   UNL     1       1.906   7.359  19.466  0.00  0.00    +0.000 C 
ATOM      4  O   UNL     1       2.366   7.446  18.333  0.00  0.00    +0.000 OA
ATOM      5  H   UNL     1       1.206   6.131  20.985  0.00  0.00    +0.000 HD
BRANCH   3   6
ATOM      6  C   UNL     1       1.445   8.581  20.160  0.00  0.00    +0.000 A 
ATOM      7  C   UNL     1       1.075   9.758  19.509  0.00  0.00    +0.000 A 
ATOM      8  C   UNL     1       0.641  10.847  20.266  0.00  0.00    +0.000 A 
ATOM      9  C   UNL     1       0.593  10.718  21.647  0.00  0.00    +0.000 A 
ATOM     10  N   UNL     1       0.937   9.592  22.306  0.00  0.00    +0.000 NA
ATOM     11  C   UNL     1       1.342   8.544  21.548  0.00  0.00    +0.000 A 
ENDBRANCH   3   6
ENDBRANCH   1   2
BRANCH   1  12
ATOM     12  C   UNL     1       1.375   3.770  20.248  0.00  0.00    +0.000 C 
ATOM     13  C   UNL     1       0.610   2.759  19.426  0.00  0.00    +0.000 C 
ATOM     14  C   UNL     1       1.850   2.340  20.163  0.00  0.00    +0.000 C 
ENDBRANCH   1  12
BRANCH   1  15
ATOM     15  C   UNL     1       3.675   4.624  19.635  0.00  0.00    +0.000 C 
BRANCH  15  18
ATOM     16  O   UNL     1       5.676   6.282  18.515  0.00  0.00    +0.000 OA
ATOM     17  C   UNL     1       5.254   5.334  17.866  0.00  0.00    +0.000 C 
ATOM     18  N   UNL     1       4.299   4.456  18.328  0.00  0.00    +0.000 N 
ATOM     19  H   UNL     1       4.106   3.597  17.829  0.00  0.00    +0.000 HD
BRANCH  17  20
ATOM     20  C   UNL     1       5.807   5.051  16.527  0.00  0.00    +0.000 A 
ATOM     21  C   UNL     1       5.134   4.284  15.574  0.00  0.00    +0.000 A 
ATOM     22  C   UNL     1       5.727   4.075  14.331  0.00  0.00    +0.000 A 
ATOM     23  C   UNL     1       6.971   4.638  14.088  0.00  0.00    +0.000 A 
ATOM     24  N   UNL     1       7.644   5.390  14.988  0.00  0.00    +0.000 NA
ATOM     25  C   UNL     1       7.039   5.593  16.184  0.00  0.00    +0.000 A 
ENDBRANCH  17  20
ENDBRANCH  15  18
ENDBRANCH   1  15
TORSDOF 6
ENDMDL
