MODEL 1
REMARK VINA RESULT:      -7.5      0.000      0.000
REMARK  Name = 
REMARK  2 active torsions:
REMARK  status: ('A' for Active; 'I' for Inactive)
REMARK    1  A    between atoms: C_5  and  C_6
REMARK    2  A    between atoms: C_9  and  C_10
REMARK                            x       y       z     vdW  Elec       q    Type
REMARK                         _______ _______ _______ _____ _____    ______ ____
ROOT
ATOM      1  C   UNL     1       4.338   4.815  17.450  0.00  0.00    +0.000 A 
ATOM      2  C   UNL     1       4.678   6.139  17.286  0.00  0.00    +0.000 A 
ATOM      3  N   UNL     1       5.405   6.184  16.133  0.00  0.00    +0.000 N 
ATOM      4  C   UNL     1       5.484   4.913  15.616  0.00  0.00    +0.000 A 
ATOM      5  N   UNL     1       4.835   4.071  16.402  0.00  0.00    +0.000 NA
ATOM      6  H   UNL     1       5.783   7.013  15.700  0.00  0.00    +0.000 HD
ENDROOT
BRANCH   1  11
ATOM      7 CL   UNL     1       1.193   2.507  21.984  0.00  0.00    +0.000 Cl
ATOM      8  C   UNL     1       2.096   3.168  20.678  0.00  0.00    +0.000 A 
ATOM      9  C   UNL     1       1.536   4.175  19.896  0.00  0.00    +0.000 A 
ATOM     10  C   UNL     1       2.267   4.717  18.836  0.00  0.00    +0.000 A 
ATOM     11  C   UNL     1       3.563   4.258  18.546  0.00  0.00    +0.000 A 
ATOM     12  C   UNL     1       4.107   3.241  19.344  0.00  0.00    +0.000 A 
ATOM     13  C   UNL     1       3.377   2.697  20.407  0.00  0.00    +0.000 A 
ENDBRANCH   1  11
BRANCH   4  14
ATOM     14  C   UNL     1       6.135   4.616  14.341  0.00  0.00    +0.000 A 
ATOM     15  C   UNL     1       7.292   5.298  13.933  0.00  0.00    +0.000 A 
ATOM     16  C   UNL     1       7.856   5.055  12.680  0.00  0.00    +0.000 A 
ATOM     17  C   UNL     1       7.274   4.124  11.824  0.00  0.00    +0.000 A 
ATOM     18  C   UNL     1       6.140   3.420  12.227  0.00  0.00    +0.000 A 
ATOM     19  C   UNL     1       5.578   3.660  13.483  0.00  0.00    +0.000 A 
ENDBRANCH   4  14
TORSDOF 2
ENDMDL
MODEL 2
REMARK VINA RESULT:      -7.3      0.123      1.613
REMARK  Name = 
REMARK  2 active torsions:
REMARK  status: ('A' for Active; 'I' for Inactive)
REMARK    1  A    between atoms: C_5  and  C_6
REMARK    2  A    between atoms: C_9  and  C_10
REMARK                            x       y       z     vdW  Elec       q    Type
REMARK                         _______ _______ _______ _____ _____    ______ ____
ROOT
ATOM      1  C   UNL     1       4.290   4.780  17.456  0.00  0.00    +0.000 A 
ATOM      2  C   UNL     1       4.644   6.100  17.295  0.00  0.00    +0.000 A 
ATOM      3  N   UNL     1       5.327   6.148  16.115  0.00  0.00    +0.000 N 
ATOM      4  C   UNL     1       5.364   4.882  15.580  0.00  0.00    +0.000 A 
ATOM      5  N   UNL     1       4.733   4.041  16.381  0.00  0.00    +0.000 NA
ATOM      6  H   UNL     1       5.702   6.976  15.677  0.00  0.00    +0.000 HD
ENDROOT
BRANCH   1  11
ATOM      7 CL   UNL     1       1.191   2.502  22.039  0.00  0.00    +0.000 Cl
ATOM      8  C   UNL     1       2.084   3.160  20.723  0.00  0.00    +0.000 A 
ATOM      9  C   UNL     1       3.351   2.659  20.435  0.00  0.00    +0.000 A 
ATOM     10  C   UNL     1       4.078   3.189  19.366  0.00  0.00    +0.000 A 
ATOM     11  C   UNL     1       3.548   4.222  18.576  0.00  0.00    +0.000 A 
ATOM     12  C   UNL     1       2.270   4.714  18.885  0.00  0.00    +0.000 A 
ATOM     13  C   UNL     1       1.540   4.185  19.955  0.00  0.00    +0.000 A 
ENDBRANCH   1  11
BRANCH   4  14
ATOM     14  C   UNL     1       5.960   4.590  14.277  0.00  0.00    +0.000 A 
ATOM     15  C   UNL     1       5.373   3.672  13.393  0.00  0.00    +0.000 A 
ATOM     16  C   UNL     1       5.997   3.349  12.187  0.00  0.00    +0.000 A 
ATOM     17  C   UNL     1       7.209   3.945  11.849  0.00  0.00    +0.000 A 
ATOM     18  C   UNL     1       7.789   4.878  12.706  0.00  0.00    +0.000 A 
ATOM     19  C   UNL     1       7.163   5.205  13.911  0.00  0.00    +0.000 A 
ENDBRANCH   4  14
TORSDOF 2
ENDMDL
MODEL 3
REMARK VINA RESULT:      -7.3      0.116      1.143
REMARK  Name = 
REMARK  2 active torsions:
REMARK  status: ('A' for Active; 'I' for Inactive)
REMARK    1  A    between atoms: C_5  and  C_6
REMARK    2  A    between atoms: C_9  and  C_10
REMARK                            x       y       z     vdW  Elec       q    Type
REMARK                         _______ _______ _______ _____ _____    ______ ____
ROOT
ATOM      1  C   UNL     1       4.361   4.789  17.497  0.00  0.00    +0.000 A 
ATOM      2  C   UNL     1       4.836   6.077  17.398  0.00  0.00    +0.000 A 
ATOM      3  N   UNL     1       5.520   6.119  16.218  0.00  0.00    +0.000 N 
ATOM      4  C   UNL     1       5.439   4.883  15.622  0.00  0.00    +0.000 A 
ATOM      5  N   UNL     1       4.733   4.066  16.384  0.00  0.00    +0.000 NA
ATOM      6  H   UNL     1       5.969   6.929  15.819  0.00  0.00    +0.000 HD
ENDROOT
BRANCH   1  11
ATOM      7 CL   UNL     1       1.158   2.546  22.024  0.00  0.00    +0.000 Cl
ATOM      8  C   UNL     1       2.077   3.189  20.720  0.00  0.00    +0.000 A 
ATOM      9  C   UNL     1       1.544   4.214  19.943  0.00  0.00    +0.000 A 
ATOM     10  C   UNL     1       2.288   4.740  18.884  0.00  0.00    +0.000 A 
ATOM     11  C   UNL     1       3.571   4.248  18.591  0.00  0.00    +0.000 A 
ATOM     12  C   UNL     1       4.089   3.213  19.384  0.00  0.00    +0.000 A 
ATOM     13  C   UNL     1       3.346   2.684  20.445  0.00  0.00    +0.000 A 
ENDBRANCH   1  11
BRANCH   4  14
ATOM     14  C   UNL     1       6.005   4.602  14.304  0.00  0.00    +0.000 A 
ATOM     15  C   UNL     1       5.408   3.675  13.434  0.00  0.00    +0.000 A 
ATOM     16  C   UNL     1       6.004   3.363  12.211  0.00  0.00    +0.000 A 
ATOM     17  C   UNL     1       7.198   3.978  11.842  0.00  0.00    +0.000 A 
ATOM     18  C   UNL     1       7.786   4.919  12.684  0.00  0.00    +0.000 A 
ATOM     19  C   UNL     1       7.188   5.235  13.906  0.00  0.00    +0.000 A 
ENDBRANCH   4  14
TORSDOF 2
ENDMDL
MODEL 4
REMARK VINA RESULT:      -7.3      0.533      1.029
REMARK  Name = 
REMARK  2 active torsions:
REMARK  status: ('A' for Active; 'I' for Inactive)
REMARK    1  A    between atoms: C_5  and  C_6
REMARK    2  A    between atoms: C_9  and  C_10
REMARK                            x       y       z     vdW  Elec       q    Type
REMARK                         _______ _______ _______ _____ _____    ______ ____
ROOT
ATOM      1  C   UNL     1       4.494   4.873  17.438  0.00  0.00    +0.000 A 
ATOM      2  C   UNL     1       4.900   6.180  17.296  0.00  0.00    +0.000 A 
ATOM      3  N   UNL     1       5.610   6.212  16.131  0.00  0.00    +0.000 N 
ATOM      4  C   UNL     1       5.612   4.951  15.585  0.00  0.00    +0.000 A 
ATOM      5  N   UNL     1       4.933   4.127  16.365  0.00  0.00    +0.000 NA
ATOM      6  H   UNL     1       6.024   7.030  15.709  0.00  0.00    +0.000 HD
ENDROOT
BRANCH   1  11
ATOM      7 CL   UNL     1       1.237   2.702  21.961  0.00  0.00    +0.000 Cl
ATOM      8  C   UNL     1       2.177   3.325  20.663  0.00  0.00    +0.000 A 
ATOM      9  C   UNL     1       2.717   2.451  19.723  0.00  0.00    +0.000 A 
ATOM     10  C   UNL     1       3.479   2.953  18.666  0.00  0.00    +0.000 A 
ATOM     11  C   UNL     1       3.708   4.333  18.536  0.00  0.00    +0.000 A 
ATOM     12  C   UNL     1       3.157   5.197  19.494  0.00  0.00    +0.000 A 
ATOM     13  C   UNL     1       2.394   4.696  20.554  0.00  0.00    +0.000 A 
ENDBRANCH   1  11
BRANCH   4  14
ATOM     14  C   UNL     1       6.224   4.648  14.293  0.00  0.00    +0.000 A 
ATOM     15  C   UNL     1       7.348   5.352  13.832  0.00  0.00    +0.000 A 
ATOM     16  C   UNL     1       7.873   5.102  12.563  0.00  0.00    +0.000 A 
ATOM     17  C   UNL     1       7.285   4.140  11.745  0.00  0.00    +0.000 A 
ATOM     18  C   UNL     1       6.186   3.415  12.201  0.00  0.00    +0.000 A 
ATOM     19  C   UNL     1       5.663   3.663  13.472  0.00  0.00    +0.000 A 
ENDBRANCH   4  14
TORSDOF 2
ENDMDL
MODEL 5
REMARK VINA RESULT:      -7.3      4.615      8.115
REMARK  Name = 
REMARK  2 active torsions:
REMARK  status: ('A' for Active; 'I' for Inactive)
REMARK    1  A    between atoms: C_5  and  C_6
REMARK    2  A    between atoms: C_9  and  C_10
REMARK                            x       y       z     vdW  Elec       q    Type
REMARK                         _______ _______ _______ _____ _____    ______ ____
ROOT
ATOM      1  C   UNL     1       2.960   6.332  18.988  0.00  0.00    +0.000 A 
ATOM      2  C   UNL     1       2.595   5.586  20.085  0.00  0.00    +0.000 A 
ATOM      3  N   UNL     1       1.868   6.431  20.870  0.00  0.00    +0.000 N 
ATOM      4  C   UNL     1       1.790   7.652  20.243  0.00  0.00    +0.000 A 
ATOM      5  N   UNL     1       2.444   7.606  19.095  0.00  0.00    +0.000 NA
ATOM      6  H   UNL     1       1.418   6.195  21.742  0.00  0.00    +0.000 HD
ENDROOT
BRANCH   1  11
ATOM      7 CL   UNL     1       6.208   4.385  14.357  0.00  0.00    +0.000 Cl
ATOM      8  C   UNL     1       5.277   4.945  15.690  0.00  0.00    +0.000 A 
ATOM      9  C   UNL     1       5.212   6.310  15.958  0.00  0.00    +0.000 A 
ATOM     10  C   UNL     1       4.455   6.769  17.039  0.00  0.00    +0.000 A 
ATOM     11  C   UNL     1       3.756   5.870  17.862  0.00  0.00    +0.000 A 
ATOM     12  C   UNL     1       3.837   4.498  17.577  0.00  0.00    +0.000 A 
ATOM     13  C   UNL     1       4.594   4.037  16.495  0.00  0.00    +0.000 A 
ENDBRANCH   1  11
BRANCH   4  14
ATOM     14  C   UNL     1       1.018   8.771  20.781  0.00  0.00    +0.000 A 
ATOM     15  C   UNL     1       0.723   8.866  22.150  0.00  0.00    +0.000 A 
ATOM     16  C   UNL     1      -0.080   9.900  22.634  0.00  0.00    +0.000 A 
ATOM     17  C   UNL     1      -0.589  10.854  21.756  0.00  0.00    +0.000 A 
ATOM     18  C   UNL     1      -0.282  10.786  20.399  0.00  0.00    +0.000 A 
ATOM     19  C   UNL     1       0.525   9.754  19.915  0.00  0.00    +0.000 A 
ENDBRANCH   4  14
TORSDOF 2
ENDMDL
MODEL 6
REMARK VINA RESULT:      -7.3      1.060      1.863
REMARK  Name = 
REMARK  2 active torsions:
REMARK  status: ('A' for Active; 'I' for Inactive)
REMARK    1  A    between atoms: C_5  and  C_6
REMARK    2  A    between atoms: C_9  and  C_10
REMARK                            x       y       z     vdW  Elec       q    Type
REMARK                         _______ _______ _______ _____ _____    ______ ____
ROOT
ATOM      1  C   UNL     1       5.444   4.237  17.807  0.00  0.00    +0.000 A 
ATOM      2  C   UNL     1       6.671   4.818  18.031  0.00  0.00    +0.000 A 
ATOM      3  N   UNL     1       7.251   4.922  16.801  0.00  0.00    +0.000 N 
ATOM      4  C   UNL     1       6.377   4.425  15.863  0.00  0.00    +0.000 A 
ATOM      5  N   UNL     1       5.272   4.010  16.459  0.00  0.00    +0.000 NA
ATOM      6  H   UNL     1       8.148   5.337  16.597  0.00  0.00    +0.000 HD
ENDROOT
BRANCH   1  11
ATOM      7 CL   UNL     1       1.337   2.947  21.961  0.00  0.00    +0.000 Cl
ATOM      8  C   UNL     1       2.521   3.318  20.769  0.00  0.00    +0.000 A 
ATOM      9  C   UNL     1       3.248   2.288  20.179  0.00  0.00    +0.000 A 
ATOM     10  C   UNL     1       4.209   2.584  19.209  0.00  0.00    +0.000 A 
ATOM     11  C   UNL     1       4.452   3.912  18.819  0.00  0.00    +0.000 A 
ATOM     12  C   UNL     1       3.710   4.936  19.428  0.00  0.00    +0.000 A 
ATOM     13  C   UNL     1       2.748   4.641  20.400  0.00  0.00    +0.000 A 
ENDBRANCH   1  11
BRANCH   4  14
ATOM     14  C   UNL     1       6.655   4.452  14.428  0.00  0.00    +0.000 A 
ATOM     15  C   UNL     1       5.998   3.588  13.538  0.00  0.00    +0.000 A 
ATOM     16  C   UNL     1       6.332   3.575  12.183  0.00  0.00    +0.000 A 
ATOM     17  C   UNL     1       7.320   4.430  11.702  0.00  0.00    +0.000 A 
ATOM     18  C   UNL     1       7.962   5.311  12.570  0.00  0.00    +0.000 A 
ATOM     19  C   UNL     1       7.625   5.328  13.925  0.00  0.00    +0.000 A 
ENDBRANCH   4  14
TORSDOF 2
ENDMDL
MODEL 7
REMARK VINA RESULT:      -7.3      4.595      8.121
REMARK  Name = 
REMARK  2 active torsions:
REMARK  status: ('A' for Active; 'I' for Inactive)
REMARK    1  A    between atoms: C_5  and  C_6
REMARK    2  A    between atoms: C_9  and  C_10
REMARK                            x       y       z     vdW  Elec       q    Type
REMARK                         _______ _______ _______ _____ _____    ______ ____
ROOT
ATOM      1  C   UNL     1       2.977   6.288  18.952  0.00  0.00    +0.000 A 
ATOM      2  C   UNL     1       2.594   5.541  20.042  0.00  0.00    +0.000 A 
ATOM      3  N   UNL     1       1.875   6.393  20.829  0.00  0.00    +0.000 N 
ATOM      4  C   UNL     1       1.821   7.619  20.209  0.00  0.00    +0.000 A 
ATOM      5  N   UNL     1       2.482   7.569  19.064  0.00  0.00    +0.000 NA
ATOM      6  H   UNL     1       1.416   6.159  21.696  0.00  0.00    +0.000 HD
ENDROOT
BRANCH   1  11
ATOM      7 CL   UNL     1       6.282   4.410  14.334  0.00  0.00    +0.000 Cl
ATOM      8  C   UNL     1       5.329   4.950  15.659  0.00  0.00    +0.000 A 
ATOM      9  C   UNL     1       4.642   4.020  16.436  0.00  0.00    +0.000 A 
ATOM     10  C   UNL     1       3.868   4.454  17.515  0.00  0.00    +0.000 A 
ATOM     11  C   UNL     1       3.773   5.820  17.829  0.00  0.00    +0.000 A 
ATOM     12  C   UNL     1       4.471   6.741  17.033  0.00  0.00    +0.000 A 
ATOM     13  C   UNL     1       5.246   6.309  15.952  0.00  0.00    +0.000 A 
ENDBRANCH   1  11
BRANCH   4  14
ATOM     14  C   UNL     1       1.064   8.747  20.749  0.00  0.00    +0.000 A 
ATOM     15  C   UNL     1       0.788   8.853  22.121  0.00  0.00    +0.000 A 
ATOM     16  C   UNL     1      -0.002   9.896  22.608  0.00  0.00    +0.000 A 
ATOM     17  C   UNL     1      -0.517  10.847  21.731  0.00  0.00    +0.000 A 
ATOM     18  C   UNL     1      -0.228  10.768  20.370  0.00  0.00    +0.000 A 
ATOM     19  C   UNL     1       0.565   9.727  19.882  0.00  0.00    +0.000 A 
ENDBRANCH   4  14
TORSDOF 2
ENDMDL
MODEL 8
REMARK VINA RESULT:      -7.2      4.588      8.068
REMARK  Name = 
REMARK  2 active torsions:
REMARK  status: ('A' for Active; 'I' for Inactive)
REMARK    1  A    between atoms: C_5  and  C_6
REMARK    2  A    between atoms: C_9  and  C_10
REMARK                            x       y       z     vdW  Elec       q    Type
REMARK                         _______ _______ _______ _____ _____    ______ ____
ROOT
ATOM      1  C   UNL     1       3.002   6.285  18.941  0.00  0.00    +0.000 A 
ATOM      2  C   UNL     1       2.631   5.538  20.035  0.00  0.00    +0.000 A 
ATOM      3  N   UNL     1       1.900   6.383  20.817  0.00  0.00    +0.000 N 
ATOM      4  C   UNL     1       1.828   7.605  20.191  0.00  0.00    +0.000 A 
ATOM      5  N   UNL     1       2.488   7.559  19.047  0.00  0.00    +0.000 NA
ATOM      6  H   UNL     1       1.444   6.147  21.686  0.00  0.00    +0.000 HD
ENDROOT
BRANCH   1  11
ATOM      7 CL   UNL     1       6.275   4.339  14.327  0.00  0.00    +0.000 Cl
ATOM      8  C   UNL     1       5.337   4.898  15.656  0.00  0.00    +0.000 A 
ATOM      9  C   UNL     1       5.248   6.265  15.907  0.00  0.00    +0.000 A 
ATOM     10  C   UNL     1       4.486   6.724  16.984  0.00  0.00    +0.000 A 
ATOM     11  C   UNL     1       3.805   5.823  17.820  0.00  0.00    +0.000 A 
ATOM     12  C   UNL     1       3.909   4.450  17.551  0.00  0.00    +0.000 A 
ATOM     13  C   UNL     1       4.672   3.988  16.473  0.00  0.00    +0.000 A 
ENDBRANCH   1  11
BRANCH   4  14
ATOM     14  C   UNL     1       1.054   8.724  20.726  0.00  0.00    +0.000 A 
ATOM     15  C   UNL     1       0.710   9.825  19.926  0.00  0.00    +0.000 A 
ATOM     16  C   UNL     1       0.037  10.919  20.473  0.00  0.00    +0.000 A 
ATOM     17  C   UNL     1      -0.305  10.921  21.823  0.00  0.00    +0.000 A 
ATOM     18  C   UNL     1       0.007   9.823  22.622  0.00  0.00    +0.000 A 
ATOM     19  C   UNL     1       0.677   8.726  22.074  0.00  0.00    +0.000 A 
ENDBRANCH   4  14
TORSDOF 2
ENDMDL
MODEL 9
REMARK VINA RESULT:      -7.2      4.600      8.116
REMARK  Name = 
REMARK  2 active torsions:
REMARK  status: ('A' for Active; 'I' for Inactive)
REMARK    1  A    between atoms: C_5  and  C_6
REMARK    2  A    between atoms: C_9  and  C_10
REMARK                            x       y       z     vdW  Elec       q    Type
REMARK                         _______ _______ _______ _____ _____    ______ ____
ROOT
ATOM      1  C   UNL     1       2.989   6.286  18.957  0.00  0.00    +0.000 A 
ATOM      2  C   UNL     1       2.624   5.544  20.057  0.00  0.00    +0.000 A 
ATOM      3  N   UNL     1       1.894   6.391  20.838  0.00  0.00    +0.000 N 
ATOM      4  C   UNL     1       1.817   7.610  20.206  0.00  0.00    +0.000 A 
ATOM      5  N   UNL     1       2.473   7.560  19.059  0.00  0.00    +0.000 NA
ATOM      6  H   UNL     1       1.443   6.158  21.709  0.00  0.00    +0.000 HD
ENDROOT
BRANCH   1  11
ATOM      7 CL   UNL     1       6.306   4.417  14.343  0.00  0.00    +0.000 Cl
ATOM      8  C   UNL     1       5.349   4.954  15.668  0.00  0.00    +0.000 A 
ATOM      9  C   UNL     1       4.680   4.021  16.455  0.00  0.00    +0.000 A 
ATOM     10  C   UNL     1       3.904   4.453  17.534  0.00  0.00    +0.000 A 
ATOM     11  C   UNL     1       3.789   5.820  17.835  0.00  0.00    +0.000 A 
ATOM     12  C   UNL     1       4.469   6.745  17.028  0.00  0.00    +0.000 A 
ATOM     13  C   UNL     1       5.246   6.314  15.948  0.00  0.00    +0.000 A 
ENDBRANCH   1  11
BRANCH   4  14
ATOM     14  C   UNL     1       1.042   8.730  20.738  0.00  0.00    +0.000 A 
ATOM     15  C   UNL     1       0.689   9.824  19.932  0.00  0.00    +0.000 A 
ATOM     16  C   UNL     1       0.016  10.919  20.476  0.00  0.00    +0.000 A 
ATOM     17  C   UNL     1      -0.317  10.929  21.828  0.00  0.00    +0.000 A 
ATOM     18  C   UNL     1       0.004   9.838  22.633  0.00  0.00    +0.000 A 
ATOM     19  C   UNL     1       0.674   8.740  22.088  0.00  0.00    +0.000 A 
ENDBRANCH   4  14
TORSDOF 2
ENDMDL
