MODEL 1
REMARK VINA RESULT:      -6.7      0.000      0.000
REMARK  Name = 
REMARK  6 active torsions:
REMARK  status: ('A' for Active; 'I' for Inactive)
REMARK    1  A    between atoms: C_1  and  C_2
REMARK    2  A    between atoms: C_9  and  C_10
REMARK    3  A    between atoms: C_13  and  N_14
REMARK    4  A    between atoms: N_14  and  C_15
REMARK    5  A    between atoms: N_14  and  C_16
REMARK    6  A    between atoms: N_19  and  C_20
REMARK                            x       y       z     vdW  Elec       q    Type
REMARK                         _______ _______ _______ _____ _____    ______ ____
ROOT
ATOM      1  C   UNL     1       6.524   4.079  14.985  0.00  0.00    +0.000 C 
ATOM      2  C   UNL     1       5.465   4.524  15.948  0.00  0.00    +0.000 A 
ATOM      3  C   UNL     1       4.777   3.576  16.735  0.00  0.00    +0.000 A 
ATOM      4  C   UNL     1       3.817   3.985  17.669  0.00  0.00    +0.000 A 
ATOM      5  C   UNL     1       3.542   5.352  17.816  0.00  0.00    +0.000 A 
ATOM      6  C   UNL     1       4.200   6.273  17.017  0.00  0.00    +0.000 A 
ATOM      7  C   UNL     1       5.164   5.895  16.082  0.00  0.00    +0.000 A 
ATOM      8  S   UNL     1       3.650   7.812  17.387  0.00  0.00    +0.000 S 
ATOM      9  C   UNL     1       2.611   7.259  18.612  0.00  0.00    +0.000 A 
ATOM     10  N   UNL     1       2.651   5.889  18.704  0.00  0.00    +0.000 N 
ATOM     11  C   UNL     1       1.843   5.036  19.589  0.00  0.00    +0.000 C 
ENDROOT
BRANCH   9  12
ATOM     12  C   UNL     1       1.827   8.189  19.474  0.00  0.00    +0.000 A 
ATOM     13  C   UNL     1       1.276   9.362  18.941  0.00  0.00    +0.000 A 
ATOM     14  C   UNL     1       0.533  10.237  19.744  0.00  0.00    +0.000 A 
ATOM     15  C   UNL     1       0.327   9.987  21.129  0.00  0.00    +0.000 A 
ATOM     16  C   UNL     1       0.932   8.813  21.648  0.00  0.00    +0.000 A 
ATOM     17  C   UNL     1       1.659   7.946  20.840  0.00  0.00    +0.000 A 
BRANCH  15  18
ATOM     18  N   UNL     1      -0.445  10.888  21.980  0.00  0.00    +0.000 N 
ATOM     19  C   UNL     1      -1.087  10.468  23.221  0.00  0.00    +0.000 C 
ATOM     20  C   UNL     1      -0.652  12.303  21.674  0.00  0.00    +0.000 C 
ENDBRANCH  15  18
ENDBRANCH   9  12
TORSDOF 2
ENDMDL
MODEL 2
REMARK VINA RESULT:      -6.6      0.217      1.097
REMARK  Name = 
REMARK  6 active torsions:
REMARK  status: ('A' for Active; 'I' for Inactive)
REMARK    1  A    between atoms: C_1  and  C_2
REMARK    2  A    between atoms: C_9  and  C_10
REMARK    3  A    between atoms: C_13  and  N_14
REMARK    4  A    between atoms: N_14  and  C_15
REMARK    5  A    between atoms: N_14  and  C_16
REMARK    6  A    between atoms: N_19  and  C_20
REMARK                            x       y       z     vdW  Elec       q    Type
REMARK                         _______ _______ _______ _____ _____    ______ ____
ROOT
ATOM      1  C   UNL     1       6.590   4.044  15.225  0.00  0.00    +0.000 C 
ATOM      2  C   UNL     1       5.507   4.501  16.155  0.00  0.00    +0.000 A 
ATOM      3  C   UNL     1       4.836   3.570  16.975  0.00  0.00    +0.000 A 
ATOM      4  C   UNL     1       3.852   3.992  17.878  0.00  0.00    +0.000 A 
ATOM      5  C   UNL     1       3.537   5.356  17.961  0.00  0.00    +0.000 A 
ATOM      6  C   UNL     1       4.180   6.259  17.129  0.00  0.00    +0.000 A 
ATOM      7  C   UNL     1       5.165   5.868  16.224  0.00  0.00    +0.000 A 
ATOM      8  S   UNL     1       3.581   7.797  17.423  0.00  0.00    +0.000 S 
ATOM      9  C   UNL     1       2.543   7.269  18.660  0.00  0.00    +0.000 A 
ATOM     10  N   UNL     1       2.620   5.906  18.814  0.00  0.00    +0.000 N 
ATOM     11  C   UNL     1       1.825   5.071  19.726  0.00  0.00    +0.000 C 
ENDROOT
BRANCH   9  12
ATOM     12  C   UNL     1       1.722   8.214  19.470  0.00  0.00    +0.000 A 
ATOM     13  C   UNL     1       1.520   7.990  20.838  0.00  0.00    +0.000 A 
ATOM     14  C   UNL     1       0.754   8.877  21.607  0.00  0.00    +0.000 A 
ATOM     15  C   UNL     1       0.136  10.021  21.032  0.00  0.00    +0.000 A 
ATOM     16  C   UNL     1       0.325  10.198  19.637  0.00  0.00    +0.000 A 
ATOM     17  C   UNL     1       1.094   9.318  18.885  0.00  0.00    +0.000 A 
BRANCH  15  18
ATOM     18  N   UNL     1      -0.664  10.956  21.819  0.00  0.00    +0.000 N 
ATOM     19  C   UNL     1      -1.144  10.667  23.166  0.00  0.00    +0.000 C 
ATOM     20  C   UNL     1      -1.063  12.277  21.335  0.00  0.00    +0.000 C 
ENDBRANCH  15  18
ENDBRANCH   9  12
TORSDOF 2
ENDMDL
MODEL 3
REMARK VINA RESULT:      -6.4      1.678      2.778
REMARK  Name = 
REMARK  6 active torsions:
REMARK  status: ('A' for Active; 'I' for Inactive)
REMARK    1  A    between atoms: C_1  and  C_2
REMARK    2  A    between atoms: C_9  and  C_10
REMARK    3  A    between atoms: C_13  and  N_14
REMARK    4  A    between atoms: N_14  and  C_15
REMARK    5  A    between atoms: N_14  and  C_16
REMARK    6  A    between atoms: N_19  and  C_20
REMARK                            x       y       z     vdW  Elec       q    Type
REMARK                         _______ _______ _______ _____ _____    ______ ____
ROOT
ATOM      1  C   UNL     1       3.670   1.428  18.084  0.00  0.00    +0.000 C 
ATOM      2  C   UNL     1       3.435   2.900  18.238  0.00  0.00    +0.000 A 
ATOM      3  C   UNL     1       3.850   3.794  17.228  0.00  0.00    +0.000 A 
ATOM      4  C   UNL     1       3.598   5.167  17.342  0.00  0.00    +0.000 A 
ATOM      5  C   UNL     1       2.928   5.650  18.476  0.00  0.00    +0.000 A 
ATOM      6  C   UNL     1       2.553   4.767  19.477  0.00  0.00    +0.000 A 
ATOM      7  C   UNL     1       2.787   3.396  19.388  0.00  0.00    +0.000 A 
ATOM      8  S   UNL     1       1.809   5.624  20.711  0.00  0.00    +0.000 S 
ATOM      9  C   UNL     1       1.939   7.110  19.899  0.00  0.00    +0.000 A 
ATOM     10  N   UNL     1       2.596   6.957  18.702  0.00  0.00    +0.000 N 
ATOM     11  C   UNL     1       2.966   8.017  17.752  0.00  0.00    +0.000 C 
ENDROOT
BRANCH   9  12
ATOM     12  C   UNL     1       1.351   8.368  20.439  0.00  0.00    +0.000 A 
ATOM     13  C   UNL     1       1.125   8.518  21.814  0.00  0.00    +0.000 A 
ATOM     14  C   UNL     1       0.577   9.700  22.329  0.00  0.00    +0.000 A 
ATOM     15  C   UNL     1       0.209  10.783  21.484  0.00  0.00    +0.000 A 
ATOM     16  C   UNL     1       0.412  10.586  20.093  0.00  0.00    +0.000 A 
ATOM     17  C   UNL     1       0.965   9.413  19.593  0.00  0.00    +0.000 A 
BRANCH  15  18
ATOM     18  N   UNL     1      -0.361  12.022  22.004  0.00  0.00    +0.000 N 
ATOM     19  C   UNL     1       0.065  13.349  21.568  0.00  0.00    +0.000 C 
ATOM     20  C   UNL     1      -1.417  12.059  23.014  0.00  0.00    +0.000 C 
ENDBRANCH  15  18
ENDBRANCH   9  12
TORSDOF 2
ENDMDL
MODEL 4
REMARK VINA RESULT:      -6.4      1.686      2.492
REMARK  Name = 
REMARK  6 active torsions:
REMARK  status: ('A' for Active; 'I' for Inactive)
REMARK    1  A    between atoms: C_1  and  C_2
REMARK    2  A    between atoms: C_9  and  C_10
REMARK    3  A    between atoms: C_13  and  N_14
REMARK    4  A    between atoms: N_14  and  C_15
REMARK    5  A    between atoms: N_14  and  C_16
REMARK    6  A    between atoms: N_19  and  C_20
REMARK                            x       y       z     vdW  Elec       q    Type
REMARK                         _______ _______ _______ _____ _____    ______ ____
ROOT
ATOM      1  C   UNL     1       3.690   1.289  18.266  0.00  0.00    +0.000 C 
ATOM      2  C   UNL     1       3.482   2.769  18.378  0.00  0.00    +0.000 A 
ATOM      3  C   UNL     1       3.979   3.633  17.379  0.00  0.00    +0.000 A 
ATOM      4  C   UNL     1       3.754   5.013  17.451  0.00  0.00    +0.000 A 
ATOM      5  C   UNL     1       3.026   5.534  18.532  0.00  0.00    +0.000 A 
ATOM      6  C   UNL     1       2.570   4.680  19.524  0.00  0.00    +0.000 A 
ATOM      7  C   UNL     1       2.776   3.302  19.476  0.00  0.00    +0.000 A 
ATOM      8  S   UNL     1       1.772   5.578  20.693  0.00  0.00    +0.000 S 
ATOM      9  C   UNL     1       1.987   7.044  19.863  0.00  0.00    +0.000 A 
ATOM     10  N   UNL     1       2.712   6.853  18.713  0.00  0.00    +0.000 N 
ATOM     11  C   UNL     1       3.166   7.884  17.768  0.00  0.00    +0.000 C 
ENDROOT
BRANCH   9  12
ATOM     12  C   UNL     1       1.396   8.326  20.342  0.00  0.00    +0.000 A 
ATOM     13  C   UNL     1       1.174   9.386  19.452  0.00  0.00    +0.000 A 
ATOM     14  C   UNL     1       0.614  10.592  19.895  0.00  0.00    +0.000 A 
ATOM     15  C   UNL     1       0.270  10.799  21.260  0.00  0.00    +0.000 A 
ATOM     16  C   UNL     1       0.545   9.724  22.143  0.00  0.00    +0.000 A 
ATOM     17  C   UNL     1       1.093   8.527  21.693  0.00  0.00    +0.000 A 
BRANCH  15  18
ATOM     18  N   UNL     1      -0.315  12.048  21.737  0.00  0.00    +0.000 N 
ATOM     19  C   UNL     1      -1.237  12.124  22.866  0.00  0.00    +0.000 C 
ATOM     20  C   UNL     1      -0.036  13.350  21.132  0.00  0.00    +0.000 C 
ENDBRANCH  15  18
ENDBRANCH   9  12
TORSDOF 2
ENDMDL
MODEL 5
REMARK VINA RESULT:      -6.3      1.890      7.974
REMARK  Name = 
REMARK  6 active torsions:
REMARK  status: ('A' for Active; 'I' for Inactive)
REMARK    1  A    between atoms: C_1  and  C_2
REMARK    2  A    between atoms: C_9  and  C_10
REMARK    3  A    between atoms: C_13  and  N_14
REMARK    4  A    between atoms: N_14  and  C_15
REMARK    5  A    between atoms: N_14  and  C_16
REMARK    6  A    between atoms: N_19  and  C_20
REMARK                            x       y       z     vdW  Elec       q    Type
REMARK                         _______ _______ _______ _____ _____    ______ ____
ROOT
ATOM      1  C   UNL     1      -2.146  12.513  23.453  0.00  0.00    +0.000 C 
ATOM      2  C   UNL     1      -1.503  11.737  22.344  0.00  0.00    +0.000 A 
ATOM      3  C   UNL     1      -1.751  12.085  20.999  0.00  0.00    +0.000 A 
ATOM      4  C   UNL     1      -1.123  11.395  19.955  0.00  0.00    +0.000 A 
ATOM      5  C   UNL     1      -0.241  10.348  20.258  0.00  0.00    +0.000 A 
ATOM      6  C   UNL     1      -0.028   9.993  21.581  0.00  0.00    +0.000 A 
ATOM      7  C   UNL     1      -0.636  10.665  22.640  0.00  0.00    +0.000 A 
ATOM      8  S   UNL     1       1.037   8.700  21.636  0.00  0.00    +0.000 S 
ATOM      9  C   UNL     1       1.242   8.662  19.951  0.00  0.00    +0.000 A 
ATOM     10  N   UNL     1       0.457   9.611  19.341  0.00  0.00    +0.000 N 
ATOM     11  C   UNL     1       0.303   9.839  17.897  0.00  0.00    +0.000 C 
ENDROOT
BRANCH   9  12
ATOM     12  C   UNL     1       2.202   7.737  19.284  0.00  0.00    +0.000 A 
ATOM     13  C   UNL     1       2.821   8.097  18.080  0.00  0.00    +0.000 A 
ATOM     14  C   UNL     1       3.729   7.234  17.451  0.00  0.00    +0.000 A 
ATOM     15  C   UNL     1       4.042   5.956  17.992  0.00  0.00    +0.000 A 
ATOM     16  C   UNL     1       3.369   5.604  19.190  0.00  0.00    +0.000 A 
ATOM     17  C   UNL     1       2.477   6.471  19.812  0.00  0.00    +0.000 A 
BRANCH  15  18
ATOM     18  N   UNL     1       4.986   5.046  17.351  0.00  0.00    +0.000 N 
ATOM     19  C   UNL     1       4.584   3.824  16.662  0.00  0.00    +0.000 C 
ATOM     20  C   UNL     1       6.432   5.267  17.335  0.00  0.00    +0.000 C 
ENDBRANCH  15  18
ENDBRANCH   9  12
TORSDOF 2
ENDMDL
MODEL 6
REMARK VINA RESULT:      -6.2      1.801      7.858
REMARK  Name = 
REMARK  6 active torsions:
REMARK  status: ('A' for Active; 'I' for Inactive)
REMARK    1  A    between atoms: C_1  and  C_2
REMARK    2  A    between atoms: C_9  and  C_10
REMARK    3  A    between atoms: C_13  and  N_14
REMARK    4  A    between atoms: N_14  and  C_15
REMARK    5  A    between atoms: N_14  and  C_16
REMARK    6  A    between atoms: N_19  and  C_20
REMARK                            x       y       z     vdW  Elec       q    Type
REMARK                         _______ _______ _______ _____ _____    ______ ____
ROOT
ATOM      1  C   UNL     1      -1.491  10.974  23.305  0.00  0.00    +0.000 C 
ATOM      2  C   UNL     1      -0.728  10.467  22.118  0.00  0.00    +0.000 A 
ATOM      3  C   UNL     1      -0.667  11.233  20.935  0.00  0.00    +0.000 A 
ATOM      4  C   UNL     1       0.079  10.790  19.835  0.00  0.00    +0.000 A 
ATOM      5  C   UNL     1       0.767   9.571  19.919  0.00  0.00    +0.000 A 
ATOM      6  C   UNL     1       0.675   8.811  21.075  0.00  0.00    +0.000 A 
ATOM      7  C   UNL     1      -0.056   9.229  22.186  0.00  0.00    +0.000 A 
ATOM      8  S   UNL     1       1.563   7.404  20.877  0.00  0.00    +0.000 S 
ATOM      9  C   UNL     1       2.093   7.833  19.321  0.00  0.00    +0.000 A 
ATOM     10  N   UNL     1       1.550   9.034  18.934  0.00  0.00    +0.000 N 
ATOM     11  C   UNL     1       1.709   9.701  17.634  0.00  0.00    +0.000 C 
ENDROOT
BRANCH   9  12
ATOM     12  C   UNL     1       3.062   7.003  18.551  0.00  0.00    +0.000 A 
ATOM     13  C   UNL     1       3.842   7.574  17.536  0.00  0.00    +0.000 A 
ATOM     14  C   UNL     1       4.758   6.800  16.811  0.00  0.00    +0.000 A 
ATOM     15  C   UNL     1       4.919   5.408  17.057  0.00  0.00    +0.000 A 
ATOM     16  C   UNL     1       4.087   4.851  18.062  0.00  0.00    +0.000 A 
ATOM     17  C   UNL     1       3.187   5.629  18.782  0.00  0.00    +0.000 A 
BRANCH  15  18
ATOM     18  N   UNL     1       5.870   4.588  16.313  0.00  0.00    +0.000 N 
ATOM     19  C   UNL     1       7.251   4.375  16.735  0.00  0.00    +0.000 C 
ATOM     20  C   UNL     1       5.534   3.896  15.068  0.00  0.00    +0.000 C 
ENDBRANCH  15  18
ENDBRANCH   9  12
TORSDOF 2
ENDMDL
MODEL 7
REMARK VINA RESULT:      -6.2      1.903      8.333
REMARK  Name = 
REMARK  6 active torsions:
REMARK  status: ('A' for Active; 'I' for Inactive)
REMARK    1  A    between atoms: C_1  and  C_2
REMARK    2  A    between atoms: C_9  and  C_10
REMARK    3  A    between atoms: C_13  and  N_14
REMARK    4  A    between atoms: N_14  and  C_15
REMARK    5  A    between atoms: N_14  and  C_16
REMARK    6  A    between atoms: N_19  and  C_20
REMARK                            x       y       z     vdW  Elec       q    Type
REMARK                         _______ _______ _______ _____ _____    ______ ____
ROOT
ATOM      1  C   UNL     1      -3.779  13.961  22.085  0.00  0.00    +0.000 C 
ATOM      2  C   UNL     1      -2.693  12.936  21.957  0.00  0.00    +0.000 A 
ATOM      3  C   UNL     1      -2.183  12.296  23.106  0.00  0.00    +0.000 A 
ATOM      4  C   UNL     1      -1.198  11.306  22.994  0.00  0.00    +0.000 A 
ATOM      5  C   UNL     1      -0.719  10.956  21.723  0.00  0.00    +0.000 A 
ATOM      6  C   UNL     1      -1.204  11.613  20.603  0.00  0.00    +0.000 A 
ATOM      7  C   UNL     1      -2.187  12.599  20.685  0.00  0.00    +0.000 A 
ATOM      8  S   UNL     1      -0.433  11.015  19.240  0.00  0.00    +0.000 S 
ATOM      9  C   UNL     1       0.472   9.881  20.123  0.00  0.00    +0.000 A 
ATOM     10  N   UNL     1       0.218   9.993  21.468  0.00  0.00    +0.000 N 
ATOM     11  C   UNL     1       0.859   9.240  22.557  0.00  0.00    +0.000 C 
ENDROOT
BRANCH   9  12
ATOM     12  C   UNL     1       1.365   8.886  19.463  0.00  0.00    +0.000 A 
ATOM     13  C   UNL     1       1.774   7.732  20.145  0.00  0.00    +0.000 A 
ATOM     14  C   UNL     1       2.609   6.790  19.529  0.00  0.00    +0.000 A 
ATOM     15  C   UNL     1       3.091   6.973  18.204  0.00  0.00    +0.000 A 
ATOM     16  C   UNL     1       2.693   8.170  17.555  0.00  0.00    +0.000 A 
ATOM     17  C   UNL     1       1.857   9.094  18.171  0.00  0.00    +0.000 A 
BRANCH  15  18
ATOM     18  N   UNL     1       3.960   6.001  17.547  0.00  0.00    +0.000 N 
ATOM     19  C   UNL     1       5.125   6.373  16.750  0.00  0.00    +0.000 C 
ATOM     20  C   UNL     1       3.750   4.555  17.622  0.00  0.00    +0.000 C 
ENDBRANCH  15  18
ENDBRANCH   9  12
TORSDOF 2
ENDMDL
MODEL 8
REMARK VINA RESULT:      -6.2      1.872      7.998
REMARK  Name = 
REMARK  6 active torsions:
REMARK  status: ('A' for Active; 'I' for Inactive)
REMARK    1  A    between atoms: C_1  and  C_2
REMARK    2  A    between atoms: C_9  and  C_10
REMARK    3  A    between atoms: C_13  and  N_14
REMARK    4  A    between atoms: N_14  and  C_15
REMARK    5  A    between atoms: N_14  and  C_16
REMARK    6  A    between atoms: N_19  and  C_20
REMARK                            x       y       z     vdW  Elec       q    Type
REMARK                         _______ _______ _______ _____ _____    ______ ____
ROOT
ATOM      1  C   UNL     1      -3.497  13.726  20.831  0.00  0.00    +0.000 C 
ATOM      2  C   UNL     1      -2.400  12.710  20.929  0.00  0.00    +0.000 A 
ATOM      3  C   UNL     1      -1.902  12.323  22.191  0.00  0.00    +0.000 A 
ATOM      4  C   UNL     1      -0.907  11.344  22.297  0.00  0.00    +0.000 A 
ATOM      5  C   UNL     1      -0.405  10.747  21.131  0.00  0.00    +0.000 A 
ATOM      6  C   UNL     1      -0.878  11.157  19.894  0.00  0.00    +0.000 A 
ATOM      7  C   UNL     1      -1.871  12.126  19.759  0.00  0.00    +0.000 A 
ATOM      8  S   UNL     1      -0.080  10.303  18.692  0.00  0.00    +0.000 S 
ATOM      9  C   UNL     1       0.822   9.383  19.800  0.00  0.00    +0.000 A 
ATOM     10  N   UNL     1       0.545   9.764  21.091  0.00  0.00    +0.000 N 
ATOM     11  C   UNL     1       1.175   9.257  22.319  0.00  0.00    +0.000 C 
ENDROOT
BRANCH   9  12
ATOM     12  C   UNL     1       1.734   8.285  19.370  0.00  0.00    +0.000 A 
ATOM     13  C   UNL     1       2.476   8.397  18.186  0.00  0.00    +0.000 A 
ATOM     14  C   UNL     1       3.339   7.371  17.779  0.00  0.00    +0.000 A 
ATOM     15  C   UNL     1       3.483   6.173  18.531  0.00  0.00    +0.000 A 
ATOM     16  C   UNL     1       2.688   6.072  19.702  0.00  0.00    +0.000 A 
ATOM     17  C   UNL     1       1.841   7.100  20.103  0.00  0.00    +0.000 A 
BRANCH  15  18
ATOM     18  N   UNL     1       4.379   5.096  18.122  0.00  0.00    +0.000 N 
ATOM     19  C   UNL     1       4.281   4.413  16.835  0.00  0.00    +0.000 C 
ATOM     20  C   UNL     1       5.466   4.592  18.961  0.00  0.00    +0.000 C 
ENDBRANCH  15  18
ENDBRANCH   9  12
TORSDOF 2
ENDMDL
MODEL 9
REMARK VINA RESULT:      -6.1      1.928      8.012
REMARK  Name = 
REMARK  6 active torsions:
REMARK  status: ('A' for Active; 'I' for Inactive)
REMARK    1  A    between atoms: C_1  and  C_2
REMARK    2  A    between atoms: C_9  and  C_10
REMARK    3  A    between atoms: C_13  and  N_14
REMARK    4  A    between atoms: N_14  and  C_15
REMARK    5  A    between atoms: N_14  and  C_16
REMARK    6  A    between atoms: N_19  and  C_20
REMARK                            x       y       z     vdW  Elec       q    Type
REMARK                         _______ _______ _______ _____ _____    ______ ____
ROOT
ATOM      1  C   UNL     1      -1.721  13.313  23.256  0.00  0.00    +0.000 C 
ATOM      2  C   UNL     1      -1.087  12.371  22.279  0.00  0.00    +0.000 A 
ATOM      3  C   UNL     1      -0.904  12.760  20.934  0.00  0.00    +0.000 A 
ATOM      4  C   UNL     1      -0.274  11.904  20.023  0.00  0.00    +0.000 A 
ATOM      5  C   UNL     1       0.175  10.649  20.458  0.00  0.00    +0.000 A 
ATOM      6  C   UNL     1      -0.037  10.263  21.772  0.00  0.00    +0.000 A 
ATOM      7  C   UNL     1      -0.658  11.096  22.702  0.00  0.00    +0.000 A 
ATOM      8  S   UNL     1       0.568   8.716  21.994  0.00  0.00    +0.000 S 
ATOM      9  C   UNL     1       1.142   8.600  20.399  0.00  0.00    +0.000 A 
ATOM     10  N   UNL     1       0.826   9.729  19.683  0.00  0.00    +0.000 N 
ATOM     11  C   UNL     1       1.085   9.975  18.256  0.00  0.00    +0.000 C 
ENDROOT
BRANCH   9  12
ATOM     12  C   UNL     1       1.924   7.427  19.916  0.00  0.00    +0.000 A 
ATOM     13  C   UNL     1       2.679   7.508  18.738  0.00  0.00    +0.000 A 
ATOM     14  C   UNL     1       3.421   6.410  18.281  0.00  0.00    +0.000 A 
ATOM     15  C   UNL     1       3.423   5.170  18.976  0.00  0.00    +0.000 A 
ATOM     16  C   UNL     1       2.618   5.106  20.142  0.00  0.00    +0.000 A 
ATOM     17  C   UNL     1       1.893   6.203  20.593  0.00  0.00    +0.000 A 
BRANCH  15  18
ATOM     18  N   UNL     1       4.192   4.017  18.515  0.00  0.00    +0.000 N 
ATOM     19  C   UNL     1       4.768   3.918  17.178  0.00  0.00    +0.000 C 
ATOM     20  C   UNL     1       4.462   2.846  19.348  0.00  0.00    +0.000 C 
ENDBRANCH  15  18
ENDBRANCH   9  12
TORSDOF 2
ENDMDL
