MODEL 1
REMARK VINA RESULT:      -7.2      0.000      0.000
REMARK  Name = 
REMARK  10 active torsions:
REMARK  status: ('A' for Active; 'I' for Inactive)
REMARK    1  A    between atoms: C_1  and  C_2
REMARK    2  A    between atoms: C_2  and  O_3
REMARK    3  A    between atoms: O_3  and  C_4
REMARK    4  A    between atoms: C_10  and  C_12
REMARK    5  A    between atoms: C_12  and  O_13
REMARK    6  A    between atoms: O_13  and  C_14
REMARK    7  A    between atoms: C_14  and  C_16
REMARK    8  A    between atoms: C_16  and  S_17
REMARK    9  A    between atoms: S_17  and  C_18
REMARK   10  A    between atoms: C_21  and  N_22
REMARK                            x       y       z     vdW  Elec       q    Type
REMARK                         _______ _______ _______ _____ _____    ______ ____
ROOT
ATOM      1  C   UNL     1       4.960   4.194  19.966  0.00  0.00    +0.000 C 
ENDROOT
BRANCH   1   8
ATOM      2  C   UNL     1       6.632   4.581  13.761  0.00  0.00    +0.000 C 
ATOM      3  O   UNL     1       7.554   5.160  13.199  0.00  0.00    +0.000 OA
ATOM      4  N   UNL     1       6.602   4.310  15.112  0.00  0.00    +0.000 N 
ATOM      5  C   UNL     1       7.690   4.779  15.969  0.00  0.00    +0.000 C 
ATOM      6  C   UNL     1       7.150   5.639  17.122  0.00  0.00    +0.000 C 
ATOM      7  N   UNL     1       6.078   4.941  17.847  0.00  0.00    +0.000 N 
ATOM      8  C   UNL     1       6.091   4.941  19.240  0.00  0.00    +0.000 C 
ATOM      9  O   UNL     1       6.971   5.519  19.882  0.00  0.00    +0.000 OA
ATOM     10  C   UNL     1       4.979   4.464  16.991  0.00  0.00    +0.000 C 
ATOM     11  C   UNL     1       5.500   3.634  15.802  0.00  0.00    +0.000 C 
BRANCH   2  12
ATOM     12  O   UNL     1       5.481   4.213  13.137  0.00  0.00    +0.000 OA
BRANCH  12  14
ATOM     13  C   UNL     1       4.325   3.140  11.340  0.00  0.00    +0.000 C 
ATOM     14  C   UNL     1       5.636   3.230  12.103  0.00  0.00    +0.000 C 
ENDBRANCH  12  14
ENDBRANCH   2  12
ENDBRANCH   1   8
BRANCH   1  15
ATOM     15  O   UNL     1       5.004   2.768  19.796  0.00  0.00    +0.000 OA
BRANCH  15  16
ATOM     16  C   UNL     1       3.780   2.159  19.848  0.00  0.00    +0.000 C 
ATOM     17  O   UNL     1       3.320   1.492  18.932  0.00  0.00    +0.000 OA
BRANCH  16  18
ATOM     18  C   UNL     1       3.081   2.497  21.164  0.00  0.00    +0.000 C 
BRANCH  18  19
ATOM     19  S   UNL     1       1.366   3.066  20.848  0.00  0.00    +0.000 S 
BRANCH  19  20
ATOM     20  C   UNL     1       1.589   4.604  19.972  0.00  0.00    +0.000 A 
ATOM     21  C   UNL     1       1.892   5.806  20.622  0.00  0.00    +0.000 A 
ATOM     22  C   UNL     1       2.217   6.953  19.881  0.00  0.00    +0.000 A 
ATOM     23  C   UNL     1       2.241   6.894  18.481  0.00  0.00    +0.000 A 
ATOM     24  C   UNL     1       1.931   5.701  17.821  0.00  0.00    +0.000 A 
ATOM     25  C   UNL     1       1.612   4.563  18.571  0.00  0.00    +0.000 A 
BRANCH  23  26
ATOM     26  N   UNL     1       2.625   8.078  17.700  0.00  0.00    +0.000 N 
ATOM     27  O   UNL     1       3.608   7.975  16.947  0.00  0.00    +0.000 OA
ATOM     28  O   UNL     1       1.950   9.106  17.835  0.00  0.00    +0.000 OA
ENDBRANCH  23  26
ENDBRANCH  19  20
ENDBRANCH  18  19
ENDBRANCH  16  18
ENDBRANCH  15  16
ENDBRANCH   1  15
TORSDOF 9
ENDMDL
MODEL 2
REMARK VINA RESULT:      -6.9      3.629      8.014
REMARK  Name = 
REMARK  10 active torsions:
REMARK  status: ('A' for Active; 'I' for Inactive)
REMARK    1  A    between atoms: C_1  and  C_2
REMARK    2  A    between atoms: C_2  and  O_3
REMARK    3  A    between atoms: O_3  and  C_4
REMARK    4  A    between atoms: C_10  and  C_12
REMARK    5  A    between atoms: C_12  and  O_13
REMARK    6  A    between atoms: O_13  and  C_14
REMARK    7  A    between atoms: C_14  and  C_16
REMARK    8  A    between atoms: C_16  and  S_17
REMARK    9  A    between atoms: S_17  and  C_18
REMARK   10  A    between atoms: C_21  and  N_22
REMARK                            x       y       z     vdW  Elec       q    Type
REMARK                         _______ _______ _______ _____ _____    ______ ____
ROOT
ATOM      1  C   UNL     1       2.511   6.235  19.972  0.00  0.00    +0.000 C 
ENDROOT
BRANCH   1   8
ATOM      2  C   UNL     1      -0.943  11.568  21.011  0.00  0.00    +0.000 C 
ATOM      3  O   UNL     1      -1.169  12.544  20.305  0.00  0.00    +0.000 OA
ATOM      4  N   UNL     1      -0.475  10.364  20.531  0.00  0.00    +0.000 N 
ATOM      5  C   UNL     1      -0.159  10.223  19.111  0.00  0.00    +0.000 C 
ATOM      6  C   UNL     1       1.290   9.751  18.914  0.00  0.00    +0.000 C 
ATOM      7  N   UNL     1       1.568   8.545  19.709  0.00  0.00    +0.000 N 
ATOM      8  C   UNL     1       2.245   7.484  19.115  0.00  0.00    +0.000 C 
ATOM      9  O   UNL     1       2.627   7.530  17.943  0.00  0.00    +0.000 OA
ATOM     10  C   UNL     1       1.251   8.678  21.141  0.00  0.00    +0.000 C 
ATOM     11  C   UNL     1      -0.185   9.192  21.362  0.00  0.00    +0.000 C 
BRANCH   2  12
ATOM     12  O   UNL     1      -1.042  11.578  22.366  0.00  0.00    +0.000 OA
BRANCH  12  14
ATOM     13  C   UNL     1      -2.001  13.440  23.521  0.00  0.00    +0.000 C 
ATOM     14  C   UNL     1      -2.280  12.089  22.884  0.00  0.00    +0.000 C 
ENDBRANCH  12  14
ENDBRANCH   2  12
ENDBRANCH   1   8
BRANCH   1  15
ATOM     15  O   UNL     1       1.335   5.453  20.239  0.00  0.00    +0.000 OA
BRANCH  15  16
ATOM     16  C   UNL     1       1.594   4.188  20.691  0.00  0.00    +0.000 C 
ATOM     17  O   UNL     1       2.223   3.954  21.713  0.00  0.00    +0.000 OA
BRANCH  16  18
ATOM     18  C   UNL     1       1.046   3.156  19.706  0.00  0.00    +0.000 C 
BRANCH  18  19
ATOM     19  S   UNL     1       2.372   1.997  19.193  0.00  0.00    +0.000 S 
BRANCH  19  20
ATOM     20  C   UNL     1       3.580   3.058  18.419  0.00  0.00    +0.000 A 
ATOM     21  C   UNL     1       3.367   3.665  17.177  0.00  0.00    +0.000 A 
ATOM     22  C   UNL     1       4.274   4.617  16.685  0.00  0.00    +0.000 A 
ATOM     23  C   UNL     1       5.400   4.963  17.444  0.00  0.00    +0.000 A 
ATOM     24  C   UNL     1       5.628   4.356  18.683  0.00  0.00    +0.000 A 
ATOM     25  C   UNL     1       4.714   3.411  19.164  0.00  0.00    +0.000 A 
BRANCH  23  26
ATOM     26  N   UNL     1       6.329   5.992  16.957  0.00  0.00    +0.000 N 
ATOM     27  O   UNL     1       5.875   7.132  16.768  0.00  0.00    +0.000 OA
ATOM     28  O   UNL     1       7.508   5.665  16.765  0.00  0.00    +0.000 OA
ENDBRANCH  23  26
ENDBRANCH  19  20
ENDBRANCH  18  19
ENDBRANCH  16  18
ENDBRANCH  15  16
ENDBRANCH   1  15
TORSDOF 9
ENDMDL
MODEL 3
REMARK VINA RESULT:      -6.7      3.435      7.506
REMARK  Name = 
REMARK  10 active torsions:
REMARK  status: ('A' for Active; 'I' for Inactive)
REMARK    1  A    between atoms: C_1  and  C_2
REMARK    2  A    between atoms: C_2  and  O_3
REMARK    3  A    between atoms: O_3  and  C_4
REMARK    4  A    between atoms: C_10  and  C_12
REMARK    5  A    between atoms: C_12  and  O_13
REMARK    6  A    between atoms: O_13  and  C_14
REMARK    7  A    between atoms: C_14  and  C_16
REMARK    8  A    between atoms: C_16  and  S_17
REMARK    9  A    between atoms: S_17  and  C_18
REMARK   10  A    between atoms: C_21  and  N_22
REMARK                            x       y       z     vdW  Elec       q    Type
REMARK                         _______ _______ _______ _____ _____    ______ ____
ROOT
ATOM      1  C   UNL     1       3.943   7.207  17.521  0.00  0.00    +0.000 C 
ENDROOT
BRANCH   1   8
ATOM      2  C   UNL     1      -0.473  11.373  19.664  0.00  0.00    +0.000 C 
ATOM      3  O   UNL     1      -1.154  11.388  20.683  0.00  0.00    +0.000 OA
ATOM      4  N   UNL     1       0.662  10.607  19.508  0.00  0.00    +0.000 N 
ATOM      5  C   UNL     1       1.076   9.700  20.578  0.00  0.00    +0.000 C 
ATOM      6  C   UNL     1       1.216   8.262  20.056  0.00  0.00    +0.000 C 
ATOM      7  N   UNL     1       2.076   8.211  18.863  0.00  0.00    +0.000 N 
ATOM      8  C   UNL     1       3.056   7.226  18.776  0.00  0.00    +0.000 C 
ATOM      9  O   UNL     1       3.216   6.388  19.668  0.00  0.00    +0.000 OA
ATOM     10  C   UNL     1       1.667   9.123  17.782  0.00  0.00    +0.000 C 
ATOM     11  C   UNL     1       1.479  10.565  18.292  0.00  0.00    +0.000 C 
BRANCH   2  12
ATOM     12  O   UNL     1      -0.802  12.042  18.528  0.00  0.00    +0.000 OA
BRANCH  12  14
ATOM     13  C   UNL     1      -2.050  10.346  17.395  0.00  0.00    +0.000 C 
ATOM     14  C   UNL     1      -2.100  11.741  17.996  0.00  0.00    +0.000 C 
ENDBRANCH  12  14
ENDBRANCH   2  12
ENDBRANCH   1   8
BRANCH   1  15
ATOM     15  O   UNL     1       5.314   6.864  17.785  0.00  0.00    +0.000 OA
BRANCH  15  16
ATOM     16  C   UNL     1       6.034   6.536  16.670  0.00  0.00    +0.000 C 
ATOM     17  O   UNL     1       7.187   6.899  16.481  0.00  0.00    +0.000 OA
BRANCH  16  18
ATOM     18  C   UNL     1       5.168   5.729  15.704  0.00  0.00    +0.000 C 
BRANCH  18  19
ATOM     19  S   UNL     1       5.317   3.935  16.057  0.00  0.00    +0.000 S 
BRANCH  19  20
ATOM     20  C   UNL     1       4.323   3.713  17.522  0.00  0.00    +0.000 A 
ATOM     21  C   UNL     1       2.930   3.590  17.478  0.00  0.00    +0.000 A 
ATOM     22  C   UNL     1       2.209   3.255  18.635  0.00  0.00    +0.000 A 
ATOM     23  C   UNL     1       2.888   3.039  19.842  0.00  0.00    +0.000 A 
ATOM     24  C   UNL     1       4.279   3.168  19.899  0.00  0.00    +0.000 A 
ATOM     25  C   UNL     1       4.988   3.500  18.739  0.00  0.00    +0.000 A 
BRANCH  23  26
ATOM     26  N   UNL     1       2.144   2.643  21.045  0.00  0.00    +0.000 N 
ATOM     27  O   UNL     1       0.904   2.692  20.995  0.00  0.00    +0.000 OA
ATOM     28  O   UNL     1       2.793   2.283  22.036  0.00  0.00    +0.000 OA
ENDBRANCH  23  26
ENDBRANCH  19  20
ENDBRANCH  18  19
ENDBRANCH  16  18
ENDBRANCH  15  16
ENDBRANCH   1  15
TORSDOF 9
ENDMDL
MODEL 4
REMARK VINA RESULT:      -6.7      0.865      1.066
REMARK  Name = 
REMARK  10 active torsions:
REMARK  status: ('A' for Active; 'I' for Inactive)
REMARK    1  A    between atoms: C_1  and  C_2
REMARK    2  A    between atoms: C_2  and  O_3
REMARK    3  A    between atoms: O_3  and  C_4
REMARK    4  A    between atoms: C_10  and  C_12
REMARK    5  A    between atoms: C_12  and  O_13
REMARK    6  A    between atoms: O_13  and  C_14
REMARK    7  A    between atoms: C_14  and  C_16
REMARK    8  A    between atoms: C_16  and  S_17
REMARK    9  A    between atoms: S_17  and  C_18
REMARK   10  A    between atoms: C_21  and  N_22
REMARK                            x       y       z     vdW  Elec       q    Type
REMARK                         _______ _______ _______ _____ _____    ______ ____
ROOT
ATOM      1  C   UNL     1       5.109   4.383  19.895  0.00  0.00    +0.000 C 
ENDROOT
BRANCH   1   8
ATOM      2  C   UNL     1       6.704   4.670  13.664  0.00  0.00    +0.000 C 
ATOM      3  O   UNL     1       7.568   5.306  13.072  0.00  0.00    +0.000 OA
ATOM      4  N   UNL     1       6.706   4.452  15.025  0.00  0.00    +0.000 N 
ATOM      5  C   UNL     1       7.753   5.049  15.853  0.00  0.00    +0.000 C 
ATOM      6  C   UNL     1       7.145   5.902  16.977  0.00  0.00    +0.000 C 
ATOM      7  N   UNL     1       6.143   5.141  17.739  0.00  0.00    +0.000 N 
ATOM      8  C   UNL     1       6.164   5.198  19.129  0.00  0.00    +0.000 C 
ATOM      9  O   UNL     1       6.994   5.877  19.740  0.00  0.00    +0.000 OA
ATOM     10  C   UNL     1       5.086   4.535  16.912  0.00  0.00    +0.000 C 
ATOM     11  C   UNL     1       5.673   3.708  15.751  0.00  0.00    +0.000 C 
BRANCH   2  12
ATOM     12  O   UNL     1       5.587   4.177  13.066  0.00  0.00    +0.000 OA
BRANCH  12  14
ATOM     13  C   UNL     1       4.541   2.940  11.308  0.00  0.00    +0.000 C 
ATOM     14  C   UNL     1       5.820   3.139  12.103  0.00  0.00    +0.000 C 
ENDBRANCH  12  14
ENDBRANCH   2  12
ENDBRANCH   1   8
BRANCH   1  15
ATOM     15  O   UNL     1       5.078   2.992  19.536  0.00  0.00    +0.000 OA
BRANCH  15  16
ATOM     16  C   UNL     1       4.076   2.280  20.136  0.00  0.00    +0.000 C 
ATOM     17  O   UNL     1       3.947   2.189  21.350  0.00  0.00    +0.000 OA
BRANCH  16  18
ATOM     18  C   UNL     1       3.217   1.587  19.080  0.00  0.00    +0.000 C 
BRANCH  18  19
ATOM     19  S   UNL     1       1.456   2.055  19.281  0.00  0.00    +0.000 S 
BRANCH  19  20
ATOM     20  C   UNL     1       1.492   3.840  19.276  0.00  0.00    +0.000 A 
ATOM     21  C   UNL     1       1.409   4.600  20.447  0.00  0.00    +0.000 A 
ATOM     22  C   UNL     1       1.604   5.990  20.409  0.00  0.00    +0.000 A 
ATOM     23  C   UNL     1       1.888   6.620  19.190  0.00  0.00    +0.000 A 
ATOM     24  C   UNL     1       1.965   5.871  18.011  0.00  0.00    +0.000 A 
ATOM     25  C   UNL     1       1.771   4.486  18.063  0.00  0.00    +0.000 A 
BRANCH  23  26
ATOM     26  N   UNL     1       2.140   8.066  19.149  0.00  0.00    +0.000 N 
ATOM     27  O   UNL     1       2.850   8.500  18.227  0.00  0.00    +0.000 OA
ATOM     28  O   UNL     1       1.629   8.769  20.032  0.00  0.00    +0.000 OA
ENDBRANCH  23  26
ENDBRANCH  19  20
ENDBRANCH  18  19
ENDBRANCH  16  18
ENDBRANCH  15  16
ENDBRANCH   1  15
TORSDOF 9
ENDMDL
MODEL 5
REMARK VINA RESULT:      -6.7      3.562      7.834
REMARK  Name = 
REMARK  10 active torsions:
REMARK  status: ('A' for Active; 'I' for Inactive)
REMARK    1  A    between atoms: C_1  and  C_2
REMARK    2  A    between atoms: C_2  and  O_3
REMARK    3  A    between atoms: O_3  and  C_4
REMARK    4  A    between atoms: C_10  and  C_12
REMARK    5  A    between atoms: C_12  and  O_13
REMARK    6  A    between atoms: O_13  and  C_14
REMARK    7  A    between atoms: C_14  and  C_16
REMARK    8  A    between atoms: C_16  and  S_17
REMARK    9  A    between atoms: S_17  and  C_18
REMARK   10  A    between atoms: C_21  and  N_22
REMARK                            x       y       z     vdW  Elec       q    Type
REMARK                         _______ _______ _______ _____ _____    ______ ____
ROOT
ATOM      1  C   UNL     1       3.398   7.386  17.625  0.00  0.00    +0.000 C 
ENDROOT
BRANCH   1   8
ATOM      2  C   UNL     1      -0.542  11.571  20.527  0.00  0.00    +0.000 C 
ATOM      3  O   UNL     1      -1.103  11.542  21.616  0.00  0.00    +0.000 OA
ATOM      4  N   UNL     1       0.529  10.771  20.193  0.00  0.00    +0.000 N 
ATOM      5  C   UNL     1       1.016   9.776  21.146  0.00  0.00    +0.000 C 
ATOM      6  C   UNL     1       1.026   8.373  20.520  0.00  0.00    +0.000 C 
ATOM      7  N   UNL     1       1.744   8.370  19.235  0.00  0.00    +0.000 N 
ATOM      8  C   UNL     1       2.658   7.354  18.973  0.00  0.00    +0.000 C 
ATOM      9  O   UNL     1       2.876   6.450  19.784  0.00  0.00    +0.000 OA
ATOM     10  C   UNL     1       1.261   9.371  18.270  0.00  0.00    +0.000 C 
ATOM     11  C   UNL     1       1.202  10.781  18.890  0.00  0.00    +0.000 C 
BRANCH   2  12
ATOM     12  O   UNL     1      -0.963  12.331  19.482  0.00  0.00    +0.000 OA
BRANCH  12  14
ATOM     13  C   UNL     1      -2.397  11.037  18.072  0.00  0.00    +0.000 C 
ATOM     14  C   UNL     1      -2.337  12.146  19.108  0.00  0.00    +0.000 C 
ENDBRANCH  12  14
ENDBRANCH   2  12
ENDBRANCH   1   8
BRANCH   1  15
ATOM     15  O   UNL     1       4.829   7.406  17.750  0.00  0.00    +0.000 OA
BRANCH  15  16
ATOM     16  C   UNL     1       5.492   6.889  16.671  0.00  0.00    +0.000 C 
ATOM     17  O   UNL     1       5.048   6.914  15.532  0.00  0.00    +0.000 OA
BRANCH  16  18
ATOM     18  C   UNL     1       6.800   6.239  17.120  0.00  0.00    +0.000 C 
BRANCH  18  19
ATOM     19  S   UNL     1       6.705   4.417  16.933  0.00  0.00    +0.000 S 
BRANCH  19  20
ATOM     20  C   UNL     1       5.117   4.006  17.636  0.00  0.00    +0.000 A 
ATOM     21  C   UNL     1       3.989   3.743  16.851  0.00  0.00    +0.000 A 
ATOM     22  C   UNL     1       2.807   3.267  17.440  0.00  0.00    +0.000 A 
ATOM     23  C   UNL     1       2.757   3.050  18.824  0.00  0.00    +0.000 A 
ATOM     24  C   UNL     1       3.876   3.317  19.619  0.00  0.00    +0.000 A 
ATOM     25  C   UNL     1       5.049   3.789  19.019  0.00  0.00    +0.000 A 
BRANCH  23  26
ATOM     26  N   UNL     1       1.540   2.508  19.441  0.00  0.00    +0.000 N 
ATOM     27  O   UNL     1       1.553   2.320  20.668  0.00  0.00    +0.000 OA
ATOM     28  O   UNL     1       0.572   2.272  18.705  0.00  0.00    +0.000 OA
ENDBRANCH  23  26
ENDBRANCH  19  20
ENDBRANCH  18  19
ENDBRANCH  16  18
ENDBRANCH  15  16
ENDBRANCH   1  15
TORSDOF 9
ENDMDL
MODEL 6
REMARK VINA RESULT:      -6.6      2.734      3.343
REMARK  Name = 
REMARK  10 active torsions:
REMARK  status: ('A' for Active; 'I' for Inactive)
REMARK    1  A    between atoms: C_1  and  C_2
REMARK    2  A    between atoms: C_2  and  O_3
REMARK    3  A    between atoms: O_3  and  C_4
REMARK    4  A    between atoms: C_10  and  C_12
REMARK    5  A    between atoms: C_12  and  O_13
REMARK    6  A    between atoms: O_13  and  C_14
REMARK    7  A    between atoms: C_14  and  C_16
REMARK    8  A    between atoms: C_16  and  S_17
REMARK    9  A    between atoms: S_17  and  C_18
REMARK   10  A    between atoms: C_21  and  N_22
REMARK                            x       y       z     vdW  Elec       q    Type
REMARK                         _______ _______ _______ _____ _____    ______ ____
ROOT
ATOM      1  C   UNL     1       4.134   3.996  19.552  0.00  0.00    +0.000 C 
ENDROOT
BRANCH   1   8
ATOM      2  C   UNL     1       7.025   4.762  13.850  0.00  0.00    +0.000 C 
ATOM      3  O   UNL     1       8.069   5.320  13.533  0.00  0.00    +0.000 OA
ATOM      4  N   UNL     1       6.713   4.388  15.139  0.00  0.00    +0.000 N 
ATOM      5  C   UNL     1       7.631   4.712  16.230  0.00  0.00    +0.000 C 
ATOM      6  C   UNL     1       6.917   5.511  17.330  0.00  0.00    +0.000 C 
ATOM      7  N   UNL     1       5.688   4.832  17.767  0.00  0.00    +0.000 N 
ATOM      8  C   UNL     1       5.423   4.720  19.129  0.00  0.00    +0.000 C 
ATOM      9  O   UNL     1       6.187   5.185  19.980  0.00  0.00    +0.000 OA
ATOM     10  C   UNL     1       4.758   4.500  16.674  0.00  0.00    +0.000 C 
ATOM     11  C   UNL     1       5.464   3.734  15.538  0.00  0.00    +0.000 C 
BRANCH   2  12
ATOM     12  O   UNL     1       6.005   4.524  12.984  0.00  0.00    +0.000 OA
BRANCH  12  14
ATOM     13  C   UNL     1       4.798   2.996  11.597  0.00  0.00    +0.000 C 
ATOM     14  C   UNL     1       6.159   3.354  12.166  0.00  0.00    +0.000 C 
ENDBRANCH  12  14
ENDBRANCH   2  12
ENDBRANCH   1   8
BRANCH   1  15
ATOM     15  O   UNL     1       3.233   4.816  20.315  0.00  0.00    +0.000 OA
BRANCH  15  16
ATOM     16  C   UNL     1       1.951   4.831  19.839  0.00  0.00    +0.000 C 
ATOM     17  O   UNL     1       1.020   4.260  20.391  0.00  0.00    +0.000 OA
BRANCH  16  18
ATOM     18  C   UNL     1       1.890   5.593  18.516  0.00  0.00    +0.000 C 
BRANCH  18  19
ATOM     19  S   UNL     1       2.770   7.196  18.661  0.00  0.00    +0.000 S 
BRANCH  19  20
ATOM     20  C   UNL     1       1.693   8.174  19.696  0.00  0.00    +0.000 A 
ATOM     21  C   UNL     1       1.527   7.924  21.062  0.00  0.00    +0.000 A 
ATOM     22  C   UNL     1       0.798   8.815  21.865  0.00  0.00    +0.000 A 
ATOM     23  C   UNL     1       0.236   9.965  21.295  0.00  0.00    +0.000 A 
ATOM     24  C   UNL     1       0.387  10.220  19.928  0.00  0.00    +0.000 A 
ATOM     25  C   UNL     1       1.118   9.325  19.139  0.00  0.00    +0.000 A 
BRANCH  23  26
ATOM     26  N   UNL     1      -0.488  10.926  22.138  0.00  0.00    +0.000 N 
ATOM     27  O   UNL     1      -0.905  11.964  21.597  0.00  0.00    +0.000 OA
ATOM     28  O   UNL     1      -0.644  10.647  23.334  0.00  0.00    +0.000 OA
ENDBRANCH  23  26
ENDBRANCH  19  20
ENDBRANCH  18  19
ENDBRANCH  16  18
ENDBRANCH  15  16
ENDBRANCH   1  15
TORSDOF 9
ENDMDL
MODEL 7
REMARK VINA RESULT:      -6.6      2.660      3.304
REMARK  Name = 
REMARK  10 active torsions:
REMARK  status: ('A' for Active; 'I' for Inactive)
REMARK    1  A    between atoms: C_1  and  C_2
REMARK    2  A    between atoms: C_2  and  O_3
REMARK    3  A    between atoms: O_3  and  C_4
REMARK    4  A    between atoms: C_10  and  C_12
REMARK    5  A    between atoms: C_12  and  O_13
REMARK    6  A    between atoms: O_13  and  C_14
REMARK    7  A    between atoms: C_14  and  C_16
REMARK    8  A    between atoms: C_16  and  S_17
REMARK    9  A    between atoms: S_17  and  C_18
REMARK   10  A    between atoms: C_21  and  N_22
REMARK                            x       y       z     vdW  Elec       q    Type
REMARK                         _______ _______ _______ _____ _____    ______ ____
ROOT
ATOM      1  C   UNL     1       3.800   2.955  19.403  0.00  0.00    +0.000 C 
ENDROOT
BRANCH   1   8
ATOM      2  C   UNL     1       7.075   4.790  14.172  0.00  0.00    +0.000 C 
ATOM      3  O   UNL     1       8.057   5.510  14.036  0.00  0.00    +0.000 OA
ATOM      4  N   UNL     1       6.700   4.220  15.369  0.00  0.00    +0.000 N 
ATOM      5  C   UNL     1       7.459   4.517  16.583  0.00  0.00    +0.000 C 
ATOM      6  C   UNL     1       6.543   5.075  17.682  0.00  0.00    +0.000 C 
ATOM      7  N   UNL     1       5.383   4.197  17.903  0.00  0.00    +0.000 N 
ATOM      8  C   UNL     1       5.011   3.883  19.207  0.00  0.00    +0.000 C 
ATOM      9  O   UNL     1       5.621   4.328  20.183  0.00  0.00    +0.000 OA
ATOM     10  C   UNL     1       4.614   3.892  16.685  0.00  0.00    +0.000 C 
ATOM     11  C   UNL     1       5.521   3.370  15.554  0.00  0.00    +0.000 C 
BRANCH   2  12
ATOM     12  O   UNL     1       6.183   4.536  13.179  0.00  0.00    +0.000 OA
BRANCH  12  14
ATOM     13  C   UNL     1       5.627   2.683  11.775  0.00  0.00    +0.000 C 
ATOM     14  C   UNL     1       6.681   3.726  12.104  0.00  0.00    +0.000 C 
ENDBRANCH  12  14
ENDBRANCH   2  12
ENDBRANCH   1   8
BRANCH   1  15
ATOM     15  O   UNL     1       2.569   3.495  18.895  0.00  0.00    +0.000 OA
BRANCH  15  16
ATOM     16  C   UNL     1       1.773   4.068  19.849  0.00  0.00    +0.000 C 
ATOM     17  O   UNL     1       0.679   3.625  20.169  0.00  0.00    +0.000 OA
BRANCH  16  18
ATOM     18  C   UNL     1       2.424   5.345  20.378  0.00  0.00    +0.000 C 
BRANCH  18  19
ATOM     19  S   UNL     1       2.467   6.630  19.071  0.00  0.00    +0.000 S 
BRANCH  19  20
ATOM     20  C   UNL     1       1.698   8.042  19.844  0.00  0.00    +0.000 A 
ATOM     21  C   UNL     1       1.380   9.209  19.141  0.00  0.00    +0.000 A 
ATOM     22  C   UNL     1       0.632  10.227  19.753  0.00  0.00    +0.000 A 
ATOM     23  C   UNL     1       0.198  10.073  21.076  0.00  0.00    +0.000 A 
ATOM     24  C   UNL     1       0.518   8.915  21.792  0.00  0.00    +0.000 A 
ATOM     25  C   UNL     1       1.262   7.906  21.170  0.00  0.00    +0.000 A 
BRANCH  23  26
ATOM     26  N   UNL     1      -0.625  11.114  21.707  0.00  0.00    +0.000 N 
ATOM     27  O   UNL     1      -0.440  11.338  22.915  0.00  0.00    +0.000 OA
ATOM     28  O   UNL     1      -1.451  11.708  21.002  0.00  0.00    +0.000 OA
ENDBRANCH  23  26
ENDBRANCH  19  20
ENDBRANCH  18  19
ENDBRANCH  16  18
ENDBRANCH  15  16
ENDBRANCH   1  15
TORSDOF 9
ENDMDL
MODEL 8
REMARK VINA RESULT:      -6.6      3.210      7.527
REMARK  Name = 
REMARK  10 active torsions:
REMARK  status: ('A' for Active; 'I' for Inactive)
REMARK    1  A    between atoms: C_1  and  C_2
REMARK    2  A    between atoms: C_2  and  O_3
REMARK    3  A    between atoms: O_3  and  C_4
REMARK    4  A    between atoms: C_10  and  C_12
REMARK    5  A    between atoms: C_12  and  O_13
REMARK    6  A    between atoms: O_13  and  C_14
REMARK    7  A    between atoms: C_14  and  C_16
REMARK    8  A    between atoms: C_16  and  S_17
REMARK    9  A    between atoms: S_17  and  C_18
REMARK   10  A    between atoms: C_21  and  N_22
REMARK                            x       y       z     vdW  Elec       q    Type
REMARK                         _______ _______ _______ _____ _____    ______ ____
ROOT
ATOM      1  C   UNL     1       1.229   5.081  20.645  0.00  0.00    +0.000 C 
ENDROOT
BRANCH   1   8
ATOM      2  C   UNL     1       0.625  11.480  20.273  0.00  0.00    +0.000 C 
ATOM      3  O   UNL     1       1.050  12.294  19.462  0.00  0.00    +0.000 OA
ATOM      4  N   UNL     1       0.548  10.125  20.035  0.00  0.00    +0.000 N 
ATOM      5  C   UNL     1       1.050   9.581  18.774  0.00  0.00    +0.000 C 
ATOM      6  C   UNL     1       2.099   8.487  19.027  0.00  0.00    +0.000 C 
ATOM      7  N   UNL     1       1.589   7.467  19.956  0.00  0.00    +0.000 N 
ATOM      8  C   UNL     1       1.782   6.122  19.657  0.00  0.00    +0.000 C 
ATOM      9  O   UNL     1       2.378   5.761  18.638  0.00  0.00    +0.000 OA
ATOM     10  C   UNL     1       1.080   8.007  21.228  0.00  0.00    +0.000 C 
ATOM     11  C   UNL     1       0.057   9.137  20.999  0.00  0.00    +0.000 C 
BRANCH   2  12
ATOM     12  O   UNL     1       0.259  11.802  21.542  0.00  0.00    +0.000 OA
BRANCH  12  14
ATOM     13  C   UNL     1      -0.869  13.197  23.122  0.00  0.00    +0.000 C 
ATOM     14  C   UNL     1      -0.698  12.866  21.650  0.00  0.00    +0.000 C 
ENDBRANCH  12  14
ENDBRANCH   2  12
ENDBRANCH   1   8
BRANCH   1  15
ATOM     15  O   UNL     1       1.515   3.722  20.276  0.00  0.00    +0.000 OA
BRANCH  15  16
ATOM     16  C   UNL     1       2.203   3.017  21.225  0.00  0.00    +0.000 C 
ATOM     17  O   UNL     1       1.797   2.850  22.366  0.00  0.00    +0.000 OA
BRANCH  16  18
ATOM     18  C   UNL     1       3.544   2.550  20.663  0.00  0.00    +0.000 C 
BRANCH  18  19
ATOM     19  S   UNL     1       3.383   2.138  18.883  0.00  0.00    +0.000 S 
BRANCH  19  20
ATOM     20  C   UNL     1       4.449   3.323  18.080  0.00  0.00    +0.000 A 
ATOM     21  C   UNL     1       5.427   4.047  18.770  0.00  0.00    +0.000 A 
ATOM     22  C   UNL     1       6.347   4.845  18.070  0.00  0.00    +0.000 A 
ATOM     23  C   UNL     1       6.287   4.914  16.672  0.00  0.00    +0.000 A 
ATOM     24  C   UNL     1       5.308   4.201  15.973  0.00  0.00    +0.000 A 
ATOM     25  C   UNL     1       4.399   3.407  16.681  0.00  0.00    +0.000 A 
BRANCH  23  26
ATOM     26  N   UNL     1       7.274   5.710  15.931  0.00  0.00    +0.000 N 
ATOM     27  O   UNL     1       7.629   5.291  14.817  0.00  0.00    +0.000 OA
ATOM     28  O   UNL     1       7.694   6.750  16.456  0.00  0.00    +0.000 OA
ENDBRANCH  23  26
ENDBRANCH  19  20
ENDBRANCH  18  19
ENDBRANCH  16  18
ENDBRANCH  15  16
ENDBRANCH   1  15
TORSDOF 9
ENDMDL
MODEL 9
REMARK VINA RESULT:      -6.5      3.845      8.009
REMARK  Name = 
REMARK  10 active torsions:
REMARK  status: ('A' for Active; 'I' for Inactive)
REMARK    1  A    between atoms: C_1  and  C_2
REMARK    2  A    between atoms: C_2  and  O_3
REMARK    3  A    between atoms: O_3  and  C_4
REMARK    4  A    between atoms: C_10  and  C_12
REMARK    5  A    between atoms: C_12  and  O_13
REMARK    6  A    between atoms: O_13  and  C_14
REMARK    7  A    between atoms: C_14  and  C_16
REMARK    8  A    between atoms: C_16  and  S_17
REMARK    9  A    between atoms: S_17  and  C_18
REMARK   10  A    between atoms: C_21  and  N_22
REMARK                            x       y       z     vdW  Elec       q    Type
REMARK                         _______ _______ _______ _____ _____    ______ ____
ROOT
ATOM      1  C   UNL     1       3.290   7.492  17.574  0.00  0.00    +0.000 C 
ENDROOT
BRANCH   1   8
ATOM      2  C   UNL     1      -0.227  12.281  20.053  0.00  0.00    +0.000 C 
ATOM      3  O   UNL     1      -0.877  12.365  21.089  0.00  0.00    +0.000 OA
ATOM      4  N   UNL     1       0.740  11.327  19.827  0.00  0.00    +0.000 N 
ATOM      5  C   UNL     1       0.993  10.298  20.834  0.00  0.00    +0.000 C 
ATOM      6  C   UNL     1       0.851   8.892  20.233  0.00  0.00    +0.000 C 
ATOM      7  N   UNL     1       1.667   8.750  19.017  0.00  0.00    +0.000 N 
ATOM      8  C   UNL     1       2.442   7.605  18.852  0.00  0.00    +0.000 C 
ATOM      9  O   UNL     1       2.456   6.702  19.692  0.00  0.00    +0.000 OA
ATOM     10  C   UNL     1       1.419   9.783  17.997  0.00  0.00    +0.000 C 
ATOM     11  C   UNL     1       1.515  11.203  18.589  0.00  0.00    +0.000 C 
BRANCH   2  12
ATOM     12  O   UNL     1      -0.442  13.065  18.963  0.00  0.00    +0.000 OA
BRANCH  12  14
ATOM     13  C   UNL     1       1.091  14.842  19.418  0.00  0.00    +0.000 C 
ATOM     14  C   UNL     1      -0.368  14.478  19.204  0.00  0.00    +0.000 C 
ENDBRANCH  12  14
ENDBRANCH   2  12
ENDBRANCH   1   8
BRANCH   1  15
ATOM     15  O   UNL     1       4.684   7.246  17.823  0.00  0.00    +0.000 OA
BRANCH  15  16
ATOM     16  C   UNL     1       5.382   6.820  16.727  0.00  0.00    +0.000 C 
ATOM     17  O   UNL     1       5.017   7.020  15.576  0.00  0.00    +0.000 OA
BRANCH  16  18
ATOM     18  C   UNL     1       6.610   6.023  17.162  0.00  0.00    +0.000 C 
BRANCH  18  19
ATOM     19  S   UNL     1       6.329   4.228  16.911  0.00  0.00    +0.000 S 
BRANCH  19  20
ATOM     20  C   UNL     1       4.744   3.940  17.679  0.00  0.00    +0.000 A 
ATOM     21  C   UNL     1       3.560   3.817  16.943  0.00  0.00    +0.000 A 
ATOM     22  C   UNL     1       2.367   3.431  17.574  0.00  0.00    +0.000 A 
ATOM     23  C   UNL     1       2.362   3.164  18.950  0.00  0.00    +0.000 A 
ATOM     24  C   UNL     1       3.538   3.293  19.697  0.00  0.00    +0.000 A 
ATOM     25  C   UNL     1       4.721   3.676  19.055  0.00  0.00    +0.000 A 
BRANCH  23  26
ATOM     26  N   UNL     1       1.128   2.715  19.608  0.00  0.00    +0.000 N 
ATOM     27  O   UNL     1       0.255   2.192  18.896  0.00  0.00    +0.000 OA
ATOM     28  O   UNL     1       1.030   2.879  20.831  0.00  0.00    +0.000 OA
ENDBRANCH  23  26
ENDBRANCH  19  20
ENDBRANCH  18  19
ENDBRANCH  16  18
ENDBRANCH  15  16
ENDBRANCH   1  15
TORSDOF 9
ENDMDL
