MODEL 1
REMARK VINA RESULT:      -7.6      0.000      0.000
REMARK  Name = 
REMARK  1 active torsions:
REMARK  status: ('A' for Active; 'I' for Inactive)
REMARK    1  A    between atoms: N_8  and  C_9
REMARK                            x       y       z     vdW  Elec       q    Type
REMARK                         _______ _______ _______ _____ _____    ______ ____
ROOT
ATOM      1  O   UNL     1       1.502   3.894  21.312  0.00  0.00    +0.000 OA
ATOM      2  C   UNL     1       2.040   4.254  20.278  0.00  0.00    +0.000 C 
ATOM      3  C   UNL     1       2.088   5.685  19.882  0.00  0.00    +0.000 A 
ATOM      4  C   UNL     1       1.645   6.695  20.746  0.00  0.00    +0.000 A 
ATOM      5  C   UNL     1       1.563   8.019  20.294  0.00  0.00    +0.000 A 
ATOM      6  N   UNL     1       1.077   9.009  21.156  0.00  0.00    +0.000 NA
ATOM      7  N   UNL     1       0.851  10.161  20.721  0.00  0.00    +0.000 NA
ATOM      8  N   UNL     1       1.187  10.527  19.448  0.00  0.00    +0.000 N 
ATOM      9  C   UNL     1       1.748   9.666  18.524  0.00  0.00    +0.000 A 
ATOM     10  O   UNL     1       2.047   9.964  17.371  0.00  0.00    +0.000 OA
ATOM     11  C   UNL     1       1.935   8.294  18.984  0.00  0.00    +0.000 A 
ATOM     12  C   UNL     1       2.397   7.302  18.116  0.00  0.00    +0.000 A 
ATOM     13  C   UNL     1       2.485   5.995  18.575  0.00  0.00    +0.000 A 
ATOM     14  O   UNL     1       2.914   5.051  17.674  0.00  0.00    +0.000 OA
ATOM     15  C   UNL     1       3.486   3.938  18.343  0.00  0.00    +0.000 C 
ATOM     16  C   UNL     1       3.719   2.754  17.413  0.00  0.00    +0.000 C 
ATOM     17  C   UNL     1       3.630   1.573  18.378  0.00  0.00    +0.000 C 
ATOM     18  C   UNL     1       2.480   1.982  19.293  0.00  0.00    +0.000 C 
ATOM     19  N   UNL     1       2.588   3.426  19.340  0.00  0.00    +0.000 N 
ENDROOT
BRANCH   8  20
ATOM     20  C   UNL     1       0.724  11.824  19.021  0.00  0.00    +0.000 C 
ATOM     21  C   UNL     1       0.392  12.942  19.975  0.00  0.00    +0.000 C 
ATOM     22  C   UNL     1       1.601  13.047  19.094  0.00  0.00    +0.000 C 
ENDBRANCH   8  20
TORSDOF 1
ENDMDL
MODEL 2
REMARK VINA RESULT:      -7.3      1.960      2.446
REMARK  Name = 
REMARK  1 active torsions:
REMARK  status: ('A' for Active; 'I' for Inactive)
REMARK    1  A    between atoms: N_8  and  C_9
REMARK                            x       y       z     vdW  Elec       q    Type
REMARK                         _______ _______ _______ _____ _____    ______ ____
ROOT
ATOM      1  O   UNL     1       3.322   4.004  19.191  0.00  0.00    +0.000 OA
ATOM      2  C   UNL     1       3.581   4.977  18.501  0.00  0.00    +0.000 C 
ATOM      3  C   UNL     1       3.033   6.322  18.814  0.00  0.00    +0.000 A 
ATOM      4  C   UNL     1       2.313   6.558  19.992  0.00  0.00    +0.000 A 
ATOM      5  C   UNL     1       1.682   7.794  20.191  0.00  0.00    +0.000 A 
ATOM      6  N   UNL     1       0.931   8.000  21.355  0.00  0.00    +0.000 NA
ATOM      7  N   UNL     1       0.237   9.035  21.475  0.00  0.00    +0.000 NA
ATOM      8  N   UNL     1       0.286  10.044  20.555  0.00  0.00    +0.000 N 
ATOM      9  C   UNL     1       1.051   9.999  19.405  0.00  0.00    +0.000 A 
ATOM     10  O   UNL     1       1.103  10.885  18.556  0.00  0.00    +0.000 OA
ATOM     11  C   UNL     1       1.796   8.762  19.201  0.00  0.00    +0.000 A 
ATOM     12  C   UNL     1       2.527   8.548  18.030  0.00  0.00    +0.000 A 
ATOM     13  C   UNL     1       3.156   7.325  17.845  0.00  0.00    +0.000 A 
ATOM     14  O   UNL     1       3.835   7.152  16.662  0.00  0.00    +0.000 OA
ATOM     15  C   UNL     1       4.853   6.174  16.803  0.00  0.00    +0.000 C 
ATOM     16  C   UNL     1       5.442   5.747  15.465  0.00  0.00    +0.000 C 
ATOM     17  C   UNL     1       5.907   4.323  15.765  0.00  0.00    +0.000 C 
ATOM     18  C   UNL     1       4.777   3.785  16.637  0.00  0.00    +0.000 C 
ATOM     19  N   UNL     1       4.319   4.958  17.352  0.00  0.00    +0.000 N 
ENDROOT
BRANCH   8  20
ATOM     20  C   UNL     1      -0.681  11.100  20.725  0.00  0.00    +0.000 C 
ATOM     21  C   UNL     1      -1.262  11.488  22.060  0.00  0.00    +0.000 C 
ATOM     22  C   UNL     1      -0.320  12.420  21.356  0.00  0.00    +0.000 C 
ENDBRANCH   8  20
TORSDOF 1
ENDMDL
MODEL 3
REMARK VINA RESULT:      -7.3      2.513      7.360
REMARK  Name = 
REMARK  1 active torsions:
REMARK  status: ('A' for Active; 'I' for Inactive)
REMARK    1  A    between atoms: N_8  and  C_9
REMARK                            x       y       z     vdW  Elec       q    Type
REMARK                         _______ _______ _______ _____ _____    ______ ____
ROOT
ATOM      1  O   UNL     1      -0.201  11.686  18.725  0.00  0.00    +0.000 OA
ATOM      2  C   UNL     1      -0.100  11.035  19.752  0.00  0.00    +0.000 C 
ATOM      3  C   UNL     1       0.728   9.803  19.816  0.00  0.00    +0.000 A 
ATOM      4  C   UNL     1       1.540   9.416  18.743  0.00  0.00    +0.000 A 
ATOM      5  C   UNL     1       2.195   8.177  18.771  0.00  0.00    +0.000 A 
ATOM      6  N   UNL     1       2.969   7.786  17.672  0.00  0.00    +0.000 NA
ATOM      7  N   UNL     1       3.430   6.624  17.614  0.00  0.00    +0.000 NA
ATOM      8  N   UNL     1       3.310   5.750  18.659  0.00  0.00    +0.000 N 
ATOM      9  C   UNL     1       2.641   6.043  19.832  0.00  0.00    +0.000 A 
ATOM     10  O   UNL     1       2.507   5.273  20.780  0.00  0.00    +0.000 OA
ATOM     11  C   UNL     1       2.018   7.361  19.881  0.00  0.00    +0.000 A 
ATOM     12  C   UNL     1       1.226   7.742  20.968  0.00  0.00    +0.000 A 
ATOM     13  C   UNL     1       0.590   8.974  20.936  0.00  0.00    +0.000 A 
ATOM     14  O   UNL     1      -0.203   9.288  22.014  0.00  0.00    +0.000 OA
ATOM     15  C   UNL     1      -0.332  10.695  22.154  0.00  0.00    +0.000 C 
ATOM     16  C   UNL     1      -1.415  11.085  23.150  0.00  0.00    +0.000 C 
ATOM     17  C   UNL     1      -1.844  12.456  22.628  0.00  0.00    +0.000 C 
ATOM     18  C   UNL     1      -1.829  12.250  21.116  0.00  0.00    +0.000 C 
ATOM     19  N   UNL     1      -0.762  11.291  20.919  0.00  0.00    +0.000 N 
ENDROOT
BRANCH   8  20
ATOM     20  C   UNL     1       3.736   4.397  18.402  0.00  0.00    +0.000 C 
ATOM     21  C   UNL     1       4.646   4.015  17.264  0.00  0.00    +0.000 C 
ATOM     22  C   UNL     1       5.145   3.938  18.676  0.00  0.00    +0.000 C 
ENDBRANCH   8  20
TORSDOF 1
ENDMDL
MODEL 4
REMARK VINA RESULT:      -7.2      1.575      2.651
REMARK  Name = 
REMARK  1 active torsions:
REMARK  status: ('A' for Active; 'I' for Inactive)
REMARK    1  A    between atoms: N_8  and  C_9
REMARK                            x       y       z     vdW  Elec       q    Type
REMARK                         _______ _______ _______ _____ _____    ______ ____
ROOT
ATOM      1  O   UNL     1       4.164   5.777  17.100  0.00  0.00    +0.000 OA
ATOM      2  C   UNL     1       3.520   5.585  18.118  0.00  0.00    +0.000 C 
ATOM      3  C   UNL     1       2.684   6.653  18.725  0.00  0.00    +0.000 A 
ATOM      4  C   UNL     1       2.489   7.881  18.078  0.00  0.00    +0.000 A 
ATOM      5  C   UNL     1       1.821   8.922  18.738  0.00  0.00    +0.000 A 
ATOM      6  N   UNL     1       1.672  10.156  18.093  0.00  0.00    +0.000 NA
ATOM      7  N   UNL     1       1.219  11.139  18.723  0.00  0.00    +0.000 NA
ATOM      8  N   UNL     1       0.741  11.017  19.998  0.00  0.00    +0.000 N 
ATOM      9  C   UNL     1       0.756   9.836  20.715  0.00  0.00    +0.000 A 
ATOM     10  O   UNL     1       0.345   9.702  21.864  0.00  0.00    +0.000 OA
ATOM     11  C   UNL     1       1.363   8.700  20.030  0.00  0.00    +0.000 A 
ATOM     12  C   UNL     1       1.534   7.475  20.681  0.00  0.00    +0.000 A 
ATOM     13  C   UNL     1       2.187   6.447  20.018  0.00  0.00    +0.000 A 
ATOM     14  O   UNL     1       2.358   5.274  20.713  0.00  0.00    +0.000 OA
ATOM     15  C   UNL     1       2.500   4.176  19.824  0.00  0.00    +0.000 C 
ATOM     16  C   UNL     1       2.968   2.910  20.530  0.00  0.00    +0.000 C 
ATOM     17  C   UNL     1       3.696   2.174  19.406  0.00  0.00    +0.000 C 
ATOM     18  C   UNL     1       4.421   3.308  18.687  0.00  0.00    +0.000 C 
ATOM     19  N   UNL     1       3.529   4.435  18.855  0.00  0.00    +0.000 N 
ENDROOT
BRANCH   8  20
ATOM     20  C   UNL     1       0.405  12.250  20.666  0.00  0.00    +0.000 C 
ATOM     21  C   UNL     1       0.090  13.530  19.937  0.00  0.00    +0.000 C 
ATOM     22  C   UNL     1      -0.998  12.800  20.666  0.00  0.00    +0.000 C 
ENDBRANCH   8  20
TORSDOF 1
ENDMDL
MODEL 5
REMARK VINA RESULT:      -7.2      2.368      6.701
REMARK  Name = 
REMARK  1 active torsions:
REMARK  status: ('A' for Active; 'I' for Inactive)
REMARK    1  A    between atoms: N_8  and  C_9
REMARK                            x       y       z     vdW  Elec       q    Type
REMARK                         _______ _______ _______ _____ _____    ______ ____
ROOT
ATOM      1  O   UNL     1       0.690   8.636  21.935  0.00  0.00    +0.000 OA
ATOM      2  C   UNL     1       0.782   8.955  20.761  0.00  0.00    +0.000 C 
ATOM      3  C   UNL     1       1.604   8.172  19.802  0.00  0.00    +0.000 A 
ATOM      4  C   UNL     1       2.192   6.956  20.172  0.00  0.00    +0.000 A 
ATOM      5  C   UNL     1       3.082   6.313  19.299  0.00  0.00    +0.000 A 
ATOM      6  N   UNL     1       3.694   5.120  19.701  0.00  0.00    +0.000 NA
ATOM      7  N   UNL     1       4.603   4.619  19.003  0.00  0.00    +0.000 NA
ATOM      8  N   UNL     1       4.938   5.133  17.781  0.00  0.00    +0.000 N 
ATOM      9  C   UNL     1       4.351   6.258  17.234  0.00  0.00    +0.000 A 
ATOM     10  O   UNL     1       4.640   6.748  16.146  0.00  0.00    +0.000 OA
ATOM     11  C   UNL     1       3.352   6.910  18.075  0.00  0.00    +0.000 A 
ATOM     12  C   UNL     1       2.758   8.113  17.683  0.00  0.00    +0.000 A 
ATOM     13  C   UNL     1       1.872   8.737  18.549  0.00  0.00    +0.000 A 
ATOM     14  O   UNL     1       1.340   9.934  18.132  0.00  0.00    +0.000 OA
ATOM     15  C   UNL     1       0.098  10.185  18.772  0.00  0.00    +0.000 C 
ATOM     16  C   UNL     1      -0.390  11.611  18.559  0.00  0.00    +0.000 C 
ATOM     17  C   UNL     1      -1.237  11.844  19.810  0.00  0.00    +0.000 C 
ATOM     18  C   UNL     1      -0.409  11.166  20.898  0.00  0.00    +0.000 C 
ATOM     19  N   UNL     1       0.228  10.069  20.198  0.00  0.00    +0.000 N 
ENDROOT
BRANCH   8  20
ATOM     20  C   UNL     1       6.107   4.567  17.157  0.00  0.00    +0.000 C 
ATOM     21  C   UNL     1       7.166   5.393  16.473  0.00  0.00    +0.000 C 
ATOM     22  C   UNL     1       7.480   4.698  17.765  0.00  0.00    +0.000 C 
ENDBRANCH   8  20
TORSDOF 1
ENDMDL
MODEL 6
REMARK VINA RESULT:      -7.2      2.975      4.342
REMARK  Name = 
REMARK  1 active torsions:
REMARK  status: ('A' for Active; 'I' for Inactive)
REMARK    1  A    between atoms: N_8  and  C_9
REMARK                            x       y       z     vdW  Elec       q    Type
REMARK                         _______ _______ _______ _____ _____    ______ ____
ROOT
ATOM      1  O   UNL     1       2.415   8.903  17.051  0.00  0.00    +0.000 OA
ATOM      2  C   UNL     1       2.266   8.294  18.098  0.00  0.00    +0.000 C 
ATOM      3  C   UNL     1       1.388   8.808  19.181  0.00  0.00    +0.000 A 
ATOM      4  C   UNL     1       0.584   9.939  18.991  0.00  0.00    +0.000 A 
ATOM      5  C   UNL     1      -0.121  10.488  20.072  0.00  0.00    +0.000 A 
ATOM      6  N   UNL     1      -0.886  11.644  19.874  0.00  0.00    +0.000 NA
ATOM      7  N   UNL     1      -1.391  12.233  20.856  0.00  0.00    +0.000 NA
ATOM      8  N   UNL     1      -1.329  11.712  22.118  0.00  0.00    +0.000 N 
ATOM      9  C   UNL     1      -0.674  10.535  22.432  0.00  0.00    +0.000 A 
ATOM     10  O   UNL     1      -0.592  10.051  23.557  0.00  0.00    +0.000 OA
ATOM     11  C   UNL     1      -0.000   9.881  21.315  0.00  0.00    +0.000 A 
ATOM     12  C   UNL     1       0.782   8.741  21.517  0.00  0.00    +0.000 A 
ATOM     13  C   UNL     1       1.468   8.199  20.439  0.00  0.00    +0.000 A 
ATOM     14  O   UNL     1       2.249   7.098  20.695  0.00  0.00    +0.000 OA
ATOM     15  C   UNL     1       2.432   6.323  19.521  0.00  0.00    +0.000 C 
ATOM     16  C   UNL     1       3.508   5.258  19.684  0.00  0.00    +0.000 C 
ATOM     17  C   UNL     1       4.003   5.087  18.249  0.00  0.00    +0.000 C 
ATOM     18  C   UNL     1       4.012   6.522  17.731  0.00  0.00    +0.000 C 
ATOM     19  N   UNL     1       2.912   7.141  18.441  0.00  0.00    +0.000 N 
ENDROOT
BRANCH   8  20
ATOM     20  C   UNL     1      -1.803  12.565  23.178  0.00  0.00    +0.000 C 
ATOM     21  C   UNL     1      -2.728  13.734  22.953  0.00  0.00    +0.000 C 
ATOM     22  C   UNL     1      -3.227  12.514  23.668  0.00  0.00    +0.000 C 
ENDBRANCH   8  20
TORSDOF 1
ENDMDL
MODEL 7
REMARK VINA RESULT:      -7.1      2.108      7.353
REMARK  Name = 
REMARK  1 active torsions:
REMARK  status: ('A' for Active; 'I' for Inactive)
REMARK    1  A    between atoms: N_8  and  C_9
REMARK                            x       y       z     vdW  Elec       q    Type
REMARK                         _______ _______ _______ _____ _____    ______ ____
ROOT
ATOM      1  O   UNL     1       0.596  10.889  18.530  0.00  0.00    +0.000 OA
ATOM      2  C   UNL     1       0.563  10.321  19.609  0.00  0.00    +0.000 C 
ATOM      3  C   UNL     1       1.204   8.996  19.813  0.00  0.00    +0.000 A 
ATOM      4  C   UNL     1       1.995   8.410  18.816  0.00  0.00    +0.000 A 
ATOM      5  C   UNL     1       2.465   7.098  18.976  0.00  0.00    +0.000 A 
ATOM      6  N   UNL     1       3.218   6.512  17.952  0.00  0.00    +0.000 NA
ATOM      7  N   UNL     1       3.511   5.296  18.010  0.00  0.00    +0.000 NA
ATOM      8  N   UNL     1       3.227   4.540  19.113  0.00  0.00    +0.000 N 
ATOM      9  C   UNL     1       2.560   5.022  20.224  0.00  0.00    +0.000 A 
ATOM     10  O   UNL     1       2.281   4.362  21.221  0.00  0.00    +0.000 OA
ATOM     11  C   UNL     1       2.130   6.413  20.137  0.00  0.00    +0.000 A 
ATOM     12  C   UNL     1       1.359   6.991  21.148  0.00  0.00    +0.000 A 
ATOM     13  C   UNL     1       0.906   8.293  20.986  0.00  0.00    +0.000 A 
ATOM     14  O   UNL     1       0.124   8.805  21.994  0.00  0.00    +0.000 OA
ATOM     15  C   UNL     1       0.191  10.222  22.015  0.00  0.00    +0.000 C 
ATOM     16  C   UNL     1      -0.864  10.843  22.921  0.00  0.00    +0.000 C 
ATOM     17  C   UNL     1      -1.073  12.210  22.270  0.00  0.00    +0.000 C 
ATOM     18  C   UNL     1      -1.028  11.875  20.782  0.00  0.00    +0.000 C 
ATOM     19  N   UNL     1      -0.101  10.765  20.717  0.00  0.00    +0.000 N 
ENDROOT
BRANCH   8  20
ATOM     20  C   UNL     1       3.466   3.124  18.986  0.00  0.00    +0.000 C 
ATOM     21  C   UNL     1       2.367   2.111  18.795  0.00  0.00    +0.000 C 
ATOM     22  C   UNL     1       3.316   2.404  17.670  0.00  0.00    +0.000 C 
ENDBRANCH   8  20
TORSDOF 1
ENDMDL
MODEL 8
REMARK VINA RESULT:      -7.1      2.716      6.949
REMARK  Name = 
REMARK  1 active torsions:
REMARK  status: ('A' for Active; 'I' for Inactive)
REMARK    1  A    between atoms: N_8  and  C_9
REMARK                            x       y       z     vdW  Elec       q    Type
REMARK                         _______ _______ _______ _____ _____    ______ ____
ROOT
ATOM      1  O   UNL     1       0.641  10.791  18.548  0.00  0.00    +0.000 OA
ATOM      2  C   UNL     1       0.882   9.942  19.391  0.00  0.00    +0.000 C 
ATOM      3  C   UNL     1       1.822   8.823  19.124  0.00  0.00    +0.000 A 
ATOM      4  C   UNL     1       2.578   8.774  17.946  0.00  0.00    +0.000 A 
ATOM      5  C   UNL     1       3.344   7.636  17.653  0.00  0.00    +0.000 A 
ATOM      6  N   UNL     1       4.061   7.585  16.451  0.00  0.00    +0.000 NA
ATOM      7  N   UNL     1       4.620   6.521  16.103  0.00  0.00    +0.000 NA
ATOM      8  N   UNL     1       4.665   5.429  16.925  0.00  0.00    +0.000 N 
ATOM      9  C   UNL     1       4.067   5.381  18.170  0.00  0.00    +0.000 A 
ATOM     10  O   UNL     1       4.080   4.410  18.923  0.00  0.00    +0.000 OA
ATOM     11  C   UNL     1       3.332   6.580  18.555  0.00  0.00    +0.000 A 
ATOM     12  C   UNL     1       2.598   6.623  19.743  0.00  0.00    +0.000 A 
ATOM     13  C   UNL     1       1.851   7.756  20.031  0.00  0.00    +0.000 A 
ATOM     14  O   UNL     1       1.121   7.736  21.195  0.00  0.00    +0.000 OA
ATOM     15  C   UNL     1       0.875   9.054  21.660  0.00  0.00    +0.000 C 
ATOM     16  C   UNL     1      -0.157   9.096  22.779  0.00  0.00    +0.000 C 
ATOM     17  C   UNL     1      -0.750  10.494  22.610  0.00  0.00    +0.000 C 
ATOM     18  C   UNL     1      -0.837  10.631  21.093  0.00  0.00    +0.000 C 
ATOM     19  N   UNL     1       0.295   9.861  20.621  0.00  0.00    +0.000 N 
ENDROOT
BRANCH   8  20
ATOM     20  C   UNL     1       5.191   4.221  16.341  0.00  0.00    +0.000 C 
ATOM     21  C   UNL     1       5.659   4.124  14.912  0.00  0.00    +0.000 C 
ATOM     22  C   UNL     1       6.657   4.057  16.031  0.00  0.00    +0.000 C 
ENDBRANCH   8  20
TORSDOF 1
ENDMDL
MODEL 9
REMARK VINA RESULT:      -7.1      2.465      3.678
REMARK  Name = 
REMARK  1 active torsions:
REMARK  status: ('A' for Active; 'I' for Inactive)
REMARK    1  A    between atoms: N_8  and  C_9
REMARK                            x       y       z     vdW  Elec       q    Type
REMARK                         _______ _______ _______ _____ _____    ______ ____
ROOT
ATOM      1  O   UNL     1       3.320   8.163  16.928  0.00  0.00    +0.000 OA
ATOM      2  C   UNL     1       2.974   7.507  17.897  0.00  0.00    +0.000 C 
ATOM      3  C   UNL     1       2.049   8.056  18.921  0.00  0.00    +0.000 A 
ATOM      4  C   UNL     1       1.422   9.296  18.745  0.00  0.00    +0.000 A 
ATOM      5  C   UNL     1       0.673   9.857  19.789  0.00  0.00    +0.000 A 
ATOM      6  N   UNL     1       0.088  11.117  19.613  0.00  0.00    +0.000 NA
ATOM      7  N   UNL     1      -0.449  11.698  20.583  0.00  0.00    +0.000 NA
ATOM      8  N   UNL     1      -0.600  11.083  21.794  0.00  0.00    +0.000 N 
ATOM      9  C   UNL     1      -0.141   9.810  22.073  0.00  0.00    +0.000 A 
ATOM     10  O   UNL     1      -0.252   9.239  23.155  0.00  0.00    +0.000 OA
ATOM     11  C   UNL     1       0.570   9.152  20.981  0.00  0.00    +0.000 A 
ATOM     12  C   UNL     1       1.172   7.905  21.165  0.00  0.00    +0.000 A 
ATOM     13  C   UNL     1       1.904   7.353  20.123  0.00  0.00    +0.000 A 
ATOM     14  O   UNL     1       2.505   6.140  20.364  0.00  0.00    +0.000 OA
ATOM     15  C   UNL     1       2.722   5.434  19.153  0.00  0.00    +0.000 C 
ATOM     16  C   UNL     1       3.628   4.224  19.337  0.00  0.00    +0.000 C 
ATOM     17  C   UNL     1       4.261   4.091  17.952  0.00  0.00    +0.000 C 
ATOM     18  C   UNL     1       4.512   5.545  17.565  0.00  0.00    +0.000 C 
ATOM     19  N   UNL     1       3.425   6.255  18.205  0.00  0.00    +0.000 N 
ENDROOT
BRANCH   8  20
ATOM     20  C   UNL     1      -1.082  11.915  22.868  0.00  0.00    +0.000 C 
ATOM     21  C   UNL     1      -1.752  13.248  22.650  0.00  0.00    +0.000 C 
ATOM     22  C   UNL     1      -2.553  12.082  23.150  0.00  0.00    +0.000 C 
ENDBRANCH   8  20
TORSDOF 1
ENDMDL
