MODEL 1
REMARK VINA RESULT:      -4.3      0.000      0.000
REMARK  Name = 
REMARK  4 active torsions:
REMARK  status: ('A' for Active; 'I' for Inactive)
REMARK    1  A    between atoms: C_1  and  C_2
REMARK    2  A    between atoms: C_2  and  C_3
REMARK    3  A    between atoms: C_3  and  C_4
REMARK    4  A    between atoms: C_4  and  C_6
REMARK                            x       y       z     vdW  Elec       q    Type
REMARK                         _______ _______ _______ _____ _____    ______ ____
ROOT
ATOM      1  C   UNL     1       2.139   2.954  18.079  0.00  0.00    +0.000 C 
ATOM      2 BR   UNL     1       2.193   4.916  18.018  0.00  0.00    +0.000 Br
ENDROOT
BRANCH   1   3
ATOM      3  C   UNL     1       3.563   2.515  18.422  0.00  0.00    +0.000 C 
ATOM      4  N   UNL     1       3.807   1.171  18.342  0.00  0.00    +0.000 N 
ATOM      5  O   UNL     1       4.452   3.276  18.795  0.00  0.00    +0.000 OA
ATOM      6  H   UNL     1       3.203   0.565  17.800  0.00  0.00    +0.000 HD
ATOM      7  H   UNL     1       4.770   0.884  18.458  0.00  0.00    +0.000 HD
ENDBRANCH   1   3
BRANCH   1   8
ATOM      8  C   UNL     1       1.123   2.473  19.114  0.00  0.00    +0.000 C 
BRANCH   8  10
ATOM      9  C   UNL     1       1.632   2.690  21.577  0.00  0.00    +0.000 C 
ATOM     10  C   UNL     1       1.023   3.366  20.357  0.00  0.00    +0.000 C 
ENDBRANCH   8  10
ENDBRANCH   1   8
TORSDOF 3
ENDMDL
MODEL 2
REMARK VINA RESULT:      -4.3      1.120      1.120
REMARK  Name = 
REMARK  4 active torsions:
REMARK  status: ('A' for Active; 'I' for Inactive)
REMARK    1  A    between atoms: C_1  and  C_2
REMARK    2  A    between atoms: C_2  and  C_3
REMARK    3  A    between atoms: C_3  and  C_4
REMARK    4  A    between atoms: C_4  and  C_6
REMARK                            x       y       z     vdW  Elec       q    Type
REMARK                         _______ _______ _______ _____ _____    ______ ____
ROOT
ATOM      1  C   UNL     1       2.060   2.889  17.899  0.00  0.00    +0.000 C 
ATOM      2 BR   UNL     1       2.319   4.834  17.978  0.00  0.00    +0.000 Br
ENDROOT
BRANCH   1   3
ATOM      3  C   UNL     1       3.444   2.282  18.132  0.00  0.00    +0.000 C 
ATOM      4  N   UNL     1       4.506   3.081  17.807  0.00  0.00    +0.000 N 
ATOM      5  O   UNL     1       3.641   1.140  18.538  0.00  0.00    +0.000 OA
ATOM      6  H   UNL     1       4.396   4.085  17.727  0.00  0.00    +0.000 HD
ATOM      7  H   UNL     1       5.422   2.733  18.061  0.00  0.00    +0.000 HD
ENDBRANCH   1   3
BRANCH   1   8
ATOM      8  C   UNL     1       1.048   2.435  18.950  0.00  0.00    +0.000 C 
BRANCH   8  10
ATOM      9  C   UNL     1       1.519   2.723  21.414  0.00  0.00    +0.000 C 
ATOM     10  C   UNL     1       0.941   3.369  20.162  0.00  0.00    +0.000 C 
ENDBRANCH   8  10
ENDBRANCH   1   8
TORSDOF 3
ENDMDL
MODEL 3
REMARK VINA RESULT:      -4.3      2.212      2.730
REMARK  Name = 
REMARK  4 active torsions:
REMARK  status: ('A' for Active; 'I' for Inactive)
REMARK    1  A    between atoms: C_1  and  C_2
REMARK    2  A    between atoms: C_2  and  C_3
REMARK    3  A    between atoms: C_3  and  C_4
REMARK    4  A    between atoms: C_4  and  C_6
REMARK                            x       y       z     vdW  Elec       q    Type
REMARK                         _______ _______ _______ _____ _____    ______ ____
ROOT
ATOM      1  C   UNL     1       2.779   3.202  19.631  0.00  0.00    +0.000 C 
ATOM      2 BR   UNL     1       2.255   2.818  21.485  0.00  0.00    +0.000 Br
ENDROOT
BRANCH   1   3
ATOM      3  C   UNL     1       3.787   2.116  19.257  0.00  0.00    +0.000 C 
ATOM      4  N   UNL     1       4.938   2.092  19.997  0.00  0.00    +0.000 N 
ATOM      5  O   UNL     1       3.641   1.324  18.330  0.00  0.00    +0.000 OA
ATOM      6  H   UNL     1       4.980   2.536  20.907  0.00  0.00    +0.000 HD
ATOM      7  H   UNL     1       5.559   1.311  19.832  0.00  0.00    +0.000 HD
ENDBRANCH   1   3
BRANCH   1   8
ATOM      8  C   UNL     1       1.557   3.195  18.713  0.00  0.00    +0.000 C 
BRANCH   8  10
ATOM      9  C   UNL     1       2.381   5.504  18.110  0.00  0.00    +0.000 C 
ATOM     10  C   UNL     1       1.561   4.305  17.654  0.00  0.00    +0.000 C 
ENDBRANCH   8  10
ENDBRANCH   1   8
TORSDOF 3
ENDMDL
MODEL 4
REMARK VINA RESULT:      -4.2      1.080      1.123
REMARK  Name = 
REMARK  4 active torsions:
REMARK  status: ('A' for Active; 'I' for Inactive)
REMARK    1  A    between atoms: C_1  and  C_2
REMARK    2  A    between atoms: C_2  and  C_3
REMARK    3  A    between atoms: C_3  and  C_4
REMARK    4  A    between atoms: C_4  and  C_6
REMARK                            x       y       z     vdW  Elec       q    Type
REMARK                         _______ _______ _______ _____ _____    ______ ____
ROOT
ATOM      1  C   UNL     1       3.114   2.849  18.400  0.00  0.00    +0.000 C 
ATOM      2 BR   UNL     1       2.395   4.618  17.939  0.00  0.00    +0.000 Br
ENDROOT
BRANCH   1   3
ATOM      3  C   UNL     1       4.396   3.121  19.188  0.00  0.00    +0.000 C 
ATOM      4  N   UNL     1       4.887   2.067  19.908  0.00  0.00    +0.000 N 
ATOM      5  O   UNL     1       4.959   4.211  19.240  0.00  0.00    +0.000 OA
ATOM      6  H   UNL     1       4.616   1.116  19.687  0.00  0.00    +0.000 HD
ATOM      7  H   UNL     1       5.791   2.203  20.341  0.00  0.00    +0.000 HD
ENDBRANCH   1   3
BRANCH   1   8
ATOM      8  C   UNL     1       2.098   2.048  19.213  0.00  0.00    +0.000 C 
BRANCH   8  10
ATOM      9  C   UNL     1       1.492   2.793  21.548  0.00  0.00    +0.000 C 
ATOM     10  C   UNL     1       1.159   2.909  20.067  0.00  0.00    +0.000 C 
ENDBRANCH   8  10
ENDBRANCH   1   8
TORSDOF 3
ENDMDL
MODEL 5
REMARK VINA RESULT:      -4.2      3.997      4.721
REMARK  Name = 
REMARK  4 active torsions:
REMARK  status: ('A' for Active; 'I' for Inactive)
REMARK    1  A    between atoms: C_1  and  C_2
REMARK    2  A    between atoms: C_2  and  C_3
REMARK    3  A    between atoms: C_3  and  C_4
REMARK    4  A    between atoms: C_4  and  C_6
REMARK                            x       y       z     vdW  Elec       q    Type
REMARK                         _______ _______ _______ _____ _____    ______ ____
ROOT
ATOM      1  C   UNL     1       5.937   4.086  16.206  0.00  0.00    +0.000 C 
ATOM      2 BR   UNL     1       6.010   4.115  14.243  0.00  0.00    +0.000 Br
ENDROOT
BRANCH   1   3
ATOM      3  C   UNL     1       7.156   4.882  16.673  0.00  0.00    +0.000 C 
ATOM      4  N   UNL     1       7.876   4.322  17.693  0.00  0.00    +0.000 N 
ATOM      5  O   UNL     1       7.481   5.978  16.226  0.00  0.00    +0.000 OA
ATOM      6  H   UNL     1       7.803   3.333  17.899  0.00  0.00    +0.000 HD
ATOM      7  H   UNL     1       8.744   4.783  17.933  0.00  0.00    +0.000 HD
ENDBRANCH   1   3
BRANCH   1   8
ATOM      8  C   UNL     1       4.626   4.693  16.706  0.00  0.00    +0.000 C 
BRANCH   8  10
ATOM      9  C   UNL     1       2.336   4.332  17.704  0.00  0.00    +0.000 C 
ATOM     10  C   UNL     1       3.588   3.659  17.159  0.00  0.00    +0.000 C 
ENDBRANCH   8  10
ENDBRANCH   1   8
TORSDOF 3
ENDMDL
MODEL 6
REMARK VINA RESULT:      -4.2      5.682      5.978
REMARK  Name = 
REMARK  4 active torsions:
REMARK  status: ('A' for Active; 'I' for Inactive)
REMARK    1  A    between atoms: C_1  and  C_2
REMARK    2  A    between atoms: C_2  and  C_3
REMARK    3  A    between atoms: C_3  and  C_4
REMARK    4  A    between atoms: C_4  and  C_6
REMARK                            x       y       z     vdW  Elec       q    Type
REMARK                         _______ _______ _______ _____ _____    ______ ____
ROOT
ATOM      1  C   UNL     1       6.272   4.570  16.169  0.00  0.00    +0.000 C 
ATOM      2 BR   UNL     1       5.122   6.157  16.303  0.00  0.00    +0.000 Br
ENDROOT
BRANCH   1   3
ATOM      3  C   UNL     1       6.824   4.583  14.743  0.00  0.00    +0.000 C 
ATOM      4  N   UNL     1       6.347   3.607  13.912  0.00  0.00    +0.000 N 
ATOM      5  O   UNL     1       7.675   5.369  14.336  0.00  0.00    +0.000 OA
ATOM      6  H   UNL     1       5.480   3.125  14.119  0.00  0.00    +0.000 HD
ATOM      7  H   UNL     1       6.619   3.674  12.940  0.00  0.00    +0.000 HD
ENDBRANCH   1   3
BRANCH   1   8
ATOM      8  C   UNL     1       7.383   4.619  17.217  0.00  0.00    +0.000 C 
BRANCH   8  10
ATOM      9  C   UNL     1       7.822   5.770  19.420  0.00  0.00    +0.000 C 
ATOM     10  C   UNL     1       7.501   5.963  17.945  0.00  0.00    +0.000 C 
ENDBRANCH   8  10
ENDBRANCH   1   8
TORSDOF 3
ENDMDL
MODEL 7
REMARK VINA RESULT:      -4.2      1.705      1.861
REMARK  Name = 
REMARK  4 active torsions:
REMARK  status: ('A' for Active; 'I' for Inactive)
REMARK    1  A    between atoms: C_1  and  C_2
REMARK    2  A    between atoms: C_2  and  C_3
REMARK    3  A    between atoms: C_3  and  C_4
REMARK    4  A    between atoms: C_4  and  C_6
REMARK                            x       y       z     vdW  Elec       q    Type
REMARK                         _______ _______ _______ _____ _____    ______ ____
ROOT
ATOM      1  C   UNL     1       3.028   2.168  19.044  0.00  0.00    +0.000 C 
ATOM      2 BR   UNL     1       2.867   3.354  17.486  0.00  0.00    +0.000 Br
ENDROOT
BRANCH   1   3
ATOM      3  C   UNL     1       4.407   2.457  19.637  0.00  0.00    +0.000 C 
ATOM      4  N   UNL     1       5.166   3.372  18.961  0.00  0.00    +0.000 N 
ATOM      5  O   UNL     1       4.866   1.897  20.629  0.00  0.00    +0.000 OA
ATOM      6  H   UNL     1       4.738   4.030  18.320  0.00  0.00    +0.000 HD
ATOM      7  H   UNL     1       6.030   3.653  19.405  0.00  0.00    +0.000 HD
ENDBRANCH   1   3
BRANCH   1   8
ATOM      8  C   UNL     1       1.903   2.434  20.043  0.00  0.00    +0.000 C 
BRANCH   8  10
ATOM      9  C   UNL     1       1.567   4.858  20.663  0.00  0.00    +0.000 C 
ATOM     10  C   UNL     1       1.108   3.716  19.767  0.00  0.00    +0.000 C 
ENDBRANCH   8  10
ENDBRANCH   1   8
TORSDOF 3
ENDMDL
MODEL 8
REMARK VINA RESULT:      -4.1      2.170      2.753
REMARK  Name = 
REMARK  4 active torsions:
REMARK  status: ('A' for Active; 'I' for Inactive)
REMARK    1  A    between atoms: C_1  and  C_2
REMARK    2  A    between atoms: C_2  and  C_3
REMARK    3  A    between atoms: C_3  and  C_4
REMARK    4  A    between atoms: C_4  and  C_6
REMARK                            x       y       z     vdW  Elec       q    Type
REMARK                         _______ _______ _______ _____ _____    ______ ____
ROOT
ATOM      1  C   UNL     1       3.132   3.609  19.698  0.00  0.00    +0.000 C 
ATOM      2 BR   UNL     1       2.442   2.786  21.343  0.00  0.00    +0.000 Br
ENDROOT
BRANCH   1   3
ATOM      3  C   UNL     1       4.588   3.155  19.593  0.00  0.00    +0.000 C 
ATOM      4  N   UNL     1       4.838   1.865  19.976  0.00  0.00    +0.000 N 
ATOM      5  O   UNL     1       5.515   3.877  19.238  0.00  0.00    +0.000 OA
ATOM      6  H   UNL     1       4.092   1.181  20.017  0.00  0.00    +0.000 HD
ATOM      7  H   UNL     1       5.774   1.521  19.805  0.00  0.00    +0.000 HD
ENDBRANCH   1   3
BRANCH   1   8
ATOM      8  C   UNL     1       2.304   3.174  18.489  0.00  0.00    +0.000 C 
BRANCH   8  10
ATOM      9  C   UNL     1       2.314   5.660  18.050  0.00  0.00    +0.000 C 
ATOM     10  C   UNL     1       1.638   4.333  17.736  0.00  0.00    +0.000 C 
ENDBRANCH   8  10
ENDBRANCH   1   8
TORSDOF 3
ENDMDL
MODEL 9
REMARK VINA RESULT:      -4.1      5.260      5.994
REMARK  Name = 
REMARK  4 active torsions:
REMARK  status: ('A' for Active; 'I' for Inactive)
REMARK    1  A    between atoms: C_1  and  C_2
REMARK    2  A    between atoms: C_2  and  C_3
REMARK    3  A    between atoms: C_3  and  C_4
REMARK    4  A    between atoms: C_4  and  C_6
REMARK                            x       y       z     vdW  Elec       q    Type
REMARK                         _______ _______ _______ _____ _____    ______ ____
ROOT
ATOM      1  C   UNL     1       6.306   5.451  16.561  0.00  0.00    +0.000 C 
ATOM      2 BR   UNL     1       4.413   5.111  16.963  0.00  0.00    +0.000 Br
ENDROOT
BRANCH   1   3
ATOM      3  C   UNL     1       7.094   4.541  17.503  0.00  0.00    +0.000 C 
ATOM      4  N   UNL     1       6.441   4.154  18.641  0.00  0.00    +0.000 N 
ATOM      5  O   UNL     1       8.257   4.192  17.317  0.00  0.00    +0.000 OA
ATOM      6  H   UNL     1       5.431   4.196  18.700  0.00  0.00    +0.000 HD
ATOM      7  H   UNL     1       6.911   3.465  19.214  0.00  0.00    +0.000 HD
ENDBRANCH   1   3
BRANCH   1   8
ATOM      8  C   UNL     1       6.606   5.157  15.091  0.00  0.00    +0.000 C 
BRANCH   8  10
ATOM      9  C   UNL     1       6.198   3.685  13.082  0.00  0.00    +0.000 C 
ATOM     10  C   UNL     1       5.716   4.073  14.473  0.00  0.00    +0.000 C 
ENDBRANCH   8  10
ENDBRANCH   1   8
TORSDOF 3
ENDMDL
