MODEL 1
REMARK VINA RESULT:      -7.9      0.000      0.000
REMARK  Name = 
REMARK  9 active torsions:
REMARK  status: ('A' for Active; 'I' for Inactive)
REMARK    1  A    between atoms: N_1  and  C_2
REMARK    2  A    between atoms: C_2  and  C_3
REMARK    3  A    between atoms: C_3  and  O_5
REMARK    4  A    between atoms: C_6  and  O_7
REMARK    5  A    between atoms: O_7  and  C_8
REMARK    6  A    between atoms: C_8  and  C_9
REMARK    7  A    between atoms: C_13  and  C_14
REMARK    8  A    between atoms: C_22  and  C_24
REMARK    9  A    between atoms: C_24  and  O_26
REMARK                            x       y       z     vdW  Elec       q    Type
REMARK                         _______ _______ _______ _____ _____    ______ ____
ROOT
ATOM      1  C   UNL     1       4.389   4.734  18.584  0.00  0.00    +0.000 C 
ATOM      2  C   UNL     1       3.435   5.746  17.858  0.00  0.00    +0.000 C 
ATOM      3  C   UNL     1       2.041   5.141  18.130  0.00  0.00    +0.000 C 
ATOM      4  C   UNL     1       2.149   4.650  19.547  0.00  0.00    +0.000 C 
ATOM      5  C   UNL     1       3.603   4.334  19.821  0.00  0.00    +0.000 C 
ATOM      6  C   UNL     1       2.545   3.247  19.903  0.00  0.00    +0.000 C 
ATOM      7  F   UNL     1       2.519   2.326  18.852  0.00  0.00    +0.000 F 
ENDROOT
BRANCH   1   8
ATOM      8  N   UNL     1       4.672   3.529  17.738  0.00  0.00    +0.000 NA
ATOM      9  H   UNL     1       5.663   3.535  17.479  0.00  0.00    +0.000 HD
ATOM     10  H   UNL     1       4.184   3.655  16.845  0.00  0.00    +0.000 HD
ENDBRANCH   1   8
BRANCH   1  11
ATOM     11  C   UNL     1       5.759   5.393  18.879  0.00  0.00    +0.000 C 
ATOM     12  O   UNL     1       6.462   5.203  19.860  0.00  0.00    +0.000 OA
BRANCH  11  13
ATOM     13  O   UNL     1       6.140   6.205  17.849  0.00  0.00    +0.000 OA
ATOM     14  H   UNL     1       6.334   5.620  17.079  0.00  0.00    +0.000 HD
ENDBRANCH  11  13
ENDBRANCH   1  11
BRANCH   6  15
ATOM     15  C   UNL     1       2.149   2.690  21.233  0.00  0.00    +0.000 C 
ATOM     16  O   UNL     1       2.947   2.245  22.041  0.00  0.00    +0.000 OA
BRANCH  15  17
ATOM     17  O   UNL     1       0.812   2.736  21.448  0.00  0.00    +0.000 OA
ATOM     18  H   UNL     1       0.401   3.471  20.951  0.00  0.00    +0.000 HD
ENDBRANCH  15  17
ENDBRANCH   6  15
BRANCH   2  19
ATOM     19  O   UNL     1       3.538   7.057  18.442  0.00  0.00    +0.000 OA
BRANCH  19  20
ATOM     20  C   UNL     1       2.907   8.079  17.672  0.00  0.00    +0.000 C 
BRANCH  20  21
ATOM     21  C   UNL     1       1.746   8.714  18.402  0.00  0.00    +0.000 A 
ATOM     22  C   UNL     1       0.859   9.536  17.689  0.00  0.00    +0.000 A 
ATOM     23  C   UNL     1      -0.168  10.218  18.341  0.00  0.00    +0.000 A 
ATOM     24  C   UNL     1      -0.316  10.098  19.719  0.00  0.00    +0.000 A 
ATOM     25  C   UNL     1       0.556   9.287  20.461  0.00  0.00    +0.000 A 
ATOM     26  C   UNL     1       1.581   8.591  19.790  0.00  0.00    +0.000 A 
BRANCH  25  27
ATOM     27  C   UNL     1       0.415   9.174  21.960  0.00  0.00    +0.000 C 
ATOM     28  F   UNL     1       0.166  10.369  22.570  0.00  0.00    +0.000 F 
ATOM     29  F   UNL     1      -0.599   8.349  22.337  0.00  0.00    +0.000 F 
ATOM     30  F   UNL     1       1.540   8.689  22.554  0.00  0.00    +0.000 F 
ENDBRANCH  25  27
ENDBRANCH  20  21
ENDBRANCH  19  20
ENDBRANCH   2  19
TORSDOF 9
ENDMDL
MODEL 2
REMARK VINA RESULT:      -7.9      1.673      2.256
REMARK  Name = 
REMARK  9 active torsions:
REMARK  status: ('A' for Active; 'I' for Inactive)
REMARK    1  A    between atoms: N_1  and  C_2
REMARK    2  A    between atoms: C_2  and  C_3
REMARK    3  A    between atoms: C_3  and  O_5
REMARK    4  A    between atoms: C_6  and  O_7
REMARK    5  A    between atoms: O_7  and  C_8
REMARK    6  A    between atoms: C_8  and  C_9
REMARK    7  A    between atoms: C_13  and  C_14
REMARK    8  A    between atoms: C_22  and  C_24
REMARK    9  A    between atoms: C_24  and  O_26
REMARK                            x       y       z     vdW  Elec       q    Type
REMARK                         _______ _______ _______ _____ _____    ______ ____
ROOT
ATOM      1  C   UNL     1       4.518   4.618  18.510  0.00  0.00    +0.000 C 
ATOM      2  C   UNL     1       3.607   5.583  17.672  0.00  0.00    +0.000 C 
ATOM      3  C   UNL     1       2.198   4.995  17.906  0.00  0.00    +0.000 C 
ATOM      4  C   UNL     1       2.229   4.594  19.355  0.00  0.00    +0.000 C 
ATOM      5  C   UNL     1       3.665   4.296  19.726  0.00  0.00    +0.000 C 
ATOM      6  C   UNL     1       2.601   3.216  19.819  0.00  0.00    +0.000 C 
ATOM      7  F   UNL     1       2.629   2.231  18.828  0.00  0.00    +0.000 F 
ENDROOT
BRANCH   1   8
ATOM      8  N   UNL     1       4.842   3.362  17.758  0.00  0.00    +0.000 NA
ATOM      9  H   UNL     1       5.758   3.473  17.313  0.00  0.00    +0.000 HD
ATOM     10  H   UNL     1       4.191   3.298  16.967  0.00  0.00    +0.000 HD
ENDBRANCH   1   8
BRANCH   1  11
ATOM     11  C   UNL     1       5.872   5.294  18.837  0.00  0.00    +0.000 C 
ATOM     12  O   UNL     1       6.521   5.165  19.864  0.00  0.00    +0.000 OA
BRANCH  11  13
ATOM     13  O   UNL     1       6.310   6.040  17.780  0.00  0.00    +0.000 OA
ATOM     14  H   UNL     1       5.560   6.106  17.144  0.00  0.00    +0.000 HD
ENDBRANCH  11  13
ENDBRANCH   1  11
BRANCH   6  15
ATOM     15  C   UNL     1       2.132   2.743  21.158  0.00  0.00    +0.000 C 
ATOM     16  O   UNL     1       2.883   2.334  22.028  0.00  0.00    +0.000 OA
BRANCH  15  17
ATOM     17  O   UNL     1       0.787   2.821  21.305  0.00  0.00    +0.000 OA
ATOM     18  H   UNL     1       0.336   2.772  20.439  0.00  0.00    +0.000 HD
ENDBRANCH  15  17
ENDBRANCH   6  15
BRANCH   2  19
ATOM     19  O   UNL     1       3.683   6.927  18.178  0.00  0.00    +0.000 OA
BRANCH  19  20
ATOM     20  C   UNL     1       2.802   7.837  17.522  0.00  0.00    +0.000 C 
BRANCH  20  21
ATOM     21  C   UNL     1       1.894   8.557  18.492  0.00  0.00    +0.000 A 
ATOM     22  C   UNL     1       1.888   8.165  19.841  0.00  0.00    +0.000 A 
ATOM     23  C   UNL     1       0.998   8.736  20.750  0.00  0.00    +0.000 A 
ATOM     24  C   UNL     1       0.090   9.699  20.321  0.00  0.00    +0.000 A 
ATOM     25  C   UNL     1       0.067  10.110  18.979  0.00  0.00    +0.000 A 
ATOM     26  C   UNL     1       0.981   9.537  18.073  0.00  0.00    +0.000 A 
BRANCH  25  27
ATOM     27  C   UNL     1      -0.933  11.136  18.505  0.00  0.00    +0.000 C 
ATOM     28  F   UNL     1      -1.907  11.405  19.422  0.00  0.00    +0.000 F 
ATOM     29  F   UNL     1      -0.364  12.335  18.208  0.00  0.00    +0.000 F 
ATOM     30  F   UNL     1      -1.592  10.740  17.381  0.00  0.00    +0.000 F 
ENDBRANCH  25  27
ENDBRANCH  20  21
ENDBRANCH  19  20
ENDBRANCH   2  19
TORSDOF 9
ENDMDL
MODEL 3
REMARK VINA RESULT:      -7.8      2.335      4.088
REMARK  Name = 
REMARK  9 active torsions:
REMARK  status: ('A' for Active; 'I' for Inactive)
REMARK    1  A    between atoms: N_1  and  C_2
REMARK    2  A    between atoms: C_2  and  C_3
REMARK    3  A    between atoms: C_3  and  O_5
REMARK    4  A    between atoms: C_6  and  O_7
REMARK    5  A    between atoms: O_7  and  C_8
REMARK    6  A    between atoms: C_8  and  C_9
REMARK    7  A    between atoms: C_13  and  C_14
REMARK    8  A    between atoms: C_22  and  C_24
REMARK    9  A    between atoms: C_24  and  O_26
REMARK                            x       y       z     vdW  Elec       q    Type
REMARK                         _______ _______ _______ _____ _____    ______ ____
ROOT
ATOM      1  C   UNL     1       4.297   4.208  17.902  0.00  0.00    +0.000 C 
ATOM      2  C   UNL     1       4.163   5.635  18.541  0.00  0.00    +0.000 C 
ATOM      3  C   UNL     1       5.417   6.358  18.002  0.00  0.00    +0.000 C 
ATOM      4  C   UNL     1       5.520   5.859  16.587  0.00  0.00    +0.000 C 
ATOM      5  C   UNL     1       4.879   4.490  16.527  0.00  0.00    +0.000 C 
ATOM      6  C   UNL     1       6.349   4.671  16.192  0.00  0.00    +0.000 C 
ATOM      7  F   UNL     1       7.264   4.227  17.151  0.00  0.00    +0.000 F 
ENDROOT
BRANCH   1   8
ATOM      8  N   UNL     1       5.225   3.330  18.687  0.00  0.00    +0.000 NA
ATOM      9  H   UNL     1       4.704   2.509  19.011  0.00  0.00    +0.000 HD
ATOM     10  H   UNL     1       5.464   3.827  19.552  0.00  0.00    +0.000 HD
ENDBRANCH   1   8
BRANCH   1  11
ATOM     11  C   UNL     1       2.925   3.489  17.883  0.00  0.00    +0.000 C 
ATOM     12  O   UNL     1       2.391   2.964  16.918  0.00  0.00    +0.000 OA
BRANCH  11  13
ATOM     13  O   UNL     1       2.378   3.453  19.134  0.00  0.00    +0.000 OA
ATOM     14  H   UNL     1       2.750   4.218  19.633  0.00  0.00    +0.000 HD
ENDBRANCH  11  13
ENDBRANCH   1  11
BRANCH   6  15
ATOM     15  C   UNL     1       6.814   4.542  14.777  0.00  0.00    +0.000 C 
ATOM     16  O   UNL     1       7.573   5.334  14.243  0.00  0.00    +0.000 OA
BRANCH  15  17
ATOM     17  O   UNL     1       6.309   3.450  14.153  0.00  0.00    +0.000 OA
ATOM     18  H   UNL     1       5.853   2.862  14.786  0.00  0.00    +0.000 HD
ENDBRANCH  15  17
ENDBRANCH   6  15
BRANCH   2  19
ATOM     19  O   UNL     1       2.967   6.290  18.084  0.00  0.00    +0.000 OA
BRANCH  19  20
ATOM     20  C   UNL     1       3.105   7.704  17.944  0.00  0.00    +0.000 C 
BRANCH  20  21
ATOM     21  C   UNL     1       1.945   8.457  18.551  0.00  0.00    +0.000 A 
ATOM     22  C   UNL     1       1.188   9.317  17.737  0.00  0.00    +0.000 A 
ATOM     23  C   UNL     1       0.171  10.103  18.276  0.00  0.00    +0.000 A 
ATOM     24  C   UNL     1      -0.098  10.052  19.640  0.00  0.00    +0.000 A 
ATOM     25  C   UNL     1       0.641   9.206  20.481  0.00  0.00    +0.000 A 
ATOM     26  C   UNL     1       1.658   8.406  19.924  0.00  0.00    +0.000 A 
BRANCH  25  27
ATOM     27  C   UNL     1       0.369   9.168  21.966  0.00  0.00    +0.000 C 
ATOM     28  F   UNL     1      -0.652   8.330  22.306  0.00  0.00    +0.000 F 
ATOM     29  F   UNL     1       1.443   8.754  22.691  0.00  0.00    +0.000 F 
ATOM     30  F   UNL     1       0.022  10.387  22.463  0.00  0.00    +0.000 F 
ENDBRANCH  25  27
ENDBRANCH  20  21
ENDBRANCH  19  20
ENDBRANCH   2  19
TORSDOF 9
ENDMDL
MODEL 4
REMARK VINA RESULT:      -7.6      3.664      5.835
REMARK  Name = 
REMARK  9 active torsions:
REMARK  status: ('A' for Active; 'I' for Inactive)
REMARK    1  A    between atoms: N_1  and  C_2
REMARK    2  A    between atoms: C_2  and  C_3
REMARK    3  A    between atoms: C_3  and  O_5
REMARK    4  A    between atoms: C_6  and  O_7
REMARK    5  A    between atoms: O_7  and  C_8
REMARK    6  A    between atoms: C_8  and  C_9
REMARK    7  A    between atoms: C_13  and  C_14
REMARK    8  A    between atoms: C_22  and  C_24
REMARK    9  A    between atoms: C_24  and  O_26
REMARK                            x       y       z     vdW  Elec       q    Type
REMARK                         _______ _______ _______ _____ _____    ______ ____
ROOT
ATOM      1  C   UNL     1       7.057   4.902  16.602  0.00  0.00    +0.000 C 
ATOM      2  C   UNL     1       5.714   4.493  17.303  0.00  0.00    +0.000 C 
ATOM      3  C   UNL     1       5.727   5.364  18.578  0.00  0.00    +0.000 C 
ATOM      4  C   UNL     1       6.289   6.672  18.096  0.00  0.00    +0.000 C 
ATOM      5  C   UNL     1       7.171   6.388  16.899  0.00  0.00    +0.000 C 
ATOM      6  C   UNL     1       7.750   7.012  18.157  0.00  0.00    +0.000 C 
ATOM      7  F   UNL     1       8.531   6.178  18.961  0.00  0.00    +0.000 F 
ENDROOT
BRANCH   1   8
ATOM      8  N   UNL     1       8.232   4.167  17.175  0.00  0.00    +0.000 NA
ATOM      9  H   UNL     1       7.918   3.245  17.494  0.00  0.00    +0.000 HD
ATOM     10  H   UNL     1       8.506   4.646  18.040  0.00  0.00    +0.000 HD
ENDBRANCH   1   8
BRANCH   1  11
ATOM     11  C   UNL     1       7.013   4.550  15.095  0.00  0.00    +0.000 C 
ATOM     12  O   UNL     1       7.526   5.184  14.184  0.00  0.00    +0.000 OA
BRANCH  11  13
ATOM     13  O   UNL     1       6.358   3.370  14.890  0.00  0.00    +0.000 OA
ATOM     14  H   UNL     1       5.401   3.585  14.791  0.00  0.00    +0.000 HD
ENDBRANCH  11  13
ENDBRANCH   1  11
BRANCH   6  15
ATOM     15  C   UNL     1       8.168   8.448  18.154  0.00  0.00    +0.000 C 
ATOM     16  O   UNL     1       7.778   9.260  17.331  0.00  0.00    +0.000 OA
BRANCH  15  17
ATOM     17  O   UNL     1       9.019   8.753  19.163  0.00  0.00    +0.000 OA
ATOM     18  H   UNL     1       8.990   8.073  19.864  0.00  0.00    +0.000 HD
ENDBRANCH  15  17
ENDBRANCH   6  15
BRANCH   2  19
ATOM     19  O   UNL     1       4.583   4.823  16.477  0.00  0.00    +0.000 OA
BRANCH  19  20
ATOM     20  C   UNL     1       3.409   4.074  16.786  0.00  0.00    +0.000 C 
BRANCH  20  21
ATOM     21  C   UNL     1       2.785   4.498  18.095  0.00  0.00    +0.000 A 
ATOM     22  C   UNL     1       2.410   5.841  18.269  0.00  0.00    +0.000 A 
ATOM     23  C   UNL     1       1.920   6.296  19.492  0.00  0.00    +0.000 A 
ATOM     24  C   UNL     1       1.809   5.417  20.566  0.00  0.00    +0.000 A 
ATOM     25  C   UNL     1       2.178   4.071  20.426  0.00  0.00    +0.000 A 
ATOM     26  C   UNL     1       2.659   3.619  19.181  0.00  0.00    +0.000 A 
BRANCH  25  27
ATOM     27  C   UNL     1       2.083   3.121  21.596  0.00  0.00    +0.000 C 
ATOM     28  F   UNL     1       0.863   2.520  21.706  0.00  0.00    +0.000 F 
ATOM     29  F   UNL     1       2.989   2.109  21.532  0.00  0.00    +0.000 F 
ATOM     30  F   UNL     1       2.292   3.743  22.789  0.00  0.00    +0.000 F 
ENDBRANCH  25  27
ENDBRANCH  20  21
ENDBRANCH  19  20
ENDBRANCH   2  19
TORSDOF 9
ENDMDL
MODEL 5
REMARK VINA RESULT:      -7.6      0.707      1.050
REMARK  Name = 
REMARK  9 active torsions:
REMARK  status: ('A' for Active; 'I' for Inactive)
REMARK    1  A    between atoms: N_1  and  C_2
REMARK    2  A    between atoms: C_2  and  C_3
REMARK    3  A    between atoms: C_3  and  O_5
REMARK    4  A    between atoms: C_6  and  O_7
REMARK    5  A    between atoms: O_7  and  C_8
REMARK    6  A    between atoms: C_8  and  C_9
REMARK    7  A    between atoms: C_13  and  C_14
REMARK    8  A    between atoms: C_22  and  C_24
REMARK    9  A    between atoms: C_24  and  O_26
REMARK                            x       y       z     vdW  Elec       q    Type
REMARK                         _______ _______ _______ _____ _____    ______ ____
ROOT
ATOM      1  C   UNL     1       4.450   4.302  18.438  0.00  0.00    +0.000 C 
ATOM      2  C   UNL     1       3.592   5.371  17.672  0.00  0.00    +0.000 C 
ATOM      3  C   UNL     1       2.148   4.938  18.008  0.00  0.00    +0.000 C 
ATOM      4  C   UNL     1       2.240   4.520  19.449  0.00  0.00    +0.000 C 
ATOM      5  C   UNL     1       3.658   4.062  19.713  0.00  0.00    +0.000 C 
ATOM      6  C   UNL     1       2.491   3.104  19.881  0.00  0.00    +0.000 C 
ATOM      7  F   UNL     1       2.337   2.134  18.887  0.00  0.00    +0.000 F 
ENDROOT
BRANCH   1   8
ATOM      8  N   UNL     1       4.577   3.027  17.660  0.00  0.00    +0.000 NA
ATOM      9  H   UNL     1       3.907   2.348  18.032  0.00  0.00    +0.000 HD
ATOM     10  H   UNL     1       5.492   2.618  17.881  0.00  0.00    +0.000 HD
ENDBRANCH   1   8
BRANCH   1  11
ATOM     11  C   UNL     1       5.890   4.823  18.666  0.00  0.00    +0.000 C 
ATOM     12  O   UNL     1       6.363   5.218  19.721  0.00  0.00    +0.000 OA
BRANCH  11  13
ATOM     13  O   UNL     1       6.626   4.733  17.519  0.00  0.00    +0.000 OA
ATOM     14  H   UNL     1       6.431   5.541  16.988  0.00  0.00    +0.000 HD
ENDBRANCH  11  13
ENDBRANCH   1  11
BRANCH   6  15
ATOM     15  C   UNL     1       2.072   2.671  21.249  0.00  0.00    +0.000 C 
ATOM     16  O   UNL     1       2.855   2.287  22.102  0.00  0.00    +0.000 OA
BRANCH  15  17
ATOM     17  O   UNL     1       0.733   2.755  21.443  0.00  0.00    +0.000 OA
ATOM     18  H   UNL     1       0.309   1.880  21.347  0.00  0.00    +0.000 HD
ENDBRANCH  15  17
ENDBRANCH   6  15
BRANCH   2  19
ATOM     19  O   UNL     1       3.853   6.693  18.176  0.00  0.00    +0.000 OA
BRANCH  19  20
ATOM     20  C   UNL     1       3.267   7.730  17.391  0.00  0.00    +0.000 C 
BRANCH  20  21
ATOM     21  C   UNL     1       2.314   8.588  18.191  0.00  0.00    +0.000 A 
ATOM     22  C   UNL     1       1.969   9.860  17.707  0.00  0.00    +0.000 A 
ATOM     23  C   UNL     1       1.171  10.721  18.458  0.00  0.00    +0.000 A 
ATOM     24  C   UNL     1       0.716  10.329  19.713  0.00  0.00    +0.000 A 
ATOM     25  C   UNL     1       1.046   9.066  20.228  0.00  0.00    +0.000 A 
ATOM     26  C   UNL     1       1.841   8.198  19.454  0.00  0.00    +0.000 A 
BRANCH  25  27
ATOM     27  C   UNL     1       0.576   8.647  21.600  0.00  0.00    +0.000 C 
ATOM     28  F   UNL     1       1.360   7.687  22.170  0.00  0.00    +0.000 F 
ATOM     29  F   UNL     1       0.548   9.676  22.489  0.00  0.00    +0.000 F 
ATOM     30  F   UNL     1      -0.683   8.127  21.583  0.00  0.00    +0.000 F 
ENDBRANCH  25  27
ENDBRANCH  20  21
ENDBRANCH  19  20
ENDBRANCH   2  19
TORSDOF 9
ENDMDL
MODEL 6
REMARK VINA RESULT:      -7.6      2.909      4.567
REMARK  Name = 
REMARK  9 active torsions:
REMARK  status: ('A' for Active; 'I' for Inactive)
REMARK    1  A    between atoms: N_1  and  C_2
REMARK    2  A    between atoms: C_2  and  C_3
REMARK    3  A    between atoms: C_3  and  O_5
REMARK    4  A    between atoms: C_6  and  O_7
REMARK    5  A    between atoms: O_7  and  C_8
REMARK    6  A    between atoms: C_8  and  C_9
REMARK    7  A    between atoms: C_13  and  C_14
REMARK    8  A    between atoms: C_22  and  C_24
REMARK    9  A    between atoms: C_24  and  O_26
REMARK                            x       y       z     vdW  Elec       q    Type
REMARK                         _______ _______ _______ _____ _____    ______ ____
ROOT
ATOM      1  C   UNL     1       4.472   4.245  17.826  0.00  0.00    +0.000 C 
ATOM      2  C   UNL     1       4.283   5.712  18.352  0.00  0.00    +0.000 C 
ATOM      3  C   UNL     1       5.433   6.466  17.651  0.00  0.00    +0.000 C 
ATOM      4  C   UNL     1       5.464   5.851  16.280  0.00  0.00    +0.000 C 
ATOM      5  C   UNL     1       4.923   4.442  16.389  0.00  0.00    +0.000 C 
ATOM      6  C   UNL     1       6.346   4.692  15.917  0.00  0.00    +0.000 C 
ATOM      7  F   UNL     1       7.363   4.398  16.831  0.00  0.00    +0.000 F 
ENDROOT
BRANCH   1   8
ATOM      8  N   UNL     1       5.521   3.506  18.602  0.00  0.00    +0.000 NA
ATOM      9  H   UNL     1       6.266   3.222  17.958  0.00  0.00    +0.000 HD
ATOM     10  H   UNL     1       5.111   2.618  18.911  0.00  0.00    +0.000 HD
ENDBRANCH   1   8
BRANCH   1  11
ATOM     11  C   UNL     1       3.161   3.437  17.983  0.00  0.00    +0.000 C 
ATOM     12  O   UNL     1       2.763   2.883  18.996  0.00  0.00    +0.000 OA
BRANCH  11  13
ATOM     13  O   UNL     1       2.435   3.460  16.826  0.00  0.00    +0.000 OA
ATOM     14  H   UNL     1       1.515   3.717  17.068  0.00  0.00    +0.000 HD
ENDBRANCH  11  13
ENDBRANCH   1  11
BRANCH   6  15
ATOM     15  C   UNL     1       6.708   4.467  14.484  0.00  0.00    +0.000 C 
ATOM     16  O   UNL     1       7.314   5.282  13.808  0.00  0.00    +0.000 OA
BRANCH  15  17
ATOM     17  O   UNL     1       6.299   3.263  14.018  0.00  0.00    +0.000 OA
ATOM     18  H   UNL     1       5.324   3.223  13.956  0.00  0.00    +0.000 HD
ENDBRANCH  15  17
ENDBRANCH   6  15
BRANCH   2  19
ATOM     19  O   UNL     1       3.009   6.242  17.943  0.00  0.00    +0.000 OA
BRANCH  19  20
ATOM     20  C   UNL     1       3.008   7.657  17.763  0.00  0.00    +0.000 C 
BRANCH  20  21
ATOM     21  C   UNL     1       2.057   8.355  18.707  0.00  0.00    +0.000 A 
ATOM     22  C   UNL     1       1.952   7.900  20.032  0.00  0.00    +0.000 A 
ATOM     23  C   UNL     1       1.019   8.452  20.908  0.00  0.00    +0.000 A 
ATOM     24  C   UNL     1       0.165   9.459  20.469  0.00  0.00    +0.000 A 
ATOM     25  C   UNL     1       0.242   9.935  19.151  0.00  0.00    +0.000 A 
ATOM     26  C   UNL     1       1.199   9.379  18.279  0.00  0.00    +0.000 A 
BRANCH  25  27
ATOM     27  C   UNL     1      -0.699  11.010  18.665  0.00  0.00    +0.000 C 
ATOM     28  F   UNL     1      -0.072  12.185  18.371  0.00  0.00    +0.000 F 
ATOM     29  F   UNL     1      -1.370  10.656  17.536  0.00  0.00    +0.000 F 
ATOM     30  F   UNL     1      -1.650  11.326  19.587  0.00  0.00    +0.000 F 
ENDBRANCH  25  27
ENDBRANCH  20  21
ENDBRANCH  19  20
ENDBRANCH   2  19
TORSDOF 9
ENDMDL
MODEL 7
REMARK VINA RESULT:      -7.5      1.793      2.411
REMARK  Name = 
REMARK  9 active torsions:
REMARK  status: ('A' for Active; 'I' for Inactive)
REMARK    1  A    between atoms: N_1  and  C_2
REMARK    2  A    between atoms: C_2  and  C_3
REMARK    3  A    between atoms: C_3  and  O_5
REMARK    4  A    between atoms: C_6  and  O_7
REMARK    5  A    between atoms: O_7  and  C_8
REMARK    6  A    between atoms: C_8  and  C_9
REMARK    7  A    between atoms: C_13  and  C_14
REMARK    8  A    between atoms: C_22  and  C_24
REMARK    9  A    between atoms: C_24  and  O_26
REMARK                            x       y       z     vdW  Elec       q    Type
REMARK                         _______ _______ _______ _____ _____    ______ ____
ROOT
ATOM      1  C   UNL     1       4.418   4.676  18.585  0.00  0.00    +0.000 C 
ATOM      2  C   UNL     1       3.405   5.638  17.871  0.00  0.00    +0.000 C 
ATOM      3  C   UNL     1       2.042   4.998  18.215  0.00  0.00    +0.000 C 
ATOM      4  C   UNL     1       2.221   4.551  19.639  0.00  0.00    +0.000 C 
ATOM      5  C   UNL     1       3.694   4.288  19.864  0.00  0.00    +0.000 C 
ATOM      6  C   UNL     1       2.675   3.171  20.018  0.00  0.00    +0.000 C 
ATOM      7  F   UNL     1       2.637   2.221  18.994  0.00  0.00    +0.000 F 
ENDROOT
BRANCH   1   8
ATOM      8  N   UNL     1       4.706   3.456  17.762  0.00  0.00    +0.000 NA
ATOM      9  H   UNL     1       4.037   2.723  18.018  0.00  0.00    +0.000 HD
ATOM     10  H   UNL     1       5.611   3.082  18.066  0.00  0.00    +0.000 HD
ENDBRANCH   1   8
BRANCH   1  11
ATOM     11  C   UNL     1       5.777   5.385  18.808  0.00  0.00    +0.000 C 
ATOM     12  O   UNL     1       6.517   5.254  19.771  0.00  0.00    +0.000 OA
BRANCH  11  13
ATOM     13  O   UNL     1       6.100   6.164  17.733  0.00  0.00    +0.000 OA
ATOM     14  H   UNL     1       6.137   5.569  16.947  0.00  0.00    +0.000 HD
ENDBRANCH  11  13
ENDBRANCH   1  11
BRANCH   6  15
ATOM     15  C   UNL     1       2.349   2.641  21.377  0.00  0.00    +0.000 C 
ATOM     16  O   UNL     1       1.247   2.738  21.890  0.00  0.00    +0.000 OA
BRANCH  15  17
ATOM     17  O   UNL     1       3.403   2.036  21.975  0.00  0.00    +0.000 OA
ATOM     18  H   UNL     1       3.920   1.512  21.332  0.00  0.00    +0.000 HD
ENDBRANCH  15  17
ENDBRANCH   6  15
BRANCH   2  19
ATOM     19  O   UNL     1       3.490   6.967  18.414  0.00  0.00    +0.000 OA
BRANCH  19  20
ATOM     20  C   UNL     1       2.747   7.936  17.677  0.00  0.00    +0.000 C 
BRANCH  20  21
ATOM     21  C   UNL     1       1.757   8.681  18.542  0.00  0.00    +0.000 A 
ATOM     22  C   UNL     1       1.732   8.429  19.923  0.00  0.00    +0.000 A 
ATOM     23  C   UNL     1       0.773   9.021  20.744  0.00  0.00    +0.000 A 
ATOM     24  C   UNL     1      -0.186   9.866  20.193  0.00  0.00    +0.000 A 
ATOM     25  C   UNL     1      -0.190  10.137  18.816  0.00  0.00    +0.000 A 
ATOM     26  C   UNL     1       0.792   9.543  17.999  0.00  0.00    +0.000 A 
BRANCH  25  27
ATOM     27  C   UNL     1      -1.244  11.032  18.211  0.00  0.00    +0.000 C 
ATOM     28  F   UNL     1      -1.648  10.631  16.971  0.00  0.00    +0.000 F 
ATOM     29  F   UNL     1      -2.376  11.103  18.962  0.00  0.00    +0.000 F 
ATOM     30  F   UNL     1      -0.811  12.315  18.056  0.00  0.00    +0.000 F 
ENDBRANCH  25  27
ENDBRANCH  20  21
ENDBRANCH  19  20
ENDBRANCH   2  19
TORSDOF 9
ENDMDL
MODEL 8
REMARK VINA RESULT:      -7.5      2.674      4.304
REMARK  Name = 
REMARK  9 active torsions:
REMARK  status: ('A' for Active; 'I' for Inactive)
REMARK    1  A    between atoms: N_1  and  C_2
REMARK    2  A    between atoms: C_2  and  C_3
REMARK    3  A    between atoms: C_3  and  O_5
REMARK    4  A    between atoms: C_6  and  O_7
REMARK    5  A    between atoms: O_7  and  C_8
REMARK    6  A    between atoms: C_8  and  C_9
REMARK    7  A    between atoms: C_13  and  C_14
REMARK    8  A    between atoms: C_22  and  C_24
REMARK    9  A    between atoms: C_24  and  O_26
REMARK                            x       y       z     vdW  Elec       q    Type
REMARK                         _______ _______ _______ _____ _____    ______ ____
ROOT
ATOM      1  C   UNL     1       5.252   4.390  17.908  0.00  0.00    +0.000 C 
ATOM      2  C   UNL     1       4.802   5.840  18.305  0.00  0.00    +0.000 C 
ATOM      3  C   UNL     1       5.600   6.717  17.316  0.00  0.00    +0.000 C 
ATOM      4  C   UNL     1       5.551   5.928  16.038  0.00  0.00    +0.000 C 
ATOM      5  C   UNL     1       5.396   4.466  16.397  0.00  0.00    +0.000 C 
ATOM      6  C   UNL     1       6.615   4.950  15.632  0.00  0.00    +0.000 C 
ATOM      7  F   UNL     1       7.811   5.025  16.353  0.00  0.00    +0.000 F 
ENDROOT
BRANCH   1   8
ATOM      8  N   UNL     1       6.564   4.022  18.535  0.00  0.00    +0.000 NA
ATOM      9  H   UNL     1       7.294   4.066  17.817  0.00  0.00    +0.000 HD
ATOM     10  H   UNL     1       6.522   3.028  18.783  0.00  0.00    +0.000 HD
ENDBRANCH   1   8
BRANCH   1  11
ATOM     11  C   UNL     1       4.222   3.345  18.403  0.00  0.00    +0.000 C 
ATOM     12  O   UNL     1       4.198   2.809  19.500  0.00  0.00    +0.000 OA
BRANCH  11  13
ATOM     13  O   UNL     1       3.265   3.120  17.455  0.00  0.00    +0.000 OA
ATOM     14  H   UNL     1       3.243   2.148  17.293  0.00  0.00    +0.000 HD
ENDBRANCH  11  13
ENDBRANCH   1  11
BRANCH   6  15
ATOM     15  C   UNL     1       6.777   4.602  14.187  0.00  0.00    +0.000 C 
ATOM     16  O   UNL     1       7.337   5.325  13.379  0.00  0.00    +0.000 OA
BRANCH  15  17
ATOM     17  O   UNL     1       6.242   3.398  13.870  0.00  0.00    +0.000 OA
ATOM     18  H   UNL     1       6.472   2.724  14.540  0.00  0.00    +0.000 HD
ENDBRANCH  15  17
ENDBRANCH   6  15
BRANCH   2  19
ATOM     19  O   UNL     1       3.388   6.010  18.101  0.00  0.00    +0.000 OA
BRANCH  19  20
ATOM     20  C   UNL     1       2.639   6.083  19.314  0.00  0.00    +0.000 C 
BRANCH  20  21
ATOM     21  C   UNL     1       1.957   7.420  19.489  0.00  0.00    +0.000 A 
ATOM     22  C   UNL     1       2.000   8.351  18.438  0.00  0.00    +0.000 A 
ATOM     23  C   UNL     1       1.468   9.630  18.591  0.00  0.00    +0.000 A 
ATOM     24  C   UNL     1       0.897  10.004  19.803  0.00  0.00    +0.000 A 
ATOM     25  C   UNL     1       0.841   9.099  20.874  0.00  0.00    +0.000 A 
ATOM     26  C   UNL     1       1.369   7.804  20.703  0.00  0.00    +0.000 A 
BRANCH  25  27
ATOM     27  C   UNL     1       0.244   9.509  22.198  0.00  0.00    +0.000 C 
ATOM     28  F   UNL     1      -0.848   8.772  22.551  0.00  0.00    +0.000 F 
ATOM     29  F   UNL     1       1.118   9.391  23.234  0.00  0.00    +0.000 F 
ATOM     30  F   UNL     1      -0.175  10.805  22.202  0.00  0.00    +0.000 F 
ENDBRANCH  25  27
ENDBRANCH  20  21
ENDBRANCH  19  20
ENDBRANCH   2  19
TORSDOF 9
ENDMDL
MODEL 9
REMARK VINA RESULT:      -7.4      2.717      4.314
REMARK  Name = 
REMARK  9 active torsions:
REMARK  status: ('A' for Active; 'I' for Inactive)
REMARK    1  A    between atoms: N_1  and  C_2
REMARK    2  A    between atoms: C_2  and  C_3
REMARK    3  A    between atoms: C_3  and  O_5
REMARK    4  A    between atoms: C_6  and  O_7
REMARK    5  A    between atoms: O_7  and  C_8
REMARK    6  A    between atoms: C_8  and  C_9
REMARK    7  A    between atoms: C_13  and  C_14
REMARK    8  A    between atoms: C_22  and  C_24
REMARK    9  A    between atoms: C_24  and  O_26
REMARK                            x       y       z     vdW  Elec       q    Type
REMARK                         _______ _______ _______ _____ _____    ______ ____
ROOT
ATOM      1  C   UNL     1       5.199   4.346  17.951  0.00  0.00    +0.000 C 
ATOM      2  C   UNL     1       4.756   5.790  18.377  0.00  0.00    +0.000 C 
ATOM      3  C   UNL     1       5.513   6.681  17.368  0.00  0.00    +0.000 C 
ATOM      4  C   UNL     1       5.420   5.903  16.085  0.00  0.00    +0.000 C 
ATOM      5  C   UNL     1       5.286   4.437  16.437  0.00  0.00    +0.000 C 
ATOM      6  C   UNL     1       6.474   4.935  15.631  0.00  0.00    +0.000 C 
ATOM      7  F   UNL     1       7.695   5.010  16.307  0.00  0.00    +0.000 F 
ENDROOT
BRANCH   1   8
ATOM      8  N   UNL     1       6.535   3.981  18.525  0.00  0.00    +0.000 NA
ATOM      9  H   UNL     1       7.221   3.947  17.764  0.00  0.00    +0.000 HD
ATOM     10  H   UNL     1       6.479   3.009  18.849  0.00  0.00    +0.000 HD
ENDBRANCH   1   8
BRANCH   1  11
ATOM     11  C   UNL     1       4.194   3.291  18.474  0.00  0.00    +0.000 C 
ATOM     12  O   UNL     1       4.234   2.720  19.553  0.00  0.00    +0.000 OA
BRANCH  11  13
ATOM     13  O   UNL     1       3.178   3.103  17.580  0.00  0.00    +0.000 OA
ATOM     14  H   UNL     1       2.345   3.033  18.103  0.00  0.00    +0.000 HD
ENDBRANCH  11  13
ENDBRANCH   1  11
BRANCH   6  15
ATOM     15  C   UNL     1       6.583   4.600  14.177  0.00  0.00    +0.000 C 
ATOM     16  O   UNL     1       5.899   3.753  13.629  0.00  0.00    +0.000 OA
BRANCH  15  17
ATOM     17  O   UNL     1       7.517   5.341  13.534  0.00  0.00    +0.000 OA
ATOM     18  H   UNL     1       8.116   4.774  13.009  0.00  0.00    +0.000 HD
ENDBRANCH  15  17
ENDBRANCH   6  15
BRANCH   2  19
ATOM     19  O   UNL     1       3.335   5.955  18.228  0.00  0.00    +0.000 OA
BRANCH  19  20
ATOM     20  C   UNL     1       2.690   6.450  19.401  0.00  0.00    +0.000 C 
BRANCH  20  21
ATOM     21  C   UNL     1       2.044   7.797  19.175  0.00  0.00    +0.000 A 
ATOM     22  C   UNL     1       2.328   8.501  17.993  0.00  0.00    +0.000 A 
ATOM     23  C   UNL     1       1.832   9.787  17.787  0.00  0.00    +0.000 A 
ATOM     24  C   UNL     1       1.054  10.397  18.768  0.00  0.00    +0.000 A 
ATOM     25  C   UNL     1       0.755   9.722  19.961  0.00  0.00    +0.000 A 
ATOM     26  C   UNL     1       1.250   8.417  20.152  0.00  0.00    +0.000 A 
BRANCH  25  27
ATOM     27  C   UNL     1      -0.067  10.389  21.037  0.00  0.00    +0.000 C 
ATOM     28  F   UNL     1       0.601  11.385  21.688  0.00  0.00    +0.000 F 
ATOM     29  F   UNL     1      -1.205  10.960  20.558  0.00  0.00    +0.000 F 
ATOM     30  F   UNL     1      -0.460   9.518  22.007  0.00  0.00    +0.000 F 
ENDBRANCH  25  27
ENDBRANCH  20  21
ENDBRANCH  19  20
ENDBRANCH   2  19
TORSDOF 9
ENDMDL
