MODEL 1
REMARK VINA RESULT:      -6.2      0.000      0.000
REMARK  Name = 
REMARK  11 active torsions:
REMARK  status: ('A' for Active; 'I' for Inactive)
REMARK    1  A    between atoms: C_1  and  O_2
REMARK    2  A    between atoms: O_2  and  C_3
REMARK    3  A    between atoms: C_5  and  C_6
REMARK    4  A    between atoms: C_6  and  O_7
REMARK    5  A    between atoms: C_10  and  O_11
REMARK    6  A    between atoms: O_11  and  C_12
REMARK    7  A    between atoms: C_14  and  C_15
REMARK    8  A    between atoms: C_15  and  O_16
REMARK    9  A    between atoms: C_17  and  O_18
REMARK   10  A    between atoms: C_19  and  O_20
REMARK   11  A    between atoms: C_21  and  O_22
REMARK                            x       y       z     vdW  Elec       q    Type
REMARK                         _______ _______ _______ _____ _____    ______ ____
ROOT
ATOM      1  C   UNL     1       5.793   4.322  15.169  0.00  0.00    +0.000 C 
ATOM      2  O   UNL     1       5.603   3.303  14.185  0.00  0.00    +0.000 OA
ATOM      3  C   UNL     1       5.781   3.762  12.837  0.00  0.00    +0.000 C 
ATOM      4  C   UNL     1       7.197   4.311  12.619  0.00  0.00    +0.000 C 
ATOM      5  C   UNL     1       7.492   5.411  13.653  0.00  0.00    +0.000 C 
ATOM      6  C   UNL     1       7.215   4.921  15.079  0.00  0.00    +0.000 C 
ENDROOT
BRANCH   4   7
ATOM      7  O   UNL     1       7.324   4.817  11.287  0.00  0.00    +0.000 OA
ATOM      8  H   UNL     1       8.163   5.302  11.203  0.00  0.00    +0.000 HD
ENDBRANCH   4   7
BRANCH   5   9
ATOM      9  O   UNL     1       8.837   5.879  13.517  0.00  0.00    +0.000 OA
ATOM     10  H   UNL     1       9.437   5.181  13.828  0.00  0.00    +0.000 HD
ENDBRANCH   5   9
BRANCH   6  11
ATOM     11  O   UNL     1       7.390   5.998  16.018  0.00  0.00    +0.000 OA
ATOM     12  H   UNL     1       6.578   6.098  16.540  0.00  0.00    +0.000 HD
ENDBRANCH   6  11
BRANCH   1  13
ATOM     13  O   UNL     1       5.681   3.753  16.476  0.00  0.00    +0.000 OA
BRANCH  13  19
ATOM     14  C   UNL     1       4.761   5.114  18.189  0.00  0.00    +0.000 A 
ATOM     15  C   UNL     1       3.728   5.389  19.098  0.00  0.00    +0.000 A 
ATOM     16  C   UNL     1       2.530   4.666  19.079  0.00  0.00    +0.000 A 
ATOM     17  C   UNL     1       2.369   3.663  18.118  0.00  0.00    +0.000 A 
ATOM     18  C   UNL     1       3.400   3.366  17.218  0.00  0.00    +0.000 A 
ATOM     19  C   UNL     1       4.604   4.082  17.249  0.00  0.00    +0.000 A 
BRANCH  14  21
ATOM     20  C   UNL     1       6.782   5.450  19.409  0.00  0.00    +0.000 C 
ATOM     21  O   UNL     1       5.881   5.880  18.396  0.00  0.00    +0.000 OA
ENDBRANCH  14  21
BRANCH  16  22
ATOM     22  C   UNL     1       1.469   4.905  20.117  0.00  0.00    +0.000 C 
BRANCH  22  23
ATOM     23  O   UNL     1       0.604   3.784  20.215  0.00  0.00    +0.000 OA
ATOM     24  H   UNL     1      -0.219   4.030  19.757  0.00  0.00    +0.000 HD
ENDBRANCH  22  23
ENDBRANCH  16  22
ENDBRANCH  13  19
ENDBRANCH   1  13
BRANCH   3  25
ATOM     25  C   UNL     1       5.488   2.579  11.905  0.00  0.00    +0.000 C 
BRANCH  25  26
ATOM     26  O   UNL     1       6.694   1.891  11.566  0.00  0.00    +0.000 OA
ATOM     27  H   UNL     1       7.415   2.520  11.736  0.00  0.00    +0.000 HD
ENDBRANCH  25  26
ENDBRANCH   3  25
TORSDOF 10
ENDMDL
MODEL 2
REMARK VINA RESULT:      -6.2      2.105      6.696
REMARK  Name = 
REMARK  11 active torsions:
REMARK  status: ('A' for Active; 'I' for Inactive)
REMARK    1  A    between atoms: C_1  and  O_2
REMARK    2  A    between atoms: O_2  and  C_3
REMARK    3  A    between atoms: C_5  and  C_6
REMARK    4  A    between atoms: C_6  and  O_7
REMARK    5  A    between atoms: C_10  and  O_11
REMARK    6  A    between atoms: O_11  and  C_12
REMARK    7  A    between atoms: C_14  and  C_15
REMARK    8  A    between atoms: C_15  and  O_16
REMARK    9  A    between atoms: C_17  and  O_18
REMARK   10  A    between atoms: C_19  and  O_20
REMARK   11  A    between atoms: C_21  and  O_22
REMARK                            x       y       z     vdW  Elec       q    Type
REMARK                         _______ _______ _______ _____ _____    ______ ____
ROOT
ATOM      1  C   UNL     1       4.264   5.112  19.587  0.00  0.00    +0.000 C 
ATOM      2  O   UNL     1       4.310   3.823  18.972  0.00  0.00    +0.000 OA
ATOM      3  C   UNL     1       3.574   2.817  19.682  0.00  0.00    +0.000 C 
ATOM      4  C   UNL     1       2.089   3.187  19.790  0.00  0.00    +0.000 C 
ATOM      5  C   UNL     1       1.947   4.577  20.434  0.00  0.00    +0.000 C 
ATOM      6  C   UNL     1       2.808   5.617  19.706  0.00  0.00    +0.000 C 
ENDROOT
BRANCH   4   7
ATOM      7  O   UNL     1       1.395   2.199  20.556  0.00  0.00    +0.000 OA
ATOM      8  H   UNL     1       1.850   1.343  20.470  0.00  0.00    +0.000 HD
ENDBRANCH   4   7
BRANCH   5   9
ATOM      9  O   UNL     1       0.573   4.975  20.470  0.00  0.00    +0.000 OA
ATOM     10  H   UNL     1       0.250   5.044  19.557  0.00  0.00    +0.000 HD
ENDBRANCH   5   9
BRANCH   6  11
ATOM     11  O   UNL     1       2.746   6.881  20.391  0.00  0.00    +0.000 OA
ATOM     12  H   UNL     1       1.988   7.387  20.056  0.00  0.00    +0.000 HD
ENDBRANCH   6  11
BRANCH   1  13
ATOM     13  O   UNL     1       4.950   6.061  18.765  0.00  0.00    +0.000 OA
BRANCH  13  19
ATOM     14  C   UNL     1       6.676   5.022  17.511  0.00  0.00    +0.000 A 
ATOM     15  C   UNL     1       7.266   4.719  16.275  0.00  0.00    +0.000 A 
ATOM     16  C   UNL     1       6.624   5.024  15.069  0.00  0.00    +0.000 A 
ATOM     17  C   UNL     1       5.363   5.627  15.117  0.00  0.00    +0.000 A 
ATOM     18  C   UNL     1       4.773   5.951  16.344  0.00  0.00    +0.000 A 
ATOM     19  C   UNL     1       5.425   5.658  17.549  0.00  0.00    +0.000 A 
BRANCH  14  21
ATOM     20  C   UNL     1       8.067   5.790  19.290  0.00  0.00    +0.000 C 
ATOM     21  O   UNL     1       7.476   4.707  18.583  0.00  0.00    +0.000 OA
ENDBRANCH  14  21
BRANCH  16  22
ATOM     22  C   UNL     1       7.304   4.782  13.751  0.00  0.00    +0.000 C 
BRANCH  22  23
ATOM     23  O   UNL     1       8.323   5.746  13.530  0.00  0.00    +0.000 OA
ATOM     24  H   UNL     1       7.926   6.615  13.717  0.00  0.00    +0.000 HD
ENDBRANCH  22  23
ENDBRANCH  16  22
ENDBRANCH  13  19
ENDBRANCH   1  13
BRANCH   3  25
ATOM     25  C   UNL     1       3.768   1.491  18.935  0.00  0.00    +0.000 C 
BRANCH  25  26
ATOM     26  O   UNL     1       2.755   1.316  17.942  0.00  0.00    +0.000 OA
ATOM     27  H   UNL     1       2.502   0.378  17.983  0.00  0.00    +0.000 HD
ENDBRANCH  25  26
ENDBRANCH   3  25
TORSDOF 10
ENDMDL
MODEL 3
REMARK VINA RESULT:      -6.1      2.021      7.201
REMARK  Name = 
REMARK  11 active torsions:
REMARK  status: ('A' for Active; 'I' for Inactive)
REMARK    1  A    between atoms: C_1  and  O_2
REMARK    2  A    between atoms: O_2  and  C_3
REMARK    3  A    between atoms: C_5  and  C_6
REMARK    4  A    between atoms: C_6  and  O_7
REMARK    5  A    between atoms: C_10  and  O_11
REMARK    6  A    between atoms: O_11  and  C_12
REMARK    7  A    between atoms: C_14  and  C_15
REMARK    8  A    between atoms: C_15  and  O_16
REMARK    9  A    between atoms: C_17  and  O_18
REMARK   10  A    between atoms: C_19  and  O_20
REMARK   11  A    between atoms: C_21  and  O_22
REMARK                            x       y       z     vdW  Elec       q    Type
REMARK                         _______ _______ _______ _____ _____    ______ ____
ROOT
ATOM      1  C   UNL     1       4.193   4.176  18.490  0.00  0.00    +0.000 C 
ATOM      2  O   UNL     1       3.829   5.484  18.935  0.00  0.00    +0.000 OA
ATOM      3  C   UNL     1       2.435   5.622  19.245  0.00  0.00    +0.000 C 
ATOM      4  C   UNL     1       2.014   4.657  20.361  0.00  0.00    +0.000 C 
ATOM      5  C   UNL     1       2.385   3.216  19.967  0.00  0.00    +0.000 C 
ATOM      6  C   UNL     1       3.860   3.113  19.562  0.00  0.00    +0.000 C 
ENDROOT
BRANCH   4   7
ATOM      7  O   UNL     1       0.609   4.773  20.602  0.00  0.00    +0.000 OA
ATOM      8  H   UNL     1       0.346   5.708  20.540  0.00  0.00    +0.000 HD
ENDBRANCH   4   7
BRANCH   5   9
ATOM      9  O   UNL     1       2.073   2.310  21.029  0.00  0.00    +0.000 OA
ATOM     10  H   UNL     1       2.728   2.431  21.736  0.00  0.00    +0.000 HD
ENDBRANCH   5   9
BRANCH   6  11
ATOM     11  O   UNL     1       4.155   1.785  19.092  0.00  0.00    +0.000 OA
ATOM     12  H   UNL     1       3.348   1.393  18.721  0.00  0.00    +0.000 HD
ENDBRANCH   6  11
BRANCH   1  13
ATOM     13  O   UNL     1       5.608   4.113  18.291  0.00  0.00    +0.000 OA
BRANCH  13  19
ATOM     14  C   UNL     1       7.203   5.062  16.812  0.00  0.00    +0.000 A 
ATOM     15  C   UNL     1       7.653   5.308  15.506  0.00  0.00    +0.000 A 
ATOM     16  C   UNL     1       7.034   4.714  14.400  0.00  0.00    +0.000 A 
ATOM     17  C   UNL     1       5.959   3.848  14.620  0.00  0.00    +0.000 A 
ATOM     18  C   UNL     1       5.489   3.610  15.918  0.00  0.00    +0.000 A 
ATOM     19  C   UNL     1       6.101   4.218  17.022  0.00  0.00    +0.000 A 
BRANCH  14  21
ATOM     20  C   UNL     1       7.606   7.167  17.859  0.00  0.00    +0.000 C 
ATOM     21  O   UNL     1       7.890   5.776  17.764  0.00  0.00    +0.000 OA
ENDBRANCH  14  21
BRANCH  16  22
ATOM     22  C   UNL     1       7.462   5.058  13.001  0.00  0.00    +0.000 C 
BRANCH  22  23
ATOM     23  O   UNL     1       8.587   5.923  13.021  0.00  0.00    +0.000 OA
ATOM     24  H   UNL     1       9.158   5.617  13.747  0.00  0.00    +0.000 HD
ENDBRANCH  22  23
ENDBRANCH  16  22
ENDBRANCH  13  19
ENDBRANCH   1  13
BRANCH   3  25
ATOM     25  C   UNL     1       2.195   7.083  19.647  0.00  0.00    +0.000 C 
BRANCH  25  26
ATOM     26  O   UNL     1       1.905   7.183  21.043  0.00  0.00    +0.000 OA
ATOM     27  H   UNL     1       2.767   7.218  21.491  0.00  0.00    +0.000 HD
ENDBRANCH  25  26
ENDBRANCH   3  25
TORSDOF 10
ENDMDL
MODEL 4
REMARK VINA RESULT:      -6.1      4.201      7.108
REMARK  Name = 
REMARK  11 active torsions:
REMARK  status: ('A' for Active; 'I' for Inactive)
REMARK    1  A    between atoms: C_1  and  O_2
REMARK    2  A    between atoms: O_2  and  C_3
REMARK    3  A    between atoms: C_5  and  C_6
REMARK    4  A    between atoms: C_6  and  O_7
REMARK    5  A    between atoms: C_10  and  O_11
REMARK    6  A    between atoms: O_11  and  C_12
REMARK    7  A    between atoms: C_14  and  C_15
REMARK    8  A    between atoms: C_15  and  O_16
REMARK    9  A    between atoms: C_17  and  O_18
REMARK   10  A    between atoms: C_19  and  O_20
REMARK   11  A    between atoms: C_21  and  O_22
REMARK                            x       y       z     vdW  Elec       q    Type
REMARK                         _______ _______ _______ _____ _____    ______ ____
ROOT
ATOM      1  C   UNL     1       2.539   5.984  19.328  0.00  0.00    +0.000 C 
ATOM      2  O   UNL     1       2.143   5.147  20.418  0.00  0.00    +0.000 OA
ATOM      3  C   UNL     1       1.964   3.771  20.053  0.00  0.00    +0.000 C 
ATOM      4  C   UNL     1       3.262   3.168  19.500  0.00  0.00    +0.000 C 
ATOM      5  C   UNL     1       3.769   4.021  18.324  0.00  0.00    +0.000 C 
ATOM      6  C   UNL     1       3.874   5.500  18.715  0.00  0.00    +0.000 C 
ENDROOT
BRANCH   4   7
ATOM      7  O   UNL     1       3.035   1.817  19.088  0.00  0.00    +0.000 OA
ATOM      8  H   UNL     1       2.107   1.713  18.816  0.00  0.00    +0.000 HD
ENDBRANCH   4   7
BRANCH   5   9
ATOM      9  O   UNL     1       5.021   3.521  17.846  0.00  0.00    +0.000 OA
ATOM     10  H   UNL     1       5.728   3.878  18.407  0.00  0.00    +0.000 HD
ENDBRANCH   5   9
BRANCH   6  11
ATOM     11  O   UNL     1       4.241   6.292  17.571  0.00  0.00    +0.000 OA
ATOM     12  H   UNL     1       3.442   6.500  17.059  0.00  0.00    +0.000 HD
ENDBRANCH   6  11
BRANCH   1  13
ATOM     13  O   UNL     1       2.776   7.311  19.804  0.00  0.00    +0.000 OA
BRANCH  13  19
ATOM     14  C   UNL     1       1.117   8.862  20.493  0.00  0.00    +0.000 A 
ATOM     15  C   UNL     1       0.103   9.777  20.174  0.00  0.00    +0.000 A 
ATOM     16  C   UNL     1      -0.143  10.158  18.849  0.00  0.00    +0.000 A 
ATOM     17  C   UNL     1       0.659   9.619  17.839  0.00  0.00    +0.000 A 
ATOM     18  C   UNL     1       1.662   8.690  18.143  0.00  0.00    +0.000 A 
ATOM     19  C   UNL     1       1.895   8.299  19.468  0.00  0.00    +0.000 A 
BRANCH  14  21
ATOM     20  C   UNL     1       0.357   9.336  22.703  0.00  0.00    +0.000 C 
ATOM     21  O   UNL     1       1.171   8.561  21.832  0.00  0.00    +0.000 OA
ENDBRANCH  14  21
BRANCH  16  22
ATOM     22  C   UNL     1      -1.292  11.065  18.509  0.00  0.00    +0.000 C 
BRANCH  22  23
ATOM     23  O   UNL     1      -1.414  11.211  17.103  0.00  0.00    +0.000 OA
ATOM     24  H   UNL     1      -1.950  10.461  16.792  0.00  0.00    +0.000 HD
ENDBRANCH  22  23
ENDBRANCH  16  22
ENDBRANCH  13  19
ENDBRANCH   1  13
BRANCH   3  25
ATOM     25  C   UNL     1       1.488   3.022  21.305  0.00  0.00    +0.000 C 
BRANCH  25  26
ATOM     26  O   UNL     1       2.601   2.565  22.076  0.00  0.00    +0.000 OA
ATOM     27  H   UNL     1       3.121   2.000  21.481  0.00  0.00    +0.000 HD
ENDBRANCH  25  26
ENDBRANCH   3  25
TORSDOF 10
ENDMDL
MODEL 5
REMARK VINA RESULT:      -6.1      2.204      6.450
REMARK  Name = 
REMARK  11 active torsions:
REMARK  status: ('A' for Active; 'I' for Inactive)
REMARK    1  A    between atoms: C_1  and  O_2
REMARK    2  A    between atoms: O_2  and  C_3
REMARK    3  A    between atoms: C_5  and  C_6
REMARK    4  A    between atoms: C_6  and  O_7
REMARK    5  A    between atoms: C_10  and  O_11
REMARK    6  A    between atoms: O_11  and  C_12
REMARK    7  A    between atoms: C_14  and  C_15
REMARK    8  A    between atoms: C_15  and  O_16
REMARK    9  A    between atoms: C_17  and  O_18
REMARK   10  A    between atoms: C_19  and  O_20
REMARK   11  A    between atoms: C_21  and  O_22
REMARK                            x       y       z     vdW  Elec       q    Type
REMARK                         _______ _______ _______ _____ _____    ______ ____
ROOT
ATOM      1  C   UNL     1       4.054   4.938  19.111  0.00  0.00    +0.000 C 
ATOM      2  O   UNL     1       4.638   3.639  19.233  0.00  0.00    +0.000 OA
ATOM      3  C   UNL     1       3.736   2.645  19.741  0.00  0.00    +0.000 C 
ATOM      4  C   UNL     1       2.516   2.482  18.825  0.00  0.00    +0.000 C 
ATOM      5  C   UNL     1       1.830   3.845  18.627  0.00  0.00    +0.000 C 
ATOM      6  C   UNL     1       2.833   4.908  18.163  0.00  0.00    +0.000 C 
ENDROOT
BRANCH   4   7
ATOM      7  O   UNL     1       1.607   1.532  19.389  0.00  0.00    +0.000 OA
ATOM      8  H   UNL     1       1.280   0.941  18.688  0.00  0.00    +0.000 HD
ENDBRANCH   4   7
BRANCH   5   9
ATOM      9  O   UNL     1       0.737   3.728  17.711  0.00  0.00    +0.000 OA
ATOM     10  H   UNL     1       0.732   2.824  17.354  0.00  0.00    +0.000 HD
ENDBRANCH   5   9
BRANCH   6  11
ATOM     11  O   UNL     1       2.194   6.196  18.092  0.00  0.00    +0.000 OA
ATOM     12  H   UNL     1       2.280   6.641  18.952  0.00  0.00    +0.000 HD
ENDBRANCH   6  11
BRANCH   1  13
ATOM     13  O   UNL     1       4.998   5.835  18.519  0.00  0.00    +0.000 OA
BRANCH  13  19
ATOM     14  C   UNL     1       6.830   4.949  17.299  0.00  0.00    +0.000 A 
ATOM     15  C   UNL     1       7.485   4.734  16.077  0.00  0.00    +0.000 A 
ATOM     16  C   UNL     1       6.876   5.056  14.858  0.00  0.00    +0.000 A 
ATOM     17  C   UNL     1       5.582   5.585  14.877  0.00  0.00    +0.000 A 
ATOM     18  C   UNL     1       4.925   5.822  16.091  0.00  0.00    +0.000 A 
ATOM     19  C   UNL     1       5.544   5.513  17.309  0.00  0.00    +0.000 A 
BRANCH  14  21
ATOM     20  C   UNL     1       8.067   5.713  19.189  0.00  0.00    +0.000 C 
ATOM     21  O   UNL     1       7.603   4.633  18.389  0.00  0.00    +0.000 OA
ENDBRANCH  14  21
BRANCH  16  22
ATOM     22  C   UNL     1       7.622   4.910  13.561  0.00  0.00    +0.000 C 
BRANCH  22  23
ATOM     23  O   UNL     1       8.623   5.910  13.446  0.00  0.00    +0.000 OA
ATOM     24  H   UNL     1       8.886   6.144  14.354  0.00  0.00    +0.000 HD
ENDBRANCH  22  23
ENDBRANCH  16  22
ENDBRANCH  13  19
ENDBRANCH   1  13
BRANCH   3  25
ATOM     25  C   UNL     1       4.521   1.334  19.868  0.00  0.00    +0.000 C 
BRANCH  25  26
ATOM     26  O   UNL     1       4.432   0.571  18.663  0.00  0.00    +0.000 OA
ATOM     27  H   UNL     1       5.343   0.306  18.449  0.00  0.00    +0.000 HD
ENDBRANCH  25  26
ENDBRANCH   3  25
TORSDOF 10
ENDMDL
MODEL 6
REMARK VINA RESULT:      -6.1      3.938      6.556
REMARK  Name = 
REMARK  11 active torsions:
REMARK  status: ('A' for Active; 'I' for Inactive)
REMARK    1  A    between atoms: C_1  and  O_2
REMARK    2  A    between atoms: O_2  and  C_3
REMARK    3  A    between atoms: C_5  and  C_6
REMARK    4  A    between atoms: C_6  and  O_7
REMARK    5  A    between atoms: C_10  and  O_11
REMARK    6  A    between atoms: O_11  and  C_12
REMARK    7  A    between atoms: C_14  and  C_15
REMARK    8  A    between atoms: C_15  and  O_16
REMARK    9  A    between atoms: C_17  and  O_18
REMARK   10  A    between atoms: C_19  and  O_20
REMARK   11  A    between atoms: C_21  and  O_22
REMARK                            x       y       z     vdW  Elec       q    Type
REMARK                         _______ _______ _______ _____ _____    ______ ____
ROOT
ATOM      1  C   UNL     1       2.655   5.861  18.852  0.00  0.00    +0.000 C 
ATOM      2  O   UNL     1       1.826   4.840  19.412  0.00  0.00    +0.000 OA
ATOM      3  C   UNL     1       1.799   3.630  18.642  0.00  0.00    +0.000 C 
ATOM      4  C   UNL     1       3.201   3.021  18.514  0.00  0.00    +0.000 C 
ATOM      5  C   UNL     1       4.168   4.064  17.927  0.00  0.00    +0.000 C 
ATOM      6  C   UNL     1       4.117   5.376  18.719  0.00  0.00    +0.000 C 
ENDROOT
BRANCH   4   7
ATOM      7  O   UNL     1       3.152   1.853  17.690  0.00  0.00    +0.000 OA
ATOM      8  H   UNL     1       3.988   1.766  17.200  0.00  0.00    +0.000 HD
ENDBRANCH   4   7
BRANCH   5   9
ATOM      9  O   UNL     1       5.499   3.541  17.875  0.00  0.00    +0.000 OA
ATOM     10  H   UNL     1       5.456   2.627  17.549  0.00  0.00    +0.000 HD
ENDBRANCH   5   9
BRANCH   6  11
ATOM     11  O   UNL     1       4.943   6.371  18.087  0.00  0.00    +0.000 OA
ATOM     12  H   UNL     1       5.783   5.962  17.819  0.00  0.00    +0.000 HD
ENDBRANCH   6  11
BRANCH   1  13
ATOM     13  O   UNL     1       2.686   6.990  19.729  0.00  0.00    +0.000 OA
BRANCH  13  19
ATOM     14  C   UNL     1       1.260   8.752  20.431  0.00  0.00    +0.000 A 
ATOM     15  C   UNL     1       0.391   9.808  20.120  0.00  0.00    +0.000 A 
ATOM     16  C   UNL     1       0.215  10.240  18.800  0.00  0.00    +0.000 A 
ATOM     17  C   UNL     1       0.940   9.606  17.787  0.00  0.00    +0.000 A 
ATOM     18  C   UNL     1       1.797   8.539  18.083  0.00  0.00    +0.000 A 
ATOM     19  C   UNL     1       1.959   8.099  19.403  0.00  0.00    +0.000 A 
BRANCH  14  21
ATOM     20  C   UNL     1       0.526   9.278  22.639  0.00  0.00    +0.000 C 
ATOM     21  O   UNL     1       1.259   8.426  21.766  0.00  0.00    +0.000 OA
ENDBRANCH  14  21
BRANCH  16  22
ATOM     22  C   UNL     1      -0.789  11.308  18.466  0.00  0.00    +0.000 C 
BRANCH  22  23
ATOM     23  O   UNL     1      -1.422  11.029  17.226  0.00  0.00    +0.000 OA
ATOM     24  H   UNL     1      -1.012  11.618  16.569  0.00  0.00    +0.000 HD
ENDBRANCH  22  23
ENDBRANCH  16  22
ENDBRANCH  13  19
ENDBRANCH   1  13
BRANCH   3  25
ATOM     25  C   UNL     1       0.830   2.664  19.336  0.00  0.00    +0.000 C 
BRANCH  25  26
ATOM     26  O   UNL     1       0.276   1.740  18.396  0.00  0.00    +0.000 OA
ATOM     27  H   UNL     1       0.430   0.857  18.771  0.00  0.00    +0.000 HD
ENDBRANCH  25  26
ENDBRANCH   3  25
TORSDOF 10
ENDMDL
MODEL 7
REMARK VINA RESULT:      -6.1      2.563      4.125
REMARK  Name = 
REMARK  11 active torsions:
REMARK  status: ('A' for Active; 'I' for Inactive)
REMARK    1  A    between atoms: C_1  and  O_2
REMARK    2  A    between atoms: O_2  and  C_3
REMARK    3  A    between atoms: C_5  and  C_6
REMARK    4  A    between atoms: C_6  and  O_7
REMARK    5  A    between atoms: C_10  and  O_11
REMARK    6  A    between atoms: O_11  and  C_12
REMARK    7  A    between atoms: C_14  and  C_15
REMARK    8  A    between atoms: C_15  and  O_16
REMARK    9  A    between atoms: C_17  and  O_18
REMARK   10  A    between atoms: C_19  and  O_20
REMARK   11  A    between atoms: C_21  and  O_22
REMARK                            x       y       z     vdW  Elec       q    Type
REMARK                         _______ _______ _______ _____ _____    ______ ____
ROOT
ATOM      1  C   UNL     1       4.522   5.578  17.545  0.00  0.00    +0.000 C 
ATOM      2  O   UNL     1       4.434   4.993  16.243  0.00  0.00    +0.000 OA
ATOM      3  C   UNL     1       5.644   5.100  15.479  0.00  0.00    +0.000 C 
ATOM      4  C   UNL     1       6.812   4.400  16.185  0.00  0.00    +0.000 C 
ATOM      5  C   UNL     1       6.970   4.963  17.609  0.00  0.00    +0.000 C 
ATOM      6  C   UNL     1       5.643   4.912  18.376  0.00  0.00    +0.000 C 
ENDROOT
BRANCH   4   7
ATOM      7  O   UNL     1       8.014   4.577  15.432  0.00  0.00    +0.000 OA
ATOM      8  H   UNL     1       7.987   5.436  14.976  0.00  0.00    +0.000 HD
ENDBRANCH   4   7
BRANCH   5   9
ATOM      9  O   UNL     1       8.003   4.266  18.312  0.00  0.00    +0.000 OA
ATOM     10  H   UNL     1       8.760   4.865  18.417  0.00  0.00    +0.000 HD
ENDBRANCH   5   9
BRANCH   6  11
ATOM     11  O   UNL     1       5.788   5.545  19.661  0.00  0.00    +0.000 OA
ATOM     12  H   UNL     1       5.261   6.361  19.674  0.00  0.00    +0.000 HD
ENDBRANCH   6  11
BRANCH   1  13
ATOM     13  O   UNL     1       3.305   5.346  18.258  0.00  0.00    +0.000 OA
BRANCH  13  19
ATOM     14  C   UNL     1       2.204   6.125  20.211  0.00  0.00    +0.000 A 
ATOM     15  C   UNL     1       1.481   7.124  20.881  0.00  0.00    +0.000 A 
ATOM     16  C   UNL     1       1.283   8.386  20.310  0.00  0.00    +0.000 A 
ATOM     17  C   UNL     1       1.838   8.646  19.053  0.00  0.00    +0.000 A 
ATOM     18  C   UNL     1       2.545   7.651  18.366  0.00  0.00    +0.000 A 
ATOM     19  C   UNL     1       2.729   6.384  18.935  0.00  0.00    +0.000 A 
BRANCH  14  21
ATOM     20  C   UNL     1       1.173   4.025  20.674  0.00  0.00    +0.000 C 
ATOM     21  O   UNL     1       2.244   4.935  20.896  0.00  0.00    +0.000 OA
ENDBRANCH  14  21
BRANCH  16  22
ATOM     22  C   UNL     1       0.427   9.416  20.994  0.00  0.00    +0.000 C 
BRANCH  22  23
ATOM     23  O   UNL     1       1.146  10.046  22.043  0.00  0.00    +0.000 OA
ATOM     24  H   UNL     1       1.339   9.353  22.700  0.00  0.00    +0.000 HD
ENDBRANCH  22  23
ENDBRANCH  16  22
ENDBRANCH  13  19
ENDBRANCH   1  13
BRANCH   3  25
ATOM     25  C   UNL     1       5.373   4.485  14.100  0.00  0.00    +0.000 C 
BRANCH  25  26
ATOM     26  O   UNL     1       6.181   3.324  13.896  0.00  0.00    +0.000 OA
ATOM     27  H   UNL     1       6.960   3.627  13.400  0.00  0.00    +0.000 HD
ENDBRANCH  25  26
ENDBRANCH   3  25
TORSDOF 10
ENDMDL
MODEL 8
REMARK VINA RESULT:      -6.0      2.850      5.101
REMARK  Name = 
REMARK  11 active torsions:
REMARK  status: ('A' for Active; 'I' for Inactive)
REMARK    1  A    between atoms: C_1  and  O_2
REMARK    2  A    between atoms: O_2  and  C_3
REMARK    3  A    between atoms: C_5  and  C_6
REMARK    4  A    between atoms: C_6  and  O_7
REMARK    5  A    between atoms: C_10  and  O_11
REMARK    6  A    between atoms: O_11  and  C_12
REMARK    7  A    between atoms: C_14  and  C_15
REMARK    8  A    between atoms: C_15  and  O_16
REMARK    9  A    between atoms: C_17  and  O_18
REMARK   10  A    between atoms: C_19  and  O_20
REMARK   11  A    between atoms: C_21  and  O_22
REMARK                            x       y       z     vdW  Elec       q    Type
REMARK                         _______ _______ _______ _____ _____    ______ ____
ROOT
ATOM      1  C   UNL     1       4.254   5.661  17.896  0.00  0.00    +0.000 C 
ATOM      2  O   UNL     1       5.374   6.550  17.879  0.00  0.00    +0.000 OA
ATOM      3  C   UNL     1       6.634   5.895  18.089  0.00  0.00    +0.000 C 
ATOM      4  C   UNL     1       6.903   4.845  17.004  0.00  0.00    +0.000 C 
ATOM      5  C   UNL     1       5.732   3.849  16.944  0.00  0.00    +0.000 C 
ATOM      6  C   UNL     1       4.391   4.578  16.801  0.00  0.00    +0.000 C 
ENDROOT
BRANCH   4   7
ATOM      7  O   UNL     1       8.134   4.168  17.276  0.00  0.00    +0.000 OA
ATOM      8  H   UNL     1       7.960   3.392  17.835  0.00  0.00    +0.000 HD
ENDBRANCH   4   7
BRANCH   5   9
ATOM      9  O   UNL     1       5.928   2.909  15.883  0.00  0.00    +0.000 OA
ATOM     10  H   UNL     1       5.824   3.376  15.038  0.00  0.00    +0.000 HD
ENDBRANCH   5   9
BRANCH   6  11
ATOM     11  O   UNL     1       3.304   3.635  16.859  0.00  0.00    +0.000 OA
ATOM     12  H   UNL     1       2.632   3.886  16.205  0.00  0.00    +0.000 HD
ENDBRANCH   6  11
BRANCH   1  13
ATOM     13  O   UNL     1       3.061   6.388  17.592  0.00  0.00    +0.000 OA
BRANCH  13  19
ATOM     14  C   UNL     1       2.271   6.641  19.816  0.00  0.00    +0.000 A 
ATOM     15  C   UNL     1       1.589   7.392  20.784  0.00  0.00    +0.000 A 
ATOM     16  C   UNL     1       1.161   8.699  20.522  0.00  0.00    +0.000 A 
ATOM     17  C   UNL     1       1.443   9.257  19.272  0.00  0.00    +0.000 A 
ATOM     18  C   UNL     1       2.106   8.510  18.291  0.00  0.00    +0.000 A 
ATOM     19  C   UNL     1       2.520   7.197  18.551  0.00  0.00    +0.000 A 
BRANCH  14  21
ATOM     20  C   UNL     1       1.475   4.441  20.279  0.00  0.00    +0.000 C 
ATOM     21  O   UNL     1       2.558   5.362  20.228  0.00  0.00    +0.000 OA
ENDBRANCH  14  21
BRANCH  16  22
ATOM     22  C   UNL     1       0.348   9.461  21.532  0.00  0.00    +0.000 C 
BRANCH  22  23
ATOM     23  O   UNL     1       1.111   9.708  22.703  0.00  0.00    +0.000 OA
ATOM     24  H   UNL     1       2.032   9.827  22.413  0.00  0.00    +0.000 HD
ENDBRANCH  22  23
ENDBRANCH  16  22
ENDBRANCH  13  19
ENDBRANCH   1  13
BRANCH   3  25
ATOM     25  C   UNL     1       7.719   6.980  18.102  0.00  0.00    +0.000 C 
BRANCH  25  26
ATOM     26  O   UNL     1       7.622   7.807  16.940  0.00  0.00    +0.000 OA
ATOM     27  H   UNL     1       6.880   7.451  16.422  0.00  0.00    +0.000 HD
ENDBRANCH  25  26
ENDBRANCH   3  25
TORSDOF 10
ENDMDL
MODEL 9
REMARK VINA RESULT:      -6.0      4.345      8.501
REMARK  Name = 
REMARK  11 active torsions:
REMARK  status: ('A' for Active; 'I' for Inactive)
REMARK    1  A    between atoms: C_1  and  O_2
REMARK    2  A    between atoms: O_2  and  C_3
REMARK    3  A    between atoms: C_5  and  C_6
REMARK    4  A    between atoms: C_6  and  O_7
REMARK    5  A    between atoms: C_10  and  O_11
REMARK    6  A    between atoms: O_11  and  C_12
REMARK    7  A    between atoms: C_14  and  C_15
REMARK    8  A    between atoms: C_15  and  O_16
REMARK    9  A    between atoms: C_17  and  O_18
REMARK   10  A    between atoms: C_19  and  O_20
REMARK   11  A    between atoms: C_21  and  O_22
REMARK                            x       y       z     vdW  Elec       q    Type
REMARK                         _______ _______ _______ _____ _____    ______ ____
ROOT
ATOM      1  C   UNL     1       1.978   8.406  19.278  0.00  0.00    +0.000 C 
ATOM      2  O   UNL     1       1.200   8.163  20.452  0.00  0.00    +0.000 OA
ATOM      3  C   UNL     1       0.968   9.337  21.245  0.00  0.00    +0.000 C 
ATOM      4  C   UNL     1       0.215  10.408  20.446  0.00  0.00    +0.000 C 
ATOM      5  C   UNL     1       0.981  10.722  19.149  0.00  0.00    +0.000 C 
ATOM      6  C   UNL     1       1.287   9.443  18.362  0.00  0.00    +0.000 C 
ENDROOT
BRANCH   4   7
ATOM      7  O   UNL     1       0.055  11.586  21.241  0.00  0.00    +0.000 OA
ATOM      8  H   UNL     1      -0.802  11.553  21.700  0.00  0.00    +0.000 HD
ENDBRANCH   4   7
BRANCH   5   9
ATOM      9  O   UNL     1       0.253  11.660  18.352  0.00  0.00    +0.000 OA
ATOM     10  H   UNL     1      -0.696  11.495  18.474  0.00  0.00    +0.000 HD
ENDBRANCH   5   9
BRANCH   6  11
ATOM     11  O   UNL     1       2.099   9.748  17.213  0.00  0.00    +0.000 OA
ATOM     12  H   UNL     1       2.816  10.347  17.481  0.00  0.00    +0.000 HD
ENDBRANCH   6  11
BRANCH   1  13
ATOM     13  O   UNL     1       2.081   7.202  18.513  0.00  0.00    +0.000 OA
BRANCH  13  19
ATOM     14  C   UNL     1       3.733   5.672  19.263  0.00  0.00    +0.000 A 
ATOM     15  C   UNL     1       5.041   5.171  19.200  0.00  0.00    +0.000 A 
ATOM     16  C   UNL     1       5.939   5.601  18.216  0.00  0.00    +0.000 A 
ATOM     17  C   UNL     1       5.500   6.538  17.275  0.00  0.00    +0.000 A 
ATOM     18  C   UNL     1       4.203   7.060  17.339  0.00  0.00    +0.000 A 
ATOM     19  C   UNL     1       3.312   6.638  18.334  0.00  0.00    +0.000 A 
BRANCH  14  21
ATOM     20  C   UNL     1       2.539   3.847  20.228  0.00  0.00    +0.000 C 
ATOM     21  O   UNL     1       3.017   5.183  20.328  0.00  0.00    +0.000 OA
ENDBRANCH  14  21
BRANCH  16  22
ATOM     22  C   UNL     1       7.366   5.129  18.214  0.00  0.00    +0.000 C 
BRANCH  22  23
ATOM     23  O   UNL     1       7.714   4.593  16.947  0.00  0.00    +0.000 OA
ATOM     24  H   UNL     1       8.026   3.685  17.107  0.00  0.00    +0.000 HD
ENDBRANCH  22  23
ENDBRANCH  16  22
ENDBRANCH  13  19
ENDBRANCH   1  13
BRANCH   3  25
ATOM     25  C   UNL     1       0.179   8.904  22.487  0.00  0.00    +0.000 C 
BRANCH  25  26
ATOM     26  O   UNL     1       0.482   9.749  23.599  0.00  0.00    +0.000 OA
ATOM     27  H   UNL     1      -0.190  10.450  23.591  0.00  0.00    +0.000 HD
ENDBRANCH  25  26
ENDBRANCH   3  25
TORSDOF 10
ENDMDL
