MODEL 1
REMARK VINA RESULT:      -8.1      0.000      0.000
REMARK  Name = 
REMARK  6 active torsions:
REMARK  status: ('A' for Active; 'I' for Inactive)
REMARK    1  A    between atoms: C_1  and  C_2
REMARK    2  A    between atoms: C_4  and  C_5
REMARK    3  A    between atoms: C_10  and  S_11
REMARK    4  A    between atoms: S_11  and  N_14
REMARK    5  A    between atoms: C_17  and  C_18
REMARK    6  A    between atoms: N_20  and  C_21
REMARK                            x       y       z     vdW  Elec       q    Type
REMARK                         _______ _______ _______ _____ _____    ______ ____
ROOT
ATOM      1  N   UNL     1       0.340  11.931  19.855  0.00  0.00    +0.000 NA
ATOM      2  C   UNL     1       1.740  11.835  19.367  0.00  0.00    +0.000 C 
ATOM      3  C   UNL     1       1.905  11.000  18.106  0.00  0.00    +0.000 C 
ATOM      4  C   UNL     1       1.155   9.673  18.092  0.00  0.00    +0.000 C 
ATOM      5  C   UNL     1      -0.300   9.911  18.468  0.00  0.00    +0.000 C 
ATOM      6  C   UNL     1      -0.498  10.694  19.755  0.00  0.00    +0.000 C 
ENDROOT
BRANCH   4   7
ATOM      7  C   UNL     1       1.826   8.487  18.808  0.00  0.00    +0.000 C 
ATOM      8  O   UNL     1       1.793   8.408  20.034  0.00  0.00    +0.000 OA
ATOM      9  N   UNL     1       2.456   7.543  18.038  0.00  0.00    +0.000 N 
ATOM     10  H   UNL     1       2.550   7.689  17.040  0.00  0.00    +0.000 HD
BRANCH   9  11
ATOM     11  C   UNL     1       3.154   6.375  18.609  0.00  0.00    +0.000 C 
ATOM     12  C   UNL     1       2.143   5.249  18.862  0.00  0.00    +0.000 C 
ATOM     13  C   UNL     1       1.720   4.488  17.605  0.00  0.00    +0.000 C 
ATOM     14  C   UNL     1       2.598   3.273  17.318  0.00  0.00    +0.000 C 
ATOM     15  C   UNL     1       4.027   3.587  16.890  0.00  0.00    +0.000 C 
ATOM     16  C   UNL     1       4.808   4.505  17.833  0.00  0.00    +0.000 C 
ATOM     17  C   UNL     1       4.370   5.974  17.750  0.00  0.00    +0.000 C 
ENDBRANCH   9  11
ENDBRANCH   4   7
BRANCH   1  18
ATOM     18  S   UNL     1       0.195  12.645  21.422  0.00  0.00    +0.000 S 
ATOM     19  O   UNL     1       1.349  13.513  21.555  0.00  0.00    +0.000 OA
ATOM     20  O   UNL     1      -0.013  11.589  22.400  0.00  0.00    +0.000 OA
BRANCH  18  26
ATOM     21  C   UNL     1      -3.561  13.973  22.186  0.00  0.00    +0.000 A 
ATOM     22  C   UNL     1      -3.674  15.084  21.344  0.00  0.00    +0.000 A 
ATOM     23  C   UNL     1      -2.604  15.467  20.537  0.00  0.00    +0.000 A 
ATOM     24  C   UNL     1      -1.395  14.755  20.558  0.00  0.00    +0.000 A 
ATOM     25 CL   UNL     1      -0.160  15.297  19.485  0.00  0.00    +0.000 Cl
ATOM     26  C   UNL     1      -1.258  13.664  21.417  0.00  0.00    +0.000 A 
ATOM     27  C   UNL     1      -2.340  13.276  22.229  0.00  0.00    +0.000 A 
BRANCH  21  31
ATOM     28  C   UNL     1      -7.912  13.807  24.459  0.00  0.00    +0.000 C 
ATOM     29  C   UNL     1      -6.579  13.539  23.899  0.00  0.00    +0.000 A 
ATOM     30  N   UNL     1      -5.860  14.262  23.073  0.00  0.00    +0.000 NA
ATOM     31  C   UNL     1      -4.710  13.515  22.959  0.00  0.00    +0.000 A 
ATOM     32  N   UNL     1      -4.728  12.369  23.662  0.00  0.00    +0.000 NA
ATOM     33  O   UNL     1      -5.969  12.390  24.294  0.00  0.00    +0.000 OA
ENDBRANCH  21  31
ENDBRANCH  18  26
ENDBRANCH   1  18
TORSDOF 5
ENDMDL
MODEL 2
REMARK VINA RESULT:      -7.6      1.234      1.448
REMARK  Name = 
REMARK  6 active torsions:
REMARK  status: ('A' for Active; 'I' for Inactive)
REMARK    1  A    between atoms: C_1  and  C_2
REMARK    2  A    between atoms: C_4  and  C_5
REMARK    3  A    between atoms: C_10  and  S_11
REMARK    4  A    between atoms: S_11  and  N_14
REMARK    5  A    between atoms: C_17  and  C_18
REMARK    6  A    between atoms: N_20  and  C_21
REMARK                            x       y       z     vdW  Elec       q    Type
REMARK                         _______ _______ _______ _____ _____    ______ ____
ROOT
ATOM      1  N   UNL     1       0.654  11.241  19.661  0.00  0.00    +0.000 NA
ATOM      2  C   UNL     1       1.940  11.382  18.929  0.00  0.00    +0.000 C 
ATOM      3  C   UNL     1       1.994  10.621  17.613  0.00  0.00    +0.000 C 
ATOM      4  C   UNL     1       1.462   9.194  17.654  0.00  0.00    +0.000 C 
ATOM      5  C   UNL     1       0.081   9.188  18.293  0.00  0.00    +0.000 C 
ATOM      6  C   UNL     1       0.006   9.891  19.638  0.00  0.00    +0.000 C 
ENDROOT
BRANCH   4   7
ATOM      7  C   UNL     1       2.422   8.108  18.171  0.00  0.00    +0.000 C 
ATOM      8  O   UNL     1       3.636   8.248  18.047  0.00  0.00    +0.000 OA
ATOM      9  N   UNL     1       1.877   6.994  18.759  0.00  0.00    +0.000 N 
ATOM     10  H   UNL     1       0.873   6.865  18.756  0.00  0.00    +0.000 HD
BRANCH   9  11
ATOM     11  C   UNL     1       2.693   5.876  19.272  0.00  0.00    +0.000 C 
ATOM     12  C   UNL     1       2.076   5.350  20.574  0.00  0.00    +0.000 C 
ATOM     13  C   UNL     1       0.841   4.470  20.376  0.00  0.00    +0.000 C 
ATOM     14  C   UNL     1       1.179   2.986  20.250  0.00  0.00    +0.000 C 
ATOM     15  C   UNL     1       1.912   2.591  18.973  0.00  0.00    +0.000 C 
ATOM     16  C   UNL     1       3.191   3.379  18.680  0.00  0.00    +0.000 C 
ATOM     17  C   UNL     1       2.923   4.807  18.184  0.00  0.00    +0.000 C 
ENDBRANCH   9  11
ENDBRANCH   4   7
BRANCH   1  18
ATOM     18  S   UNL     1       0.693  11.877  21.267  0.00  0.00    +0.000 S 
ATOM     19  O   UNL     1       1.923  12.641  21.347  0.00  0.00    +0.000 OA
ATOM     20  O   UNL     1       0.474  10.788  22.206  0.00  0.00    +0.000 OA
BRANCH  18  26
ATOM     21  C   UNL     1      -2.904  13.423  22.331  0.00  0.00    +0.000 A 
ATOM     22  C   UNL     1      -2.948  14.622  21.613  0.00  0.00    +0.000 A 
ATOM     23  C   UNL     1      -1.878  14.999  20.804  0.00  0.00    +0.000 A 
ATOM     24  C   UNL     1      -0.737  14.191  20.698  0.00  0.00    +0.000 A 
ATOM     25 CL   UNL     1       0.502  14.741  19.633  0.00  0.00    +0.000 Cl
ATOM     26  C   UNL     1      -0.665  13.007  21.433  0.00  0.00    +0.000 A 
ATOM     27  C   UNL     1      -1.748  12.626  22.247  0.00  0.00    +0.000 A 
BRANCH  21  31
ATOM     28  C   UNL     1      -7.440  13.062  24.179  0.00  0.00    +0.000 C 
ATOM     29  C   UNL     1      -6.019  12.907  23.834  0.00  0.00    +0.000 A 
ATOM     30  N   UNL     1      -5.317  13.504  22.900  0.00  0.00    +0.000 NA
ATOM     31  C   UNL     1      -4.061  12.982  23.102  0.00  0.00    +0.000 A 
ATOM     32  N   UNL     1      -3.994  12.082  24.099  0.00  0.00    +0.000 NA
ATOM     33  O   UNL     1      -5.295  12.040  24.591  0.00  0.00    +0.000 OA
ENDBRANCH  21  31
ENDBRANCH  18  26
ENDBRANCH   1  18
TORSDOF 5
ENDMDL
MODEL 3
REMARK VINA RESULT:      -7.6      2.959      3.456
REMARK  Name = 
REMARK  6 active torsions:
REMARK  status: ('A' for Active; 'I' for Inactive)
REMARK    1  A    between atoms: C_1  and  C_2
REMARK    2  A    between atoms: C_4  and  C_5
REMARK    3  A    between atoms: C_10  and  S_11
REMARK    4  A    between atoms: S_11  and  N_14
REMARK    5  A    between atoms: C_17  and  C_18
REMARK    6  A    between atoms: N_20  and  C_21
REMARK                            x       y       z     vdW  Elec       q    Type
REMARK                         _______ _______ _______ _____ _____    ______ ____
ROOT
ATOM      1  N   UNL     1      -0.889  10.906  19.520  0.00  0.00    +0.000 NA
ATOM      2  C   UNL     1      -1.314   9.542  19.927  0.00  0.00    +0.000 C 
ATOM      3  C   UNL     1      -0.538   8.974  21.106  0.00  0.00    +0.000 C 
ATOM      4  C   UNL     1       0.974   9.158  21.049  0.00  0.00    +0.000 C 
ATOM      5  C   UNL     1       1.295  10.618  20.767  0.00  0.00    +0.000 C 
ATOM      6  C   UNL     1       0.579  11.199  19.560  0.00  0.00    +0.000 C 
ENDROOT
BRANCH   4   7
ATOM      7  C   UNL     1       1.767   8.143  20.206  0.00  0.00    +0.000 C 
ATOM      8  O   UNL     1       2.270   8.487  19.139  0.00  0.00    +0.000 OA
ATOM      9  N   UNL     1       1.884   6.862  20.683  0.00  0.00    +0.000 N 
ATOM     10  H   UNL     1       1.377   6.587  21.514  0.00  0.00    +0.000 HD
BRANCH   9  11
ATOM     11  C   UNL     1       2.599   5.796  19.955  0.00  0.00    +0.000 C 
ATOM     12  C   UNL     1       2.591   4.511  20.793  0.00  0.00    +0.000 C 
ATOM     13  C   UNL     1       1.263   3.753  20.771  0.00  0.00    +0.000 C 
ATOM     14  C   UNL     1       1.189   2.710  19.659  0.00  0.00    +0.000 C 
ATOM     15  C   UNL     1       1.123   3.271  18.243  0.00  0.00    +0.000 C 
ATOM     16  C   UNL     1       2.233   4.256  17.875  0.00  0.00    +0.000 C 
ATOM     17  C   UNL     1       2.057   5.638  18.520  0.00  0.00    +0.000 C 
ENDBRANCH   9  11
ENDBRANCH   4   7
BRANCH   1  18
ATOM     18  S   UNL     1      -1.580  11.434  18.026  0.00  0.00    +0.000 S 
ATOM     19  O   UNL     1      -1.492  10.290  17.138  0.00  0.00    +0.000 OA
ATOM     20  O   UNL     1      -0.946  12.683  17.634  0.00  0.00    +0.000 OA
BRANCH  18  26
ATOM     21  C   UNL     1      -5.021  12.473  19.905  0.00  0.00    +0.000 A 
ATOM     22  C   UNL     1      -5.998  12.162  18.955  0.00  0.00    +0.000 A 
ATOM     23  C   UNL     1      -5.633  11.647  17.712  0.00  0.00    +0.000 A 
ATOM     24  C   UNL     1      -4.285  11.437  17.388  0.00  0.00    +0.000 A 
ATOM     25 CL   UNL     1      -3.960  10.755  15.839  0.00  0.00    +0.000 Cl
ATOM     26  C   UNL     1      -3.297  11.772  18.315  0.00  0.00    +0.000 A 
ATOM     27  C   UNL     1      -3.667  12.289  19.570  0.00  0.00    +0.000 A 
BRANCH  21  31
ATOM     28  C   UNL     1      -7.323  12.893  24.224  0.00  0.00    +0.000 C 
ATOM     29  C   UNL     1      -6.448  13.027  23.050  0.00  0.00    +0.000 A 
ATOM     30  N   UNL     1      -6.349  12.261  21.989  0.00  0.00    +0.000 NA
ATOM     31  C   UNL     1      -5.406  12.922  21.239  0.00  0.00    +0.000 A 
ATOM     32  N   UNL     1      -4.923  14.035  21.820  0.00  0.00    +0.000 NA
ATOM     33  O   UNL     1      -5.624  14.108  23.021  0.00  0.00    +0.000 OA
ENDBRANCH  21  31
ENDBRANCH  18  26
ENDBRANCH   1  18
TORSDOF 5
ENDMDL
MODEL 4
REMARK VINA RESULT:      -7.5      5.534      9.467
REMARK  Name = 
REMARK  6 active torsions:
REMARK  status: ('A' for Active; 'I' for Inactive)
REMARK    1  A    between atoms: C_1  and  C_2
REMARK    2  A    between atoms: C_4  and  C_5
REMARK    3  A    between atoms: C_10  and  S_11
REMARK    4  A    between atoms: S_11  and  N_14
REMARK    5  A    between atoms: C_17  and  C_18
REMARK    6  A    between atoms: N_20  and  C_21
REMARK                            x       y       z     vdW  Elec       q    Type
REMARK                         _______ _______ _______ _____ _____    ______ ____
ROOT
ATOM      1  N   UNL     1       5.658   4.322  18.161  0.00  0.00    +0.000 NA
ATOM      2  C   UNL     1       6.610   4.555  17.046  0.00  0.00    +0.000 C 
ATOM      3  C   UNL     1       8.014   4.934  17.493  0.00  0.00    +0.000 C 
ATOM      4  C   UNL     1       8.092   5.981  18.599  0.00  0.00    +0.000 C 
ATOM      5  C   UNL     1       7.186   5.568  19.750  0.00  0.00    +0.000 C 
ATOM      6  C   UNL     1       5.761   5.237  19.342  0.00  0.00    +0.000 C 
ENDROOT
BRANCH   4   7
ATOM      7  C   UNL     1       7.970   7.454  18.172  0.00  0.00    +0.000 C 
ATOM      8  O   UNL     1       7.259   7.764  17.219  0.00  0.00    +0.000 OA
ATOM      9  N   UNL     1       8.680   8.390  18.881  0.00  0.00    +0.000 N 
ATOM     10  H   UNL     1       9.331   8.092  19.595  0.00  0.00    +0.000 HD
BRANCH   9  11
ATOM     11  C   UNL     1       8.663   9.830  18.553  0.00  0.00    +0.000 C 
ATOM     12  C   UNL     1       8.579  10.647  19.849  0.00  0.00    +0.000 C 
ATOM     13  C   UNL     1       9.899  10.751  20.614  0.00  0.00    +0.000 C 
ATOM     14  C   UNL     1      10.728  11.968  20.214  0.00  0.00    +0.000 C 
ATOM     15  C   UNL     1      11.316  11.923  18.807  0.00  0.00    +0.000 C 
ATOM     16  C   UNL     1      10.310  11.663  17.684  0.00  0.00    +0.000 C 
ATOM     17  C   UNL     1       9.833  10.206  17.622  0.00  0.00    +0.000 C 
ENDBRANCH   9  11
ENDBRANCH   4   7
BRANCH   1  18
ATOM     18  S   UNL     1       4.014   4.159  17.653  0.00  0.00    +0.000 S 
ATOM     19  O   UNL     1       3.664   2.778  17.927  0.00  0.00    +0.000 OA
ATOM     20  O   UNL     1       3.894   4.663  16.294  0.00  0.00    +0.000 OA
BRANCH  18  26
ATOM     21  C   UNL     1       2.084   7.417  19.106  0.00  0.00    +0.000 A 
ATOM     22  C   UNL     1       1.631   6.976  20.354  0.00  0.00    +0.000 A 
ATOM     23  C   UNL     1       1.885   5.672  20.775  0.00  0.00    +0.000 A 
ATOM     24  C   UNL     1       2.591   4.777  19.958  0.00  0.00    +0.000 A 
ATOM     25 CL   UNL     1       2.881   3.206  20.606  0.00  0.00    +0.000 Cl
ATOM     26  C   UNL     1       3.021   5.192  18.697  0.00  0.00    +0.000 A 
ATOM     27  C   UNL     1       2.767   6.511  18.275  0.00  0.00    +0.000 A 
BRANCH  21  31
ATOM     28  C   UNL     1       0.491  12.058  18.884  0.00  0.00    +0.000 C 
ATOM     29  C   UNL     1       1.161  10.764  18.685  0.00  0.00    +0.000 A 
ATOM     30  N   UNL     1       1.116   9.679  19.422  0.00  0.00    +0.000 NA
ATOM     31  C   UNL     1       1.901   8.807  18.705  0.00  0.00    +0.000 A 
ATOM     32  N   UNL     1       2.429   9.337  17.587  0.00  0.00    +0.000 NA
ATOM     33  O   UNL     1       1.929  10.636  17.571  0.00  0.00    +0.000 OA
ENDBRANCH  21  31
ENDBRANCH  18  26
ENDBRANCH   1  18
TORSDOF 5
ENDMDL
MODEL 5
REMARK VINA RESULT:      -7.4      0.846      1.058
REMARK  Name = 
REMARK  6 active torsions:
REMARK  status: ('A' for Active; 'I' for Inactive)
REMARK    1  A    between atoms: C_1  and  C_2
REMARK    2  A    between atoms: C_4  and  C_5
REMARK    3  A    between atoms: C_10  and  S_11
REMARK    4  A    between atoms: S_11  and  N_14
REMARK    5  A    between atoms: C_17  and  C_18
REMARK    6  A    between atoms: N_20  and  C_21
REMARK                            x       y       z     vdW  Elec       q    Type
REMARK                         _______ _______ _______ _____ _____    ______ ____
ROOT
ATOM      1  N   UNL     1       0.399  12.137  19.758  0.00  0.00    +0.000 NA
ATOM      2  C   UNL     1       1.769  11.981  19.205  0.00  0.00    +0.000 C 
ATOM      3  C   UNL     1       1.849  11.079  17.983  0.00  0.00    +0.000 C 
ATOM      4  C   UNL     1       1.070   9.773  18.076  0.00  0.00    +0.000 C 
ATOM      5  C   UNL     1      -0.358  10.066  18.513  0.00  0.00    +0.000 C 
ATOM      6  C   UNL     1      -0.471  10.918  19.766  0.00  0.00    +0.000 C 
ENDROOT
BRANCH   4   7
ATOM      7  C   UNL     1       1.751   8.608  18.818  0.00  0.00    +0.000 C 
ATOM      8  O   UNL     1       1.700   8.544  20.044  0.00  0.00    +0.000 OA
ATOM      9  N   UNL     1       2.409   7.666  18.070  0.00  0.00    +0.000 N 
ATOM     10  H   UNL     1       2.516   7.801  17.072  0.00  0.00    +0.000 HD
BRANCH   9  11
ATOM     11  C   UNL     1       3.119   6.517  18.667  0.00  0.00    +0.000 C 
ATOM     12  C   UNL     1       2.123   5.379  18.922  0.00  0.00    +0.000 C 
ATOM     13  C   UNL     1       1.730   4.593  17.670  0.00  0.00    +0.000 C 
ATOM     14  C   UNL     1       2.632   3.389  17.413  0.00  0.00    +0.000 C 
ATOM     15  C   UNL     1       4.062   3.722  17.000  0.00  0.00    +0.000 C 
ATOM     16  C   UNL     1       4.814   4.666  17.940  0.00  0.00    +0.000 C 
ATOM     17  C   UNL     1       4.353   6.126  17.830  0.00  0.00    +0.000 C 
ENDBRANCH   9  11
ENDBRANCH   4   7
BRANCH   1  18
ATOM     18  S   UNL     1       0.352  12.934  21.291  0.00  0.00    +0.000 S 
ATOM     19  O   UNL     1       1.654  13.556  21.439  0.00  0.00    +0.000 OA
ATOM     20  O   UNL     1      -0.097  11.986  22.297  0.00  0.00    +0.000 OA
BRANCH  18  26
ATOM     21  C   UNL     1      -3.091  15.011  21.827  0.00  0.00    +0.000 A 
ATOM     22  C   UNL     1      -2.933  16.099  20.963  0.00  0.00    +0.000 A 
ATOM     23  C   UNL     1      -1.768  16.238  20.211  0.00  0.00    +0.000 A 
ATOM     24  C   UNL     1      -0.731  15.298  20.309  0.00  0.00    +0.000 A 
ATOM     25 CL   UNL     1       0.641  15.552  19.297  0.00  0.00    +0.000 Cl
ATOM     26  C   UNL     1      -0.862  14.224  21.191  0.00  0.00    +0.000 A 
ATOM     27  C   UNL     1      -2.040  14.083  21.947  0.00  0.00    +0.000 A 
BRANCH  21  31
ATOM     28  C   UNL     1      -6.942  12.915  24.040  0.00  0.00    +0.000 C 
ATOM     29  C   UNL     1      -5.949  13.832  23.461  0.00  0.00    +0.000 A 
ATOM     30  N   UNL     1      -4.770  13.570  22.949  0.00  0.00    +0.000 NA
ATOM     31  C   UNL     1      -4.347  14.814  22.542  0.00  0.00    +0.000 A 
ATOM     32  N   UNL     1      -5.214  15.805  22.814  0.00  0.00    +0.000 NA
ATOM     33  O   UNL     1      -6.284  15.149  23.417  0.00  0.00    +0.000 OA
ENDBRANCH  21  31
ENDBRANCH  18  26
ENDBRANCH   1  18
TORSDOF 5
ENDMDL
MODEL 6
REMARK VINA RESULT:      -7.3      3.854      6.905
REMARK  Name = 
REMARK  6 active torsions:
REMARK  status: ('A' for Active; 'I' for Inactive)
REMARK    1  A    between atoms: C_1  and  C_2
REMARK    2  A    between atoms: C_4  and  C_5
REMARK    3  A    between atoms: C_10  and  S_11
REMARK    4  A    between atoms: S_11  and  N_14
REMARK    5  A    between atoms: C_17  and  C_18
REMARK    6  A    between atoms: N_20  and  C_21
REMARK                            x       y       z     vdW  Elec       q    Type
REMARK                         _______ _______ _______ _____ _____    ______ ____
ROOT
ATOM      1  N   UNL     1       0.870  12.425  20.236  0.00  0.00    +0.000 NA
ATOM      2  C   UNL     1       1.478  11.885  18.992  0.00  0.00    +0.000 C 
ATOM      3  C   UNL     1       0.740  10.690  18.406  0.00  0.00    +0.000 C 
ATOM      4  C   UNL     1       0.325   9.617  19.406  0.00  0.00    +0.000 C 
ATOM      5  C   UNL     1      -0.413  10.267  20.567  0.00  0.00    +0.000 C 
ATOM      6  C   UNL     1       0.324  11.428  21.211  0.00  0.00    +0.000 C 
ENDROOT
BRANCH   4   7
ATOM      7  C   UNL     1       1.397   8.590  19.811  0.00  0.00    +0.000 C 
ATOM      8  O   UNL     1       1.714   8.462  20.991  0.00  0.00    +0.000 OA
ATOM      9  N   UNL     1       1.979   7.842  18.819  0.00  0.00    +0.000 N 
ATOM     10  H   UNL     1       1.767   8.042  17.849  0.00  0.00    +0.000 HD
BRANCH   9  11
ATOM     11  C   UNL     1       3.035   6.844  19.079  0.00  0.00    +0.000 C 
ATOM     12  C   UNL     1       2.390   5.481  19.363  0.00  0.00    +0.000 C 
ATOM     13  C   UNL     1       1.888   4.750  18.117  0.00  0.00    +0.000 C 
ATOM     14  C   UNL     1       2.937   3.827  17.503  0.00  0.00    +0.000 C 
ATOM     15  C   UNL     1       4.126   4.529  16.857  0.00  0.00    +0.000 C 
ATOM     16  C   UNL     1       4.862   5.530  17.751  0.00  0.00    +0.000 C 
ATOM     17  C   UNL     1       4.091   6.841  17.956  0.00  0.00    +0.000 C 
ENDBRANCH   9  11
ENDBRANCH   4   7
BRANCH   1  18
ATOM     18  S   UNL     1       1.852  13.597  21.040  0.00  0.00    +0.000 S 
ATOM     19  O   UNL     1       3.068  12.893  21.402  0.00  0.00    +0.000 OA
ATOM     20  O   UNL     1       1.064  14.229  22.085  0.00  0.00    +0.000 OA
BRANCH  18  26
ATOM     21  C   UNL     1       4.024  16.262  18.887  0.00  0.00    +0.000 A 
ATOM     22  C   UNL     1       3.043  16.947  18.164  0.00  0.00    +0.000 A 
ATOM     23  C   UNL     1       1.699  16.603  18.299  0.00  0.00    +0.000 A 
ATOM     24  C   UNL     1       1.305  15.563  19.154  0.00  0.00    +0.000 A 
ATOM     25 CL   UNL     1      -0.387  15.259  19.270  0.00  0.00    +0.000 Cl
ATOM     26  C   UNL     1       2.276  14.849  19.857  0.00  0.00    +0.000 A 
ATOM     27  C   UNL     1       3.632  15.200  19.723  0.00  0.00    +0.000 A 
BRANCH  21  31
ATOM     28  C   UNL     1       8.892  16.257  18.233  0.00  0.00    +0.000 C 
ATOM     29  C   UNL     1       7.487  16.585  18.517  0.00  0.00    +0.000 A 
ATOM     30  N   UNL     1       6.406  15.867  18.319  0.00  0.00    +0.000 NA
ATOM     31  C   UNL     1       5.419  16.683  18.819  0.00  0.00    +0.000 A 
ATOM     32  N   UNL     1       5.866  17.864  19.282  0.00  0.00    +0.000 NA
ATOM     33  O   UNL     1       7.243  17.794  19.088  0.00  0.00    +0.000 OA
ENDBRANCH  21  31
ENDBRANCH  18  26
ENDBRANCH   1  18
TORSDOF 5
ENDMDL
MODEL 7
REMARK VINA RESULT:      -7.3      2.862      3.460
REMARK  Name = 
REMARK  6 active torsions:
REMARK  status: ('A' for Active; 'I' for Inactive)
REMARK    1  A    between atoms: C_1  and  C_2
REMARK    2  A    between atoms: C_4  and  C_5
REMARK    3  A    between atoms: C_10  and  S_11
REMARK    4  A    between atoms: S_11  and  N_14
REMARK    5  A    between atoms: C_17  and  C_18
REMARK    6  A    between atoms: N_20  and  C_21
REMARK                            x       y       z     vdW  Elec       q    Type
REMARK                         _______ _______ _______ _____ _____    ______ ____
ROOT
ATOM      1  N   UNL     1      -1.012  10.779  19.321  0.00  0.00    +0.000 NA
ATOM      2  C   UNL     1      -1.148   9.540  20.130  0.00  0.00    +0.000 C 
ATOM      3  C   UNL     1       0.065   9.223  20.992  0.00  0.00    +0.000 C 
ATOM      4  C   UNL     1       1.417   9.365  20.304  0.00  0.00    +0.000 C 
ATOM      5  C   UNL     1       1.500  10.726  19.630  0.00  0.00    +0.000 C 
ATOM      6  C   UNL     1       0.331  11.049  18.716  0.00  0.00    +0.000 C 
ENDROOT
BRANCH   4   7
ATOM      7  C   UNL     1       1.886   8.181  19.439  0.00  0.00    +0.000 C 
ATOM      8  O   UNL     1       1.985   8.308  18.221  0.00  0.00    +0.000 OA
ATOM      9  N   UNL     1       2.176   6.998  20.070  0.00  0.00    +0.000 N 
ATOM     10  H   UNL     1       1.990   6.897  21.060  0.00  0.00    +0.000 HD
BRANCH   9  11
ATOM     11  C   UNL     1       2.612   5.787  19.347  0.00  0.00    +0.000 C 
ATOM     12  C   UNL     1       3.047   4.718  20.358  0.00  0.00    +0.000 C 
ATOM     13  C   UNL     1       1.890   3.994  21.047  0.00  0.00    +0.000 C 
ATOM     14  C   UNL     1       1.449   2.733  20.307  0.00  0.00    +0.000 C 
ATOM     15  C   UNL     1       0.766   2.971  18.964  0.00  0.00    +0.000 C 
ATOM     16  C   UNL     1       1.549   3.835  17.973  0.00  0.00    +0.000 C 
ATOM     17  C   UNL     1       1.545   5.326  18.334  0.00  0.00    +0.000 C 
ENDBRANCH   9  11
ENDBRANCH   4   7
BRANCH   1  18
ATOM     18  S   UNL     1      -2.267  10.989  18.151  0.00  0.00    +0.000 S 
ATOM     19  O   UNL     1      -2.714   9.648  17.825  0.00  0.00    +0.000 OA
ATOM     20  O   UNL     1      -1.774  11.848  17.087  0.00  0.00    +0.000 OA
BRANCH  18  26
ATOM     21  C   UNL     1      -4.500  12.812  21.005  0.00  0.00    +0.000 A 
ATOM     22  C   UNL     1      -5.726  13.004  20.362  0.00  0.00    +0.000 A 
ATOM     23  C   UNL     1      -5.898  12.601  19.038  0.00  0.00    +0.000 A 
ATOM     24  C   UNL     1      -4.848  12.004  18.326  0.00  0.00    +0.000 A 
ATOM     25 CL   UNL     1      -5.193  11.509  16.711  0.00  0.00    +0.000 Cl
ATOM     26  C   UNL     1      -3.609  11.835  18.945  0.00  0.00    +0.000 A 
ATOM     27  C   UNL     1      -3.438  12.239  20.282  0.00  0.00    +0.000 A 
BRANCH  21  31
ATOM     28  C   UNL     1      -2.976  14.877  25.192  0.00  0.00    +0.000 C 
ATOM     29  C   UNL     1      -3.634  14.079  24.147  0.00  0.00    +0.000 A 
ATOM     30  N   UNL     1      -3.552  14.183  22.842  0.00  0.00    +0.000 NA
ATOM     31  C   UNL     1      -4.348  13.145  22.417  0.00  0.00    +0.000 A 
ATOM     32  N   UNL     1      -4.918  12.447  23.415  0.00  0.00    +0.000 NA
ATOM     33  O   UNL     1      -4.435  13.063  24.565  0.00  0.00    +0.000 OA
ENDBRANCH  21  31
ENDBRANCH  18  26
ENDBRANCH   1  18
TORSDOF 5
ENDMDL
MODEL 8
REMARK VINA RESULT:      -7.3      4.221      7.742
REMARK  Name = 
REMARK  6 active torsions:
REMARK  status: ('A' for Active; 'I' for Inactive)
REMARK    1  A    between atoms: C_1  and  C_2
REMARK    2  A    between atoms: C_4  and  C_5
REMARK    3  A    between atoms: C_10  and  S_11
REMARK    4  A    between atoms: S_11  and  N_14
REMARK    5  A    between atoms: C_17  and  C_18
REMARK    6  A    between atoms: N_20  and  C_21
REMARK                            x       y       z     vdW  Elec       q    Type
REMARK                         _______ _______ _______ _____ _____    ______ ____
ROOT
ATOM      1  N   UNL     1      -1.142  10.773  17.858  0.00  0.00    +0.000 NA
ATOM      2  C   UNL     1      -1.958   9.655  18.399  0.00  0.00    +0.000 C 
ATOM      3  C   UNL     1      -3.200   9.337  17.580  0.00  0.00    +0.000 C 
ATOM      4  C   UNL     1      -4.022  10.541  17.135  0.00  0.00    +0.000 C 
ATOM      5  C   UNL     1      -3.108  11.557  16.468  0.00  0.00    +0.000 C 
ATOM      6  C   UNL     1      -1.887  11.940  17.286  0.00  0.00    +0.000 C 
ENDROOT
BRANCH   4   7
ATOM      7  C   UNL     1      -5.008  11.128  18.161  0.00  0.00    +0.000 C 
ATOM      8  O   UNL     1      -5.844  10.404  18.697  0.00  0.00    +0.000 OA
ATOM      9  N   UNL     1      -4.921  12.467  18.443  0.00  0.00    +0.000 N 
ATOM     10  H   UNL     1      -4.288  13.053  17.913  0.00  0.00    +0.000 HD
BRANCH   9  11
ATOM     11  C   UNL     1      -5.825  13.149  19.390  0.00  0.00    +0.000 C 
ATOM     12  C   UNL     1      -5.133  13.279  20.753  0.00  0.00    +0.000 C 
ATOM     13  C   UNL     1      -4.083  14.389  20.823  0.00  0.00    +0.000 C 
ATOM     14  C   UNL     1      -4.658  15.725  21.287  0.00  0.00    +0.000 C 
ATOM     15  C   UNL     1      -5.603  16.406  20.302  0.00  0.00    +0.000 C 
ATOM     16  C   UNL     1      -6.772  15.547  19.816  0.00  0.00    +0.000 C 
ATOM     17  C   UNL     1      -6.356  14.472  18.803  0.00  0.00    +0.000 C 
ENDBRANCH   9  11
ENDBRANCH   4   7
BRANCH   1  18
ATOM     18  S   UNL     1       0.107  11.305  18.926  0.00  0.00    +0.000 S 
ATOM     19  O   UNL     1       0.095  12.753  18.838  0.00  0.00    +0.000 OA
ATOM     20  O   UNL     1       1.331  10.587  18.608  0.00  0.00    +0.000 OA
BRANCH  18  26
ATOM     21  C   UNL     1      -1.561  11.471  22.620  0.00  0.00    +0.000 A 
ATOM     22  C   UNL     1      -1.024  10.346  23.252  0.00  0.00    +0.000 A 
ATOM     23  C   UNL     1      -0.156   9.499  22.565  0.00  0.00    +0.000 A 
ATOM     24  C   UNL     1       0.189   9.752  21.229  0.00  0.00    +0.000 A 
ATOM     25 CL   UNL     1       1.303   8.658  20.499  0.00  0.00    +0.000 Cl
ATOM     26  C   UNL     1      -0.365  10.853  20.575  0.00  0.00    +0.000 A 
ATOM     27  C   UNL     1      -1.238  11.710  21.272  0.00  0.00    +0.000 A 
BRANCH  21  31
ATOM     28  C   UNL     1      -3.111  15.446  25.054  0.00  0.00    +0.000 C 
ATOM     29  C   UNL     1      -2.962  14.142  24.391  0.00  0.00    +0.000 A 
ATOM     30  N   UNL     1      -1.974  13.686  23.658  0.00  0.00    +0.000 NA
ATOM     31  C   UNL     1      -2.393  12.410  23.366  0.00  0.00    +0.000 A 
ATOM     32  N   UNL     1      -3.598  12.098  23.874  0.00  0.00    +0.000 NA
ATOM     33  O   UNL     1      -3.972  13.248  24.563  0.00  0.00    +0.000 OA
ENDBRANCH  21  31
ENDBRANCH  18  26
ENDBRANCH   1  18
TORSDOF 5
ENDMDL
MODEL 9
REMARK VINA RESULT:      -7.3      3.507     10.582
REMARK  Name = 
REMARK  6 active torsions:
REMARK  status: ('A' for Active; 'I' for Inactive)
REMARK    1  A    between atoms: C_1  and  C_2
REMARK    2  A    between atoms: C_4  and  C_5
REMARK    3  A    between atoms: C_10  and  S_11
REMARK    4  A    between atoms: S_11  and  N_14
REMARK    5  A    between atoms: C_17  and  C_18
REMARK    6  A    between atoms: N_20  and  C_21
REMARK                            x       y       z     vdW  Elec       q    Type
REMARK                         _______ _______ _______ _____ _____    ______ ____
ROOT
ATOM      1  N   UNL     1       1.132  10.122  19.599  0.00  0.00    +0.000 NA
ATOM      2  C   UNL     1       1.448  11.574  19.592  0.00  0.00    +0.000 C 
ATOM      3  C   UNL     1       0.930  12.330  20.806  0.00  0.00    +0.000 C 
ATOM      4  C   UNL     1      -0.503  12.012  21.218  0.00  0.00    +0.000 C 
ATOM      5  C   UNL     1      -0.673  10.504  21.333  0.00  0.00    +0.000 C 
ATOM      6  C   UNL     1      -0.217   9.724  20.112  0.00  0.00    +0.000 C 
ENDROOT
BRANCH   4   7
ATOM      7  C   UNL     1      -1.624  12.737  20.452  0.00  0.00    +0.000 C 
ATOM      8  O   UNL     1      -1.409  13.828  19.930  0.00  0.00    +0.000 OA
ATOM      9  N   UNL     1      -2.852  12.129  20.381  0.00  0.00    +0.000 N 
ATOM     10  H   UNL     1      -3.023  11.279  20.904  0.00  0.00    +0.000 HD
BRANCH   9  11
ATOM     11  C   UNL     1      -4.010  12.734  19.695  0.00  0.00    +0.000 C 
ATOM     12  C   UNL     1      -4.281  11.979  18.387  0.00  0.00    +0.000 C 
ATOM     13  C   UNL     1      -4.985  10.634  18.571  0.00  0.00    +0.000 C 
ATOM     14  C   UNL     1      -6.507  10.744  18.511  0.00  0.00    +0.000 C 
ATOM     15  C   UNL     1      -7.155  11.470  19.685  0.00  0.00    +0.000 C 
ATOM     16  C   UNL     1      -6.605  12.868  19.975  0.00  0.00    +0.000 C 
ATOM     17  C   UNL     1      -5.222  12.851  20.641  0.00  0.00    +0.000 C 
ENDBRANCH   9  11
ENDBRANCH   4   7
BRANCH   1  18
ATOM     18  S   UNL     1       1.481   9.325  18.106  0.00  0.00    +0.000 S 
ATOM     19  O   UNL     1       2.239  10.287  17.327  0.00  0.00    +0.000 OA
ATOM     20  O   UNL     1       0.243   8.792  17.560  0.00  0.00    +0.000 OA
BRANCH  18  26
ATOM     21  C   UNL     1       4.359   6.495  17.700  0.00  0.00    +0.000 A 
ATOM     22  C   UNL     1       4.158   5.687  18.823  0.00  0.00    +0.000 A 
ATOM     23  C   UNL     1       3.154   5.993  19.741  0.00  0.00    +0.000 A 
ATOM     24  C   UNL     1       2.334   7.117  19.562  0.00  0.00    +0.000 A 
ATOM     25 CL   UNL     1       1.101   7.368  20.739  0.00  0.00    +0.000 Cl
ATOM     26  C   UNL     1       2.545   7.951  18.463  0.00  0.00    +0.000 A 
ATOM     27  C   UNL     1       3.556   7.638  17.535  0.00  0.00    +0.000 A 
BRANCH  21  31
ATOM     28  C   UNL     1       6.616   4.246  13.962  0.00  0.00    +0.000 C 
ATOM     29  C   UNL     1       6.227   5.104  15.091  0.00  0.00    +0.000 A 
ATOM     30  N   UNL     1       5.074   5.196  15.712  0.00  0.00    +0.000 NA
ATOM     31  C   UNL     1       5.344   6.123  16.691  0.00  0.00    +0.000 A 
ATOM     32  N   UNL     1       6.601   6.602  16.662  0.00  0.00    +0.000 NA
ATOM     33  O   UNL     1       7.189   5.916  15.603  0.00  0.00    +0.000 OA
ENDBRANCH  21  31
ENDBRANCH  18  26
ENDBRANCH   1  18
TORSDOF 5
ENDMDL
