MODEL 1
REMARK VINA RESULT:      -7.2      0.000      0.000
REMARK  Name = 
REMARK  5 active torsions:
REMARK  status: ('A' for Active; 'I' for Inactive)
REMARK    1  A    between atoms: C_1  and  C_2
REMARK    2  A    between atoms: N_15  and  C_16
REMARK    3  A    between atoms: C_17  and  C_18
REMARK    4  A    between atoms: C_18  and  C_19
REMARK    5  A    between atoms: N_29  and  C_30
REMARK                            x       y       z     vdW  Elec       q    Type
REMARK                         _______ _______ _______ _____ _____    ______ ____
ROOT
ATOM      1  C   UNL     1       6.959  14.190  17.837  0.00  0.00    +0.000 C 
ATOM      2  C   UNL     1       5.981  15.202  18.284  0.00  0.00    +0.000 A 
ATOM      3  C   UNL     1       4.622  15.099  18.464  0.00  0.00    +0.000 A 
ATOM      4  C   UNL     1       4.181  16.387  18.824  0.00  0.00    +0.000 A 
ATOM      5  N   UNL     1       2.901  16.742  18.994  0.00  0.00    +0.000 N 
ATOM      6  C   UNL     1       1.739  15.987  19.107  0.00  0.00    +0.000 A 
ATOM      7  N   UNL     1       0.598  16.702  19.047  0.00  0.00    +0.000 NA
ATOM      8  C   UNL     1      -0.537  16.106  19.440  0.00  0.00    +0.000 A 
ATOM      9  C   UNL     1      -0.551  14.843  19.969  0.00  0.00    +0.000 A 
ATOM     10  C   UNL     1       0.632  14.128  19.823  0.00  0.00    +0.000 A 
ATOM     11  N   UNL     1       1.780  14.671  19.390  0.00  0.00    +0.000 NA
ATOM     12  C   UNL     1       0.690  12.845  20.520  0.00  0.00    +0.000 A 
ATOM     13  C   UNL     1      -0.042  12.703  21.737  0.00  0.00    +0.000 A 
ATOM     14  N   UNL     1      -0.163  11.437  22.130  0.00  0.00    +0.000 NA
ATOM     15  N   UNL     1       0.302  10.755  21.058  0.00  0.00    +0.000 N 
ATOM     16  C   UNL     1       0.186   9.316  21.093  0.00  0.00    +0.000 C 
ATOM     17  C   UNL     1       0.486  11.586  19.964  0.00  0.00    +0.000 A 
ATOM     18  C   UNL     1      -0.987  13.784  22.160  0.00  0.00    +0.000 C 
ATOM     19  C   UNL     1      -1.652  14.308  20.853  0.00  0.00    +0.000 C 
ATOM     20  N   UNL     1       5.204  17.243  18.898  0.00  0.00    +0.000 NA
ATOM     21  N   UNL     1       6.286  16.505  18.575  0.00  0.00    +0.000 N 
ATOM     22  C   UNL     1       7.584  17.126  18.523  0.00  0.00    +0.000 C 
ATOM     23  H   UNL     1       2.691  17.721  19.124  0.00  0.00    +0.000 HD
ENDROOT
BRANCH  17  24
ATOM     24  C   UNL     1       0.146  11.192  18.561  0.00  0.00    +0.000 C 
BRANCH  24  25
ATOM     25  C   UNL     1      -1.306  10.924  18.286  0.00  0.00    +0.000 A 
ATOM     26  C   UNL     1      -1.691   9.902  17.408  0.00  0.00    +0.000 A 
ATOM     27  C   UNL     1      -3.041   9.673  17.140  0.00  0.00    +0.000 A 
ATOM     28  C   UNL     1      -4.016  10.471  17.738  0.00  0.00    +0.000 A 
ATOM     29  C   UNL     1      -3.638  11.505  18.590  0.00  0.00    +0.000 A 
ATOM     30 CL   UNL     1      -4.837  12.500  19.322  0.00  0.00    +0.000 Cl
ATOM     31  C   UNL     1      -2.291  11.743  18.857  0.00  0.00    +0.000 A 
ENDBRANCH  24  25
ENDBRANCH  17  24
TORSDOF 2
ENDMDL
MODEL 2
REMARK VINA RESULT:      -7.2      4.288      6.243
REMARK  Name = 
REMARK  5 active torsions:
REMARK  status: ('A' for Active; 'I' for Inactive)
REMARK    1  A    between atoms: C_1  and  C_2
REMARK    2  A    between atoms: N_15  and  C_16
REMARK    3  A    between atoms: C_17  and  C_18
REMARK    4  A    between atoms: C_18  and  C_19
REMARK    5  A    between atoms: N_29  and  C_30
REMARK                            x       y       z     vdW  Elec       q    Type
REMARK                         _______ _______ _______ _____ _____    ______ ____
ROOT
ATOM      1  C   UNL     1      -1.414   9.817  17.245  0.00  0.00    +0.000 C 
ATOM      2  C   UNL     1      -0.669  10.344  18.405  0.00  0.00    +0.000 A 
ATOM      3  C   UNL     1      -1.050  11.259  19.359  0.00  0.00    +0.000 A 
ATOM      4  C   UNL     1       0.076  11.451  20.182  0.00  0.00    +0.000 A 
ATOM      5  N   UNL     1       0.158  12.343  21.178  0.00  0.00    +0.000 N 
ATOM      6  C   UNL     1      -0.812  13.106  21.817  0.00  0.00    +0.000 A 
ATOM      7  N   UNL     1      -0.326  14.063  22.631  0.00  0.00    +0.000 NA
ATOM      8  C   UNL     1      -1.171  14.637  23.500  0.00  0.00    +0.000 A 
ATOM      9  C   UNL     1      -2.469  14.222  23.636  0.00  0.00    +0.000 A 
ATOM     10  C   UNL     1      -2.921  13.365  22.640  0.00  0.00    +0.000 A 
ATOM     11  N   UNL     1      -2.122  12.804  21.721  0.00  0.00    +0.000 NA
ATOM     12  C   UNL     1      -4.246  12.786  22.854  0.00  0.00    +0.000 A 
ATOM     13  C   UNL     1      -4.674  12.552  24.195  0.00  0.00    +0.000 A 
ATOM     14  N   UNL     1      -5.978  12.307  24.293  0.00  0.00    +0.000 NA
ATOM     15  N   UNL     1      -6.422  12.595  23.048  0.00  0.00    +0.000 N 
ATOM     16  C   UNL     1      -7.850  12.564  22.835  0.00  0.00    +0.000 C 
ATOM     17  C   UNL     1      -5.443  13.214  22.287  0.00  0.00    +0.000 A 
ATOM     18  C   UNL     1      -3.853  13.076  25.333  0.00  0.00    +0.000 C 
ATOM     19  C   UNL     1      -3.308  14.459  24.868  0.00  0.00    +0.000 C 
ATOM     20  N   UNL     1       1.096  10.681  19.791  0.00  0.00    +0.000 NA
ATOM     21  N   UNL     1       0.623  10.013  18.719  0.00  0.00    +0.000 N 
ATOM     22  C   UNL     1       1.481   9.097  18.012  0.00  0.00    +0.000 C 
ATOM     23  H   UNL     1       1.055  12.486  21.617  0.00  0.00    +0.000 HD
ENDROOT
BRANCH  17  24
ATOM     24  C   UNL     1      -5.719  14.348  21.351  0.00  0.00    +0.000 C 
BRANCH  24  25
ATOM     25  C   UNL     1      -6.056  13.968  19.938  0.00  0.00    +0.000 A 
ATOM     26  C   UNL     1      -7.056  14.650  19.233  0.00  0.00    +0.000 A 
ATOM     27  C   UNL     1      -7.379  14.278  17.928  0.00  0.00    +0.000 A 
ATOM     28  C   UNL     1      -6.714  13.213  17.321  0.00  0.00    +0.000 A 
ATOM     29  C   UNL     1      -5.738  12.513  18.027  0.00  0.00    +0.000 A 
ATOM     30 CL   UNL     1      -4.921  11.191  17.287  0.00  0.00    +0.000 Cl
ATOM     31  C   UNL     1      -5.415  12.877  19.333  0.00  0.00    +0.000 A 
ENDBRANCH  24  25
ENDBRANCH  17  24
TORSDOF 2
ENDMDL
MODEL 3
REMARK VINA RESULT:      -7.1      4.878      9.840
REMARK  Name = 
REMARK  5 active torsions:
REMARK  status: ('A' for Active; 'I' for Inactive)
REMARK    1  A    between atoms: C_1  and  C_2
REMARK    2  A    between atoms: N_15  and  C_16
REMARK    3  A    between atoms: C_17  and  C_18
REMARK    4  A    between atoms: C_18  and  C_19
REMARK    5  A    between atoms: N_29  and  C_30
REMARK                            x       y       z     vdW  Elec       q    Type
REMARK                         _______ _______ _______ _____ _____    ______ ____
ROOT
ATOM      1  C   UNL     1       3.300  13.777  20.529  0.00  0.00    +0.000 C 
ATOM      2  C   UNL     1       3.836  14.976  19.855  0.00  0.00    +0.000 A 
ATOM      3  C   UNL     1       5.132  15.421  19.739  0.00  0.00    +0.000 A 
ATOM      4  C   UNL     1       5.059  16.654  19.063  0.00  0.00    +0.000 A 
ATOM      5  N   UNL     1       6.096  17.469  18.835  0.00  0.00    +0.000 N 
ATOM      6  C   UNL     1       7.467  17.274  18.952  0.00  0.00    +0.000 A 
ATOM      7  N   UNL     1       8.204  18.397  18.848  0.00  0.00    +0.000 NA
ATOM      8  C   UNL     1       9.525  18.267  18.652  0.00  0.00    +0.000 A 
ATOM      9  C   UNL     1      10.117  17.045  18.475  0.00  0.00    +0.000 A 
ATOM     10  C   UNL     1       9.315  15.951  18.777  0.00  0.00    +0.000 A 
ATOM     11  N   UNL     1       8.000  16.038  19.025  0.00  0.00    +0.000 NA
ATOM     12  C   UNL     1       9.872  14.642  18.441  0.00  0.00    +0.000 A 
ATOM     13  C   UNL     1      10.753  14.549  17.322  0.00  0.00    +0.000 A 
ATOM     14  N   UNL     1      11.425  13.401  17.279  0.00  0.00    +0.000 NA
ATOM     15  N   UNL     1      11.138  12.852  18.482  0.00  0.00    +0.000 N 
ATOM     16  C   UNL     1      11.829  11.632  18.830  0.00  0.00    +0.000 C 
ATOM     17  C   UNL     1      10.492  13.753  19.314  0.00  0.00    +0.000 A 
ATOM     18  C   UNL     1      11.228  15.800  16.651  0.00  0.00    +0.000 C 
ATOM     19  C   UNL     1      11.446  16.841  17.789  0.00  0.00    +0.000 C 
ATOM     20  N   UNL     1       3.796  16.953  18.743  0.00  0.00    +0.000 NA
ATOM     21  N   UNL     1       3.072  15.922  19.224  0.00  0.00    +0.000 N 
ATOM     22  C   UNL     1       1.639  15.927  19.080  0.00  0.00    +0.000 C 
ATOM     23  H   UNL     1       5.908  18.385  18.457  0.00  0.00    +0.000 HD
ENDROOT
BRANCH  17  24
ATOM     24  C   UNL     1      10.774  13.873  20.778  0.00  0.00    +0.000 C 
BRANCH  24  25
ATOM     25  C   UNL     1       9.665  13.449  21.699  0.00  0.00    +0.000 A 
ATOM     26  C   UNL     1       9.218  12.121  21.716  0.00  0.00    +0.000 A 
ATOM     27  C   UNL     1       8.174  11.739  22.559  0.00  0.00    +0.000 A 
ATOM     28  C   UNL     1       7.560  12.684  23.382  0.00  0.00    +0.000 A 
ATOM     29  C   UNL     1       7.982  14.010  23.347  0.00  0.00    +0.000 A 
ATOM     30 CL   UNL     1       7.220  15.182  24.352  0.00  0.00    +0.000 Cl
ATOM     31  C   UNL     1       9.020  14.399  22.504  0.00  0.00    +0.000 A 
ENDBRANCH  24  25
ENDBRANCH  17  24
TORSDOF 2
ENDMDL
MODEL 4
REMARK VINA RESULT:      -7.0      4.338      6.257
REMARK  Name = 
REMARK  5 active torsions:
REMARK  status: ('A' for Active; 'I' for Inactive)
REMARK    1  A    between atoms: C_1  and  C_2
REMARK    2  A    between atoms: N_15  and  C_16
REMARK    3  A    between atoms: C_17  and  C_18
REMARK    4  A    between atoms: C_18  and  C_19
REMARK    5  A    between atoms: N_29  and  C_30
REMARK                            x       y       z     vdW  Elec       q    Type
REMARK                         _______ _______ _______ _____ _____    ______ ____
ROOT
ATOM      1  C   UNL     1      -1.575   9.873  17.119  0.00  0.00    +0.000 C 
ATOM      2  C   UNL     1      -0.811  10.411  18.261  0.00  0.00    +0.000 A 
ATOM      3  C   UNL     1      -1.178  11.329  19.217  0.00  0.00    +0.000 A 
ATOM      4  C   UNL     1      -0.037  11.532  20.017  0.00  0.00    +0.000 A 
ATOM      5  N   UNL     1       0.059  12.429  21.007  0.00  0.00    +0.000 N 
ATOM      6  C   UNL     1      -0.902  13.191  21.660  0.00  0.00    +0.000 A 
ATOM      7  N   UNL     1      -0.406  14.155  22.459  0.00  0.00    +0.000 NA
ATOM      8  C   UNL     1      -1.237  14.730  23.342  0.00  0.00    +0.000 A 
ATOM      9  C   UNL     1      -2.529  14.309  23.505  0.00  0.00    +0.000 A 
ATOM     10  C   UNL     1      -2.997  13.444  22.522  0.00  0.00    +0.000 A 
ATOM     11  N   UNL     1      -2.212  12.882  21.591  0.00  0.00    +0.000 NA
ATOM     12  C   UNL     1      -4.314  12.859  22.765  0.00  0.00    +0.000 A 
ATOM     13  C   UNL     1      -4.715  12.631  24.115  0.00  0.00    +0.000 A 
ATOM     14  N   UNL     1      -6.016  12.380  24.240  0.00  0.00    +0.000 NA
ATOM     15  N   UNL     1      -6.485  12.659  23.002  0.00  0.00    +0.000 N 
ATOM     16  C   UNL     1      -7.917  12.619  22.816  0.00  0.00    +0.000 C 
ATOM     17  C   UNL     1      -5.524  13.278  22.219  0.00  0.00    +0.000 A 
ATOM     18  C   UNL     1      -3.875  13.165  25.234  0.00  0.00    +0.000 C 
ATOM     19  C   UNL     1      -3.346  14.548  24.752  0.00  0.00    +0.000 C 
ATOM     20  N   UNL     1       0.979  10.764  19.611  0.00  0.00    +0.000 NA
ATOM     21  N   UNL     1       0.489  10.088  18.552  0.00  0.00    +0.000 N 
ATOM     22  C   UNL     1       1.337   9.172  17.834  0.00  0.00    +0.000 C 
ATOM     23  H   UNL     1       0.964  12.579  21.428  0.00  0.00    +0.000 HD
ENDROOT
BRANCH  17  24
ATOM     24  C   UNL     1      -5.823  14.406  21.282  0.00  0.00    +0.000 C 
BRANCH  24  25
ATOM     25  C   UNL     1      -6.080  14.023  19.852  0.00  0.00    +0.000 A 
ATOM     26  C   UNL     1      -5.808  12.726  19.399  0.00  0.00    +0.000 A 
ATOM     27  C   UNL     1      -6.028  12.384  18.064  0.00  0.00    +0.000 A 
ATOM     28  C   UNL     1      -6.511  13.339  17.170  0.00  0.00    +0.000 A 
ATOM     29  C   UNL     1      -6.757  14.637  17.609  0.00  0.00    +0.000 A 
ATOM     30 CL   UNL     1      -7.343  15.823  16.507  0.00  0.00    +0.000 Cl
ATOM     31  C   UNL     1      -6.533  14.987  18.939  0.00  0.00    +0.000 A 
ENDBRANCH  24  25
ENDBRANCH  17  24
TORSDOF 2
ENDMDL
MODEL 5
REMARK VINA RESULT:      -6.9      5.444     10.092
REMARK  Name = 
REMARK  5 active torsions:
REMARK  status: ('A' for Active; 'I' for Inactive)
REMARK    1  A    between atoms: C_1  and  C_2
REMARK    2  A    between atoms: N_15  and  C_16
REMARK    3  A    between atoms: C_17  and  C_18
REMARK    4  A    between atoms: C_18  and  C_19
REMARK    5  A    between atoms: N_29  and  C_30
REMARK                            x       y       z     vdW  Elec       q    Type
REMARK                         _______ _______ _______ _____ _____    ______ ____
ROOT
ATOM      1  C   UNL     1       2.827  17.023  16.608  0.00  0.00    +0.000 C 
ATOM      2  C   UNL     1       3.050  16.653  18.019  0.00  0.00    +0.000 A 
ATOM      3  C   UNL     1       4.170  16.146  18.634  0.00  0.00    +0.000 A 
ATOM      4  C   UNL     1       3.802  15.906  19.972  0.00  0.00    +0.000 A 
ATOM      5  N   UNL     1       4.579  15.317  20.890  0.00  0.00    +0.000 N 
ATOM      6  C   UNL     1       5.935  15.013  20.896  0.00  0.00    +0.000 A 
ATOM      7  N   UNL     1       6.327  14.215  21.908  0.00  0.00    +0.000 NA
ATOM      8  C   UNL     1       7.641  14.117  22.158  0.00  0.00    +0.000 A 
ATOM      9  C   UNL     1       8.569  14.860  21.478  0.00  0.00    +0.000 A 
ATOM     10  C   UNL     1       8.090  15.509  20.346  0.00  0.00    +0.000 A 
ATOM     11  N   UNL     1       6.790  15.592  20.030  0.00  0.00    +0.000 NA
ATOM     12  C   UNL     1       9.023  16.431  19.701  0.00  0.00    +0.000 A 
ATOM     13  C   UNL     1       9.978  17.108  20.517  0.00  0.00    +0.000 A 
ATOM     14  N   UNL     1      10.950  17.684  19.815  0.00  0.00    +0.000 NA
ATOM     15  N   UNL     1      10.738  17.197  18.571  0.00  0.00    +0.000 N 
ATOM     16  C   UNL     1      11.719  17.522  17.562  0.00  0.00    +0.000 C 
ATOM     17  C   UNL     1       9.800  16.178  18.575  0.00  0.00    +0.000 A 
ATOM     18  C   UNL     1      10.128  16.718  21.955  0.00  0.00    +0.000 C 
ATOM     19  C   UNL     1       9.950  15.171  22.000  0.00  0.00    +0.000 C 
ATOM     20  N   UNL     1       2.536  16.270  20.196  0.00  0.00    +0.000 NA
ATOM     21  N   UNL     1       2.100  16.727  19.004  0.00  0.00    +0.000 N 
ATOM     22  C   UNL     1       0.741  17.183  18.868  0.00  0.00    +0.000 C 
ATOM     23  H   UNL     1       4.168  15.078  21.780  0.00  0.00    +0.000 HD
ENDROOT
BRANCH  17  24
ATOM     24  C   UNL     1       9.920  14.941  17.741  0.00  0.00    +0.000 C 
BRANCH  24  25
ATOM     25  C   UNL     1      10.472  13.730  18.436  0.00  0.00    +0.000 A 
ATOM     26  C   UNL     1      11.755  13.751  18.998  0.00  0.00    +0.000 A 
ATOM     27  C   UNL     1      12.271  12.615  19.623  0.00  0.00    +0.000 A 
ATOM     28  C   UNL     1      11.513  11.445  19.680  0.00  0.00    +0.000 A 
ATOM     29  C   UNL     1      10.249  11.410  19.098  0.00  0.00    +0.000 A 
ATOM     30 CL   UNL     1       9.314   9.966  19.155  0.00  0.00    +0.000 Cl
ATOM     31  C   UNL     1       9.731  12.540  18.467  0.00  0.00    +0.000 A 
ENDBRANCH  24  25
ENDBRANCH  17  24
TORSDOF 2
ENDMDL
MODEL 6
REMARK VINA RESULT:      -6.8      4.787      9.862
REMARK  Name = 
REMARK  5 active torsions:
REMARK  status: ('A' for Active; 'I' for Inactive)
REMARK    1  A    between atoms: C_1  and  C_2
REMARK    2  A    between atoms: N_15  and  C_16
REMARK    3  A    between atoms: C_17  and  C_18
REMARK    4  A    between atoms: C_18  and  C_19
REMARK    5  A    between atoms: N_29  and  C_30
REMARK                            x       y       z     vdW  Elec       q    Type
REMARK                         _______ _______ _______ _____ _____    ______ ____
ROOT
ATOM      1  C   UNL     1       3.285  13.869  20.661  0.00  0.00    +0.000 C 
ATOM      2  C   UNL     1       3.825  15.015  19.903  0.00  0.00    +0.000 A 
ATOM      3  C   UNL     1       5.122  15.449  19.761  0.00  0.00    +0.000 A 
ATOM      4  C   UNL     1       5.053  16.630  18.996  0.00  0.00    +0.000 A 
ATOM      5  N   UNL     1       6.093  17.425  18.713  0.00  0.00    +0.000 N 
ATOM      6  C   UNL     1       7.463  17.238  18.850  0.00  0.00    +0.000 A 
ATOM      7  N   UNL     1       8.202  18.350  18.668  0.00  0.00    +0.000 NA
ATOM      8  C   UNL     1       9.523  18.204  18.488  0.00  0.00    +0.000 A 
ATOM      9  C   UNL     1      10.115  16.972  18.403  0.00  0.00    +0.000 A 
ATOM     10  C   UNL     1       9.309  15.904  18.781  0.00  0.00    +0.000 A 
ATOM     11  N   UNL     1       7.994  16.011  19.016  0.00  0.00    +0.000 NA
ATOM     12  C   UNL     1       9.867  14.574  18.545  0.00  0.00    +0.000 A 
ATOM     13  C   UNL     1      10.752  14.398  17.439  0.00  0.00    +0.000 A 
ATOM     14  N   UNL     1      11.423  13.250  17.484  0.00  0.00    +0.000 NA
ATOM     15  N   UNL     1      11.130  12.790  18.723  0.00  0.00    +0.000 N 
ATOM     16  C   UNL     1      11.818  11.599  19.162  0.00  0.00    +0.000 C 
ATOM     17  C   UNL     1      10.482  13.750  19.483  0.00  0.00    +0.000 A 
ATOM     18  C   UNL     1      11.232  15.596  16.681  0.00  0.00    +0.000 C 
ATOM     19  C   UNL     1      11.447  16.718  17.741  0.00  0.00    +0.000 C 
ATOM     20  N   UNL     1       3.793  16.906  18.649  0.00  0.00    +0.000 NA
ATOM     21  N   UNL     1       3.065  15.913  19.201  0.00  0.00    +0.000 N 
ATOM     22  C   UNL     1       1.633  15.909  19.050  0.00  0.00    +0.000 C 
ATOM     23  H   UNL     1       5.908  18.311  18.268  0.00  0.00    +0.000 HD
ENDROOT
BRANCH  17  24
ATOM     24  C   UNL     1      10.757  13.977  20.936  0.00  0.00    +0.000 C 
BRANCH  24  25
ATOM     25  C   UNL     1       9.551  14.123  21.820  0.00  0.00    +0.000 A 
ATOM     26  C   UNL     1       9.208  15.369  22.361  0.00  0.00    +0.000 A 
ATOM     27  C   UNL     1       8.099  15.494  23.199  0.00  0.00    +0.000 A 
ATOM     28  C   UNL     1       7.332  14.371  23.512  0.00  0.00    +0.000 A 
ATOM     29  C   UNL     1       7.685  13.126  22.999  0.00  0.00    +0.000 A 
ATOM     30 CL   UNL     1       6.749  11.736  23.391  0.00  0.00    +0.000 Cl
ATOM     31  C   UNL     1       8.795  12.994  22.167  0.00  0.00    +0.000 A 
ENDBRANCH  24  25
ENDBRANCH  17  24
TORSDOF 2
ENDMDL
MODEL 7
REMARK VINA RESULT:      -6.8      5.273      9.869
REMARK  Name = 
REMARK  5 active torsions:
REMARK  status: ('A' for Active; 'I' for Inactive)
REMARK    1  A    between atoms: C_1  and  C_2
REMARK    2  A    between atoms: N_15  and  C_16
REMARK    3  A    between atoms: C_17  and  C_18
REMARK    4  A    between atoms: C_18  and  C_19
REMARK    5  A    between atoms: N_29  and  C_30
REMARK                            x       y       z     vdW  Elec       q    Type
REMARK                         _______ _______ _______ _____ _____    ______ ____
ROOT
ATOM      1  C   UNL     1       1.592  16.810  19.470  0.00  0.00    +0.000 C 
ATOM      2  C   UNL     1       2.268  16.149  20.603  0.00  0.00    +0.000 A 
ATOM      3  C   UNL     1       3.531  15.611  20.687  0.00  0.00    +0.000 A 
ATOM      4  C   UNL     1       3.624  15.042  21.972  0.00  0.00    +0.000 A 
ATOM      5  N   UNL     1       4.662  14.328  22.424  0.00  0.00    +0.000 N 
ATOM      6  C   UNL     1       5.946  14.147  21.924  0.00  0.00    +0.000 A 
ATOM      7  N   UNL     1       6.653  13.175  22.533  0.00  0.00    +0.000 NA
ATOM      8  C   UNL     1       7.977  13.134  22.322  0.00  0.00    +0.000 A 
ATOM      9  C   UNL     1       8.626  14.088  21.584  0.00  0.00    +0.000 A 
ATOM     10  C   UNL     1       7.799  14.935  20.856  0.00  0.00    +0.000 A 
ATOM     11  N   UNL     1       6.466  14.978  21.000  0.00  0.00    +0.000 NA
ATOM     12  C   UNL     1       8.463  16.056  20.193  0.00  0.00    +0.000 A 
ATOM     13  C   UNL     1       9.629  16.607  20.802  0.00  0.00    +0.000 A 
ATOM     14  N   UNL     1      10.314  17.408  19.989  0.00  0.00    +0.000 NA
ATOM     15  N   UNL     1       9.707  17.201  18.798  0.00  0.00    +0.000 N 
ATOM     16  C   UNL     1      10.300  17.829  17.640  0.00  0.00    +0.000 C 
ATOM     17  C   UNL     1       8.827  16.132  18.852  0.00  0.00    +0.000 A 
ATOM     18  C   UNL     1      10.246  15.914  21.977  0.00  0.00    +0.000 C 
ATOM     19  C   UNL     1      10.101  14.388  21.700  0.00  0.00    +0.000 C 
ATOM     20  N   UNL     1       2.500  15.237  22.668  0.00  0.00    +0.000 NA
ATOM     21  N   UNL     1       1.694  15.915  21.825  0.00  0.00    +0.000 N 
ATOM     22  C   UNL     1       0.363  16.274  22.242  0.00  0.00    +0.000 C 
ATOM     23  H   UNL     1       4.568  13.859  23.312  0.00  0.00    +0.000 HD
ENDROOT
BRANCH  17  24
ATOM     24  C   UNL     1       8.673  15.133  17.750  0.00  0.00    +0.000 C 
BRANCH  24  25
ATOM     25  C   UNL     1       9.505  13.887  17.868  0.00  0.00    +0.000 A 
ATOM     26  C   UNL     1      10.893  13.934  17.686  0.00  0.00    +0.000 A 
ATOM     27  C   UNL     1      11.657  12.770  17.776  0.00  0.00    +0.000 A 
ATOM     28  C   UNL     1      11.037  11.548  18.038  0.00  0.00    +0.000 A 
ATOM     29  C   UNL     1       9.654  11.491  18.192  0.00  0.00    +0.000 A 
ATOM     30 CL   UNL     1       8.884   9.984  18.504  0.00  0.00    +0.000 Cl
ATOM     31  C   UNL     1       8.886  12.650  18.098  0.00  0.00    +0.000 A 
ENDBRANCH  24  25
ENDBRANCH  17  24
TORSDOF 2
ENDMDL
MODEL 8
REMARK VINA RESULT:      -6.8      3.797      8.161
REMARK  Name = 
REMARK  5 active torsions:
REMARK  status: ('A' for Active; 'I' for Inactive)
REMARK    1  A    between atoms: C_1  and  C_2
REMARK    2  A    between atoms: N_15  and  C_16
REMARK    3  A    between atoms: C_17  and  C_18
REMARK    4  A    between atoms: C_18  and  C_19
REMARK    5  A    between atoms: N_29  and  C_30
REMARK                            x       y       z     vdW  Elec       q    Type
REMARK                         _______ _______ _______ _____ _____    ______ ____
ROOT
ATOM      1  C   UNL     1      -4.625  14.393  24.128  0.00  0.00    +0.000 C 
ATOM      2  C   UNL     1      -5.298  13.585  23.091  0.00  0.00    +0.000 A 
ATOM      3  C   UNL     1      -4.902  13.284  21.809  0.00  0.00    +0.000 A 
ATOM      4  C   UNL     1      -5.958  12.547  21.241  0.00  0.00    +0.000 A 
ATOM      5  N   UNL     1      -6.016  12.143  19.965  0.00  0.00    +0.000 N 
ATOM      6  C   UNL     1      -5.053  12.104  18.964  0.00  0.00    +0.000 A 
ATOM      7  N   UNL     1      -5.534  11.841  17.733  0.00  0.00    +0.000 NA
ATOM      8  C   UNL     1      -4.659  11.494  16.778  0.00  0.00    +0.000 A 
ATOM      9  C   UNL     1      -3.326  11.321  17.039  0.00  0.00    +0.000 A 
ATOM     10  C   UNL     1      -2.903  11.786  18.279  0.00  0.00    +0.000 A 
ATOM     11  N   UNL     1      -3.738  12.188  19.248  0.00  0.00    +0.000 NA
ATOM     12  C   UNL     1      -1.523  11.467  18.640  0.00  0.00    +0.000 A 
ATOM     13  C   UNL     1      -0.956  10.256  18.140  0.00  0.00    +0.000 A 
ATOM     14  N   UNL     1       0.367  10.203  18.276  0.00  0.00    +0.000 NA
ATOM     15  N   UNL     1       0.669  11.464  18.663  0.00  0.00    +0.000 N 
ATOM     16  C   UNL     1       2.070  11.800  18.773  0.00  0.00    +0.000 C 
ATOM     17  C   UNL     1      -0.421  12.311  18.543  0.00  0.00    +0.000 A 
ATOM     18  C   UNL     1      -1.706   9.456  17.121  0.00  0.00    +0.000 C 
ATOM     19  C   UNL     1      -2.397  10.492  16.186  0.00  0.00    +0.000 C 
ATOM     20  N   UNL     1      -6.947  12.366  22.121  0.00  0.00    +0.000 NA
ATOM     21  N   UNL     1      -6.525  12.994  23.238  0.00  0.00    +0.000 N 
ATOM     22  C   UNL     1      -7.371  13.027  24.402  0.00  0.00    +0.000 C 
ATOM     23  H   UNL     1      -6.877  11.735  19.633  0.00  0.00    +0.000 HD
ENDROOT
BRANCH  17  24
ATOM     24  C   UNL     1      -0.322  13.719  18.049  0.00  0.00    +0.000 C 
BRANCH  24  25
ATOM     25  C   UNL     1      -0.417  14.793  19.096  0.00  0.00    +0.000 A 
ATOM     26  C   UNL     1      -0.193  16.136  18.765  0.00  0.00    +0.000 A 
ATOM     27  C   UNL     1      -0.262  17.125  19.747  0.00  0.00    +0.000 A 
ATOM     28  C   UNL     1      -0.543  16.778  21.068  0.00  0.00    +0.000 A 
ATOM     29  C   UNL     1      -0.738  15.442  21.407  0.00  0.00    +0.000 A 
ATOM     30 CL   UNL     1      -1.074  15.007  23.038  0.00  0.00    +0.000 Cl
ATOM     31  C   UNL     1      -0.665  14.449  20.432  0.00  0.00    +0.000 A 
ENDBRANCH  24  25
ENDBRANCH  17  24
TORSDOF 2
ENDMDL
MODEL 9
REMARK VINA RESULT:      -6.7      0.985      1.287
REMARK  Name = 
REMARK  5 active torsions:
REMARK  status: ('A' for Active; 'I' for Inactive)
REMARK    1  A    between atoms: C_1  and  C_2
REMARK    2  A    between atoms: N_15  and  C_16
REMARK    3  A    between atoms: C_17  and  C_18
REMARK    4  A    between atoms: C_18  and  C_19
REMARK    5  A    between atoms: N_29  and  C_30
REMARK                            x       y       z     vdW  Elec       q    Type
REMARK                         _______ _______ _______ _____ _____    ______ ____
ROOT
ATOM      1  C   UNL     1       6.921  14.113  17.809  0.00  0.00    +0.000 C 
ATOM      2  C   UNL     1       5.989  15.180  18.224  0.00  0.00    +0.000 A 
ATOM      3  C   UNL     1       4.627  15.142  18.409  0.00  0.00    +0.000 A 
ATOM      4  C   UNL     1       4.243  16.458  18.729  0.00  0.00    +0.000 A 
ATOM      5  N   UNL     1       2.980  16.874  18.889  0.00  0.00    +0.000 N 
ATOM      6  C   UNL     1       1.787  16.174  19.027  0.00  0.00    +0.000 A 
ATOM      7  N   UNL     1       0.678  16.935  18.945  0.00  0.00    +0.000 NA
ATOM      8  C   UNL     1      -0.481  16.402  19.358  0.00  0.00    +0.000 A 
ATOM      9  C   UNL     1      -0.549  15.158  19.926  0.00  0.00    +0.000 A 
ATOM     10  C   UNL     1       0.602  14.388  19.801  0.00  0.00    +0.000 A 
ATOM     11  N   UNL     1       1.771  14.866  19.350  0.00  0.00    +0.000 NA
ATOM     12  C   UNL     1       0.606  13.126  20.538  0.00  0.00    +0.000 A 
ATOM     13  C   UNL     1      -0.128  13.054  21.759  0.00  0.00    +0.000 A 
ATOM     14  N   UNL     1      -0.303  11.807  22.191  0.00  0.00    +0.000 NA
ATOM     15  N   UNL     1       0.129  11.073  21.140  0.00  0.00    +0.000 N 
ATOM     16  C   UNL     1      -0.050   9.642  21.221  0.00  0.00    +0.000 C 
ATOM     17  C   UNL     1       0.346  11.860  20.021  0.00  0.00    +0.000 A 
ATOM     18  C   UNL     1      -1.025  14.188  22.149  0.00  0.00    +0.000 C 
ATOM     19  C   UNL     1      -1.670  14.699  20.827  0.00  0.00    +0.000 C 
ATOM     20  N   UNL     1       5.303  17.271  18.775  0.00  0.00    +0.000 NA
ATOM     21  N   UNL     1       6.351  16.477  18.474  0.00  0.00    +0.000 N 
ATOM     22  C   UNL     1       7.675  17.039  18.402  0.00  0.00    +0.000 C 
ATOM     23  H   UNL     1       2.814  17.864  18.989  0.00  0.00    +0.000 HD
ENDROOT
BRANCH  17  24
ATOM     24  C   UNL     1      -0.014  11.438  18.632  0.00  0.00    +0.000 C 
BRANCH  24  25
ATOM     25  C   UNL     1      -1.478  11.459  18.295  0.00  0.00    +0.000 A 
ATOM     26  C   UNL     1      -2.421  11.895  19.235  0.00  0.00    +0.000 A 
ATOM     27  C   UNL     1      -3.781  11.892  18.923  0.00  0.00    +0.000 A 
ATOM     28  C   UNL     1      -4.210  11.442  17.674  0.00  0.00    +0.000 A 
ATOM     29  C   UNL     1      -3.278  10.982  16.747  0.00  0.00    +0.000 A 
ATOM     30 CL   UNL     1      -3.802  10.416  15.208  0.00  0.00    +0.000 Cl
ATOM     31  C   UNL     1      -1.919  10.977  17.055  0.00  0.00    +0.000 A 
ENDBRANCH  24  25
ENDBRANCH  17  24
TORSDOF 2
ENDMDL
