MODEL 1
REMARK VINA RESULT:      -8.6      0.000      0.000
REMARK  Name = 
REMARK  3 active torsions:
REMARK  status: ('A' for Active; 'I' for Inactive)
REMARK    1  A    between atoms: O_1  and  C_2
REMARK    2  A    between atoms: C_10  and  N_11
REMARK    3  A    between atoms: N_12  and  C_13
REMARK                            x       y       z     vdW  Elec       q    Type
REMARK                         _______ _______ _______ _____ _____    ______ ____
ROOT
ATOM      1  N   UNL     1       3.503   6.666  18.427  0.00  0.00    +0.000 NA
ATOM      2  N   UNL     1       2.541   7.024  19.132  0.00  0.00    +0.000 NA
ENDROOT
BRANCH   2   3
ATOM      3  C   UNL     1       2.111   8.329  18.869  0.00  0.00    +0.000 A 
ATOM      4  N   UNL     1       2.486   9.056  17.788  0.00  0.00    +0.000 NA
ATOM      5  C   UNL     1       2.012  10.313  17.687  0.00  0.00    +0.000 A 
ATOM      6  N   UNL     1       1.183  10.963  18.529  0.00  0.00    +0.000 NA
ATOM      7  C   UNL     1       0.841  10.224  19.612  0.00  0.00    +0.000 A 
ATOM      8  C   UNL     1       1.288   8.927  19.800  0.00  0.00    +0.000 A 
ATOM      9  O   UNL     1       0.834   8.422  20.978  0.00  0.00    +0.000 OA
ATOM     10  C   UNL     1       0.132   9.420  21.579  0.00  0.00    +0.000 A 
ATOM     11  C   UNL     1      -0.421   9.345  22.854  0.00  0.00    +0.000 A 
ATOM     12  C   UNL     1      -1.069  10.492  23.320  0.00  0.00    +0.000 A 
ATOM     13  C   UNL     1      -1.191  11.632  22.514  0.00  0.00    +0.000 A 
ATOM     14  C   UNL     1      -0.640  11.670  21.227  0.00  0.00    +0.000 A 
ATOM     15  C   UNL     1       0.068  10.545  20.760  0.00  0.00    +0.000 A 
ENDBRANCH   2   3
BRANCH   1  24
ATOM     16  C   UNL     1       5.181   4.936  18.865  0.00  0.00    +0.000 A 
ATOM     17  N   UNL     1       5.173   3.570  18.994  0.00  0.00    +0.000 N 
ATOM     18  C   UNL     1       3.894   3.074  18.844  0.00  0.00    +0.000 A 
ATOM     19  C   UNL     1       3.437   1.750  18.872  0.00  0.00    +0.000 A 
ATOM     20  C   UNL     1       2.068   1.534  18.689  0.00  0.00    +0.000 A 
ATOM     21  C   UNL     1       1.194   2.599  18.493  0.00  0.00    +0.000 A 
ATOM     22  C   UNL     1       1.668   3.916  18.462  0.00  0.00    +0.000 A 
ATOM     23  C   UNL     1       3.047   4.167  18.639  0.00  0.00    +0.000 A 
ATOM     24  C   UNL     1       3.878   5.330  18.652  0.00  0.00    +0.000 A 
ATOM     25  H   UNL     1       5.981   2.992  19.156  0.00  0.00    +0.000 HD
BRANCH  16  26
ATOM     26  O   UNL     1       6.302   5.648  18.952  0.00  0.00    +0.000 OA
ATOM     27  H   UNL     1       6.672   5.807  18.068  0.00  0.00    +0.000 HD
ENDBRANCH  16  26
ENDBRANCH   1  24
TORSDOF 3
ENDMDL
MODEL 2
REMARK VINA RESULT:      -8.5      2.534      7.350
REMARK  Name = 
REMARK  3 active torsions:
REMARK  status: ('A' for Active; 'I' for Inactive)
REMARK    1  A    between atoms: O_1  and  C_2
REMARK    2  A    between atoms: C_10  and  N_11
REMARK    3  A    between atoms: N_12  and  C_13
REMARK                            x       y       z     vdW  Elec       q    Type
REMARK                         _______ _______ _______ _____ _____    ______ ____
ROOT
ATOM      1  N   UNL     1       1.113   9.440  18.113  0.00  0.00    +0.000 NA
ATOM      2  N   UNL     1       1.434   8.581  18.956  0.00  0.00    +0.000 NA
ENDROOT
BRANCH   2   3
ATOM      3  C   UNL     1       2.484   7.757  18.540  0.00  0.00    +0.000 A 
ATOM      4  N   UNL     1       3.320   8.040  17.511  0.00  0.00    +0.000 NA
ATOM      5  C   UNL     1       4.268   7.132  17.209  0.00  0.00    +0.000 A 
ATOM      6  N   UNL     1       4.516   5.951  17.812  0.00  0.00    +0.000 NA
ATOM      7  C   UNL     1       3.654   5.681  18.822  0.00  0.00    +0.000 A 
ATOM      8  C   UNL     1       2.646   6.554  19.195  0.00  0.00    +0.000 A 
ATOM      9  O   UNL     1       1.900   6.033  20.206  0.00  0.00    +0.000 OA
ATOM     10  C   UNL     1       2.399   4.791  20.450  0.00  0.00    +0.000 A 
ATOM     11  C   UNL     1       1.855   3.880  21.352  0.00  0.00    +0.000 A 
ATOM     12  C   UNL     1       2.482   2.634  21.432  0.00  0.00    +0.000 A 
ATOM     13  C   UNL     1       3.627   2.350  20.676  0.00  0.00    +0.000 A 
ATOM     14  C   UNL     1       4.163   3.295  19.791  0.00  0.00    +0.000 A 
ATOM     15  C   UNL     1       3.512   4.536  19.652  0.00  0.00    +0.000 A 
ENDBRANCH   2   3
BRANCH   1  24
ATOM     16  C   UNL     1       0.259  11.134  19.664  0.00  0.00    +0.000 A 
ATOM     17  N   UNL     1      -0.934  11.786  19.846  0.00  0.00    +0.000 N 
ATOM     18  C   UNL     1      -1.862  11.377  18.910  0.00  0.00    +0.000 A 
ATOM     19  C   UNL     1      -3.199  11.759  18.747  0.00  0.00    +0.000 A 
ATOM     20  C   UNL     1      -3.916  11.175  17.697  0.00  0.00    +0.000 A 
ATOM     21  C   UNL     1      -3.316  10.255  16.844  0.00  0.00    +0.000 A 
ATOM     22  C   UNL     1      -1.978   9.880  17.024  0.00  0.00    +0.000 A 
ATOM     23  C   UNL     1      -1.229  10.448  18.079  0.00  0.00    +0.000 A 
ATOM     24  C   UNL     1       0.105  10.306  18.573  0.00  0.00    +0.000 A 
ATOM     25  H   UNL     1      -1.130  12.458  20.570  0.00  0.00    +0.000 HD
BRANCH  16  26
ATOM     26  O   UNL     1       1.308  11.344  20.455  0.00  0.00    +0.000 OA
ATOM     27  H   UNL     1       1.620  12.259  20.368  0.00  0.00    +0.000 HD
ENDBRANCH  16  26
ENDBRANCH   1  24
TORSDOF 3
ENDMDL
MODEL 3
REMARK VINA RESULT:      -8.4      1.272      1.380
REMARK  Name = 
REMARK  3 active torsions:
REMARK  status: ('A' for Active; 'I' for Inactive)
REMARK    1  A    between atoms: O_1  and  C_2
REMARK    2  A    between atoms: C_10  and  N_11
REMARK    3  A    between atoms: N_12  and  C_13
REMARK                            x       y       z     vdW  Elec       q    Type
REMARK                         _______ _______ _______ _____ _____    ______ ____
ROOT
ATOM      1  N   UNL     1       2.762   7.374  18.859  0.00  0.00    +0.000 NA
ATOM      2  N   UNL     1       2.058   7.950  18.008  0.00  0.00    +0.000 NA
ENDROOT
BRANCH   2   3
ATOM      3  C   UNL     1       1.899   9.318  18.249  0.00  0.00    +0.000 A 
ATOM      4  N   UNL     1       2.462  10.299  17.502  0.00  0.00    +0.000 NA
ATOM      5  C   UNL     1       2.241  11.574  17.878  0.00  0.00    +0.000 A 
ATOM      6  N   UNL     1       1.507  12.024  18.916  0.00  0.00    +0.000 NA
ATOM      7  C   UNL     1       0.973  11.024  19.660  0.00  0.00    +0.000 A 
ATOM      8  C   UNL     1       1.156   9.687  19.351  0.00  0.00    +0.000 A 
ATOM      9  O   UNL     1       0.552   8.888  20.272  0.00  0.00    +0.000 OA
ATOM     10  C   UNL     1       0.021   9.718  21.210  0.00  0.00    +0.000 A 
ATOM     11  C   UNL     1      -0.604   9.295  22.381  0.00  0.00    +0.000 A 
ATOM     12  C   UNL     1      -1.046  10.299  23.246  0.00  0.00    +0.000 A 
ATOM     13  C   UNL     1      -0.906  11.653  22.917  0.00  0.00    +0.000 A 
ATOM     14  C   UNL     1      -0.290  12.046  21.721  0.00  0.00    +0.000 A 
ATOM     15  C   UNL     1       0.215  11.052  20.862  0.00  0.00    +0.000 A 
ENDBRANCH   2   3
BRANCH   1  24
ATOM     16  C   UNL     1       3.784   5.580  17.541  0.00  0.00    +0.000 A 
ATOM     17  N   UNL     1       3.707   4.210  17.520  0.00  0.00    +0.000 N 
ATOM     18  C   UNL     1       2.842   3.755  18.494  0.00  0.00    +0.000 A 
ATOM     19  C   UNL     1       2.449   2.447  18.804  0.00  0.00    +0.000 A 
ATOM     20  C   UNL     1       1.546   2.275  19.857  0.00  0.00    +0.000 A 
ATOM     21  C   UNL     1       1.062   3.366  20.572  0.00  0.00    +0.000 A 
ATOM     22  C   UNL     1       1.461   4.668  20.245  0.00  0.00    +0.000 A 
ATOM     23  C   UNL     1       2.369   4.876  19.183  0.00  0.00    +0.000 A 
ATOM     24  C   UNL     1       2.971   6.015  18.565  0.00  0.00    +0.000 A 
ATOM     25  H   UNL     1       4.192   3.606  16.877  0.00  0.00    +0.000 HD
BRANCH  16  26
ATOM     26  O   UNL     1       4.542   6.259  16.684  0.00  0.00    +0.000 OA
ATOM     27  H   UNL     1       5.367   6.541  17.110  0.00  0.00    +0.000 HD
ENDBRANCH  16  26
ENDBRANCH   1  24
TORSDOF 3
ENDMDL
MODEL 4
REMARK VINA RESULT:      -8.4      2.284      7.887
REMARK  Name = 
REMARK  3 active torsions:
REMARK  status: ('A' for Active; 'I' for Inactive)
REMARK    1  A    between atoms: O_1  and  C_2
REMARK    2  A    between atoms: C_10  and  N_11
REMARK    3  A    between atoms: N_12  and  C_13
REMARK                            x       y       z     vdW  Elec       q    Type
REMARK                         _______ _______ _______ _____ _____    ______ ____
ROOT
ATOM      1  N   UNL     1       0.617   7.936  20.964  0.00  0.00    +0.000 NA
ATOM      2  N   UNL     1       1.699   7.784  20.365  0.00  0.00    +0.000 NA
ENDROOT
BRANCH   2   3
ATOM      3  C   UNL     1       2.059   6.443  20.198  0.00  0.00    +0.000 A 
ATOM      4  N   UNL     1       1.740   5.450  21.063  0.00  0.00    +0.000 NA
ATOM      5  C   UNL     1       2.185   4.210  20.781  0.00  0.00    +0.000 A 
ATOM      6  N   UNL     1       2.916   3.805  19.722  0.00  0.00    +0.000 NA
ATOM      7  C   UNL     1       3.241   4.820  18.885  0.00  0.00    +0.000 A 
ATOM      8  C   UNL     1       2.832   6.125  19.102  0.00  0.00    +0.000 A 
ATOM      9  O   UNL     1       3.321   6.954  18.140  0.00  0.00    +0.000 OA
ATOM     10  C   UNL     1       4.095   6.185  17.327  0.00  0.00    +0.000 A 
ATOM     11  C   UNL     1       4.859   6.668  16.268  0.00  0.00    +0.000 A 
ATOM     12  C   UNL     1       5.626   5.728  15.575  0.00  0.00    +0.000 A 
ATOM     13  C   UNL     1       5.579   4.368  15.907  0.00  0.00    +0.000 A 
ATOM     14  C   UNL     1       4.785   3.910  16.967  0.00  0.00    +0.000 A 
ATOM     15  C   UNL     1       4.049   4.847  17.716  0.00  0.00    +0.000 A 
ENDBRANCH   2   3
BRANCH   1  24
ATOM     16  C   UNL     1       0.298  10.007  22.235  0.00  0.00    +0.000 A 
ATOM     17  N   UNL     1      -0.201  11.256  21.967  0.00  0.00    +0.000 N 
ATOM     18  C   UNL     1      -0.608  11.347  20.651  0.00  0.00    +0.000 A 
ATOM     19  C   UNL     1      -1.196  12.418  19.967  0.00  0.00    +0.000 A 
ATOM     20  C   UNL     1      -1.511  12.230  18.618  0.00  0.00    +0.000 A 
ATOM     21  C   UNL     1      -1.242  11.023  17.980  0.00  0.00    +0.000 A 
ATOM     22  C   UNL     1      -0.659   9.960  18.681  0.00  0.00    +0.000 A 
ATOM     23  C   UNL     1      -0.334  10.117  20.047  0.00  0.00    +0.000 A 
ATOM     24  C   UNL     1       0.233   9.286  21.062  0.00  0.00    +0.000 A 
ATOM     25  H   UNL     1      -0.284  12.008  22.630  0.00  0.00    +0.000 HD
BRANCH  16  26
ATOM     26  O   UNL     1       0.739   9.666  23.442  0.00  0.00    +0.000 OA
ATOM     27  H   UNL     1       0.119   9.964  24.127  0.00  0.00    +0.000 HD
ENDBRANCH  16  26
ENDBRANCH   1  24
TORSDOF 3
ENDMDL
MODEL 5
REMARK VINA RESULT:      -8.4      2.073      7.925
REMARK  Name = 
REMARK  3 active torsions:
REMARK  status: ('A' for Active; 'I' for Inactive)
REMARK    1  A    between atoms: O_1  and  C_2
REMARK    2  A    between atoms: C_10  and  N_11
REMARK    3  A    between atoms: N_12  and  C_13
REMARK                            x       y       z     vdW  Elec       q    Type
REMARK                         _______ _______ _______ _____ _____    ______ ____
ROOT
ATOM      1  N   UNL     1       1.052   8.278  19.476  0.00  0.00    +0.000 NA
ATOM      2  N   UNL     1       2.044   7.862  20.105  0.00  0.00    +0.000 NA
ENDROOT
BRANCH   2   3
ATOM      3  C   UNL     1       2.280   6.494  19.932  0.00  0.00    +0.000 A 
ATOM      4  N   UNL     1       1.862   5.530  20.789  0.00  0.00    +0.000 NA
ATOM      5  C   UNL     1       2.193   4.256  20.502  0.00  0.00    +0.000 A 
ATOM      6  N   UNL     1       2.891   3.791  19.447  0.00  0.00    +0.000 NA
ATOM      7  C   UNL     1       3.315   4.775  18.617  0.00  0.00    +0.000 A 
ATOM      8  C   UNL     1       3.028   6.111  18.839  0.00  0.00    +0.000 A 
ATOM      9  O   UNL     1       3.599   6.896  17.886  0.00  0.00    +0.000 OA
ATOM     10  C   UNL     1       4.304   6.063  17.074  0.00  0.00    +0.000 A 
ATOM     11  C   UNL     1       5.118   6.479  16.024  0.00  0.00    +0.000 A 
ATOM     12  C   UNL     1       5.800   5.476  15.331  0.00  0.00    +0.000 A 
ATOM     13  C   UNL     1       5.624   4.124  15.654  0.00  0.00    +0.000 A 
ATOM     14  C   UNL     1       4.782   3.735  16.705  0.00  0.00    +0.000 A 
ATOM     15  C   UNL     1       4.131   4.734  17.454  0.00  0.00    +0.000 A 
ENDBRANCH   2   3
BRANCH   1  24
ATOM     16  C   UNL     1       1.330  10.577  18.676  0.00  0.00    +0.000 A 
ATOM     17  N   UNL     1       1.020  11.826  19.151  0.00  0.00    +0.000 N 
ATOM     18  C   UNL     1       0.390  11.740  20.375  0.00  0.00    +0.000 A 
ATOM     19  C   UNL     1      -0.070  12.758  21.221  0.00  0.00    +0.000 A 
ATOM     20  C   UNL     1      -0.678  12.378  22.420  0.00  0.00    +0.000 A 
ATOM     21  C   UNL     1      -0.827  11.036  22.755  0.00  0.00    +0.000 A 
ATOM     22  C   UNL     1      -0.356  10.030  21.901  0.00  0.00    +0.000 A 
ATOM     23  C   UNL     1       0.268  10.382  20.684  0.00  0.00    +0.000 A 
ATOM     24  C   UNL     1       0.869   9.667  19.603  0.00  0.00    +0.000 A 
ATOM     25  H   UNL     1       1.232  12.696  18.691  0.00  0.00    +0.000 HD
BRANCH  16  26
ATOM     26  O   UNL     1       1.958  10.396  17.518  0.00  0.00    +0.000 OA
ATOM     27  H   UNL     1       2.919  10.468  17.638  0.00  0.00    +0.000 HD
ENDBRANCH  16  26
ENDBRANCH   1  24
TORSDOF 3
ENDMDL
MODEL 6
REMARK VINA RESULT:      -8.3      3.821      5.934
REMARK  Name = 
REMARK  3 active torsions:
REMARK  status: ('A' for Active; 'I' for Inactive)
REMARK    1  A    between atoms: O_1  and  C_2
REMARK    2  A    between atoms: C_10  and  N_11
REMARK    3  A    between atoms: N_12  and  C_13
REMARK                            x       y       z     vdW  Elec       q    Type
REMARK                         _______ _______ _______ _____ _____    ______ ____
ROOT
ATOM      1  N   UNL     1       4.803   5.484  16.243  0.00  0.00    +0.000 NA
ATOM      2  N   UNL     1       4.802   6.637  16.716  0.00  0.00    +0.000 NA
ENDROOT
BRANCH   2   3
ATOM      3  C   UNL     1       3.790   6.852  17.657  0.00  0.00    +0.000 A 
ATOM      4  N   UNL     1       3.134   8.026  17.822  0.00  0.00    +0.000 NA
ATOM      5  C   UNL     1       2.202   8.088  18.794  0.00  0.00    +0.000 A 
ATOM      6  N   UNL     1       1.812   7.115  19.641  0.00  0.00    +0.000 NA
ATOM      7  C   UNL     1       2.498   5.958  19.471  0.00  0.00    +0.000 A 
ATOM      8  C   UNL     1       3.477   5.809  18.503  0.00  0.00    +0.000 A 
ATOM      9  O   UNL     1       4.037   4.571  18.565  0.00  0.00    +0.000 OA
ATOM     10  C   UNL     1       3.452   3.936  19.617  0.00  0.00    +0.000 A 
ATOM     11  C   UNL     1       3.812   2.675  20.084  0.00  0.00    +0.000 A 
ATOM     12  C   UNL     1       3.124   2.208  21.207  0.00  0.00    +0.000 A 
ATOM     13  C   UNL     1       2.095   2.959  21.790  0.00  0.00    +0.000 A 
ATOM     14  C   UNL     1       1.742   4.217  21.284  0.00  0.00    +0.000 A 
ATOM     15  C   UNL     1       2.462   4.732  20.189  0.00  0.00    +0.000 A 
ENDBRANCH   2   3
BRANCH   1  24
ATOM     16  C   UNL     1       7.125   5.800  15.526  0.00  0.00    +0.000 A 
ATOM     17  N   UNL     1       7.880   5.416  14.447  0.00  0.00    +0.000 N 
ATOM     18  C   UNL     1       7.129   4.660  13.569  0.00  0.00    +0.000 A 
ATOM     19  C   UNL     1       7.488   4.093  12.341  0.00  0.00    +0.000 A 
ATOM     20  C   UNL     1       6.511   3.367  11.653  0.00  0.00    +0.000 A 
ATOM     21  C   UNL     1       5.232   3.210  12.177  0.00  0.00    +0.000 A 
ATOM     22  C   UNL     1       4.888   3.789  13.405  0.00  0.00    +0.000 A 
ATOM     23  C   UNL     1       5.851   4.533  14.122  0.00  0.00    +0.000 A 
ATOM     24  C   UNL     1       5.868   5.261  15.352  0.00  0.00    +0.000 A 
ATOM     25  H   UNL     1       8.844   5.658  14.291  0.00  0.00    +0.000 HD
BRANCH  16  26
ATOM     26  O   UNL     1       7.620   6.552  16.504  0.00  0.00    +0.000 OA
ATOM     27  H   UNL     1       6.916   7.079  16.917  0.00  0.00    +0.000 HD
ENDBRANCH  16  26
ENDBRANCH   1  24
TORSDOF 3
ENDMDL
MODEL 7
REMARK VINA RESULT:      -8.3      3.649      4.919
REMARK  Name = 
REMARK  3 active torsions:
REMARK  status: ('A' for Active; 'I' for Inactive)
REMARK    1  A    between atoms: O_1  and  C_2
REMARK    2  A    between atoms: C_10  and  N_11
REMARK    3  A    between atoms: N_12  and  C_13
REMARK                            x       y       z     vdW  Elec       q    Type
REMARK                         _______ _______ _______ _____ _____    ______ ____
ROOT
ATOM      1  N   UNL     1       5.054   4.843  16.699  0.00  0.00    +0.000 NA
ATOM      2  N   UNL     1       4.765   5.956  17.179  0.00  0.00    +0.000 NA
ENDROOT
BRANCH   2   3
ATOM      3  C   UNL     1       3.871   5.886  18.251  0.00  0.00    +0.000 A 
ATOM      4  N   UNL     1       3.656   4.777  19.000  0.00  0.00    +0.000 NA
ATOM      5  C   UNL     1       2.739   4.855  19.983  0.00  0.00    +0.000 A 
ATOM      6  N   UNL     1       1.990   5.917  20.344  0.00  0.00    +0.000 NA
ATOM      7  C   UNL     1       2.207   7.006  19.568  0.00  0.00    +0.000 A 
ATOM      8  C   UNL     1       3.125   7.012  18.532  0.00  0.00    +0.000 A 
ATOM      9  O   UNL     1       3.123   8.209  17.886  0.00  0.00    +0.000 OA
ATOM     10  C   UNL     1       2.158   8.963  18.478  0.00  0.00    +0.000 A 
ATOM     11  C   UNL     1       1.767  10.229  18.052  0.00  0.00    +0.000 A 
ATOM     12  C   UNL     1       0.723  10.830  18.761  0.00  0.00    +0.000 A 
ATOM     13  C   UNL     1       0.146  10.200  19.872  0.00  0.00    +0.000 A 
ATOM     14  C   UNL     1       0.576   8.933  20.289  0.00  0.00    +0.000 A 
ATOM     15  C   UNL     1       1.586   8.285  19.552  0.00  0.00    +0.000 A 
ENDBRANCH   2   3
BRANCH   1  24
ATOM     16  C   UNL     1       7.170   5.658  15.771  0.00  0.00    +0.000 A 
ATOM     17  N   UNL     1       7.822   5.546  14.569  0.00  0.00    +0.000 N 
ATOM     18  C   UNL     1       7.093   4.775  13.688  0.00  0.00    +0.000 A 
ATOM     19  C   UNL     1       7.369   4.429  12.359  0.00  0.00    +0.000 A 
ATOM     20  C   UNL     1       6.441   3.624  11.693  0.00  0.00    +0.000 A 
ATOM     21  C   UNL     1       5.289   3.177  12.334  0.00  0.00    +0.000 A 
ATOM     22  C   UNL     1       5.026   3.536  13.662  0.00  0.00    +0.000 A 
ATOM     23  C   UNL     1       5.943   4.354  14.360  0.00  0.00    +0.000 A 
ATOM     24  C   UNL     1       6.008   4.924  15.669  0.00  0.00    +0.000 A 
ATOM     25  H   UNL     1       8.703   5.977  14.339  0.00  0.00    +0.000 HD
BRANCH  16  26
ATOM     26  O   UNL     1       7.664   6.368  16.781  0.00  0.00    +0.000 OA
ATOM     27  H   UNL     1       8.344   5.860  17.252  0.00  0.00    +0.000 HD
ENDBRANCH  16  26
ENDBRANCH   1  24
TORSDOF 3
ENDMDL
MODEL 8
REMARK VINA RESULT:      -8.2      1.721      7.106
REMARK  Name = 
REMARK  3 active torsions:
REMARK  status: ('A' for Active; 'I' for Inactive)
REMARK    1  A    between atoms: O_1  and  C_2
REMARK    2  A    between atoms: C_10  and  N_11
REMARK    3  A    between atoms: N_12  and  C_13
REMARK                            x       y       z     vdW  Elec       q    Type
REMARK                         _______ _______ _______ _____ _____    ______ ____
ROOT
ATOM      1  N   UNL     1       2.032   8.049  18.727  0.00  0.00    +0.000 NA
ATOM      2  N   UNL     1       3.109   8.248  18.135  0.00  0.00    +0.000 NA
ENDROOT
BRANCH   2   3
ATOM      3  C   UNL     1       3.671   7.088  17.593  0.00  0.00    +0.000 A 
ATOM      4  N   UNL     1       4.639   7.076  16.644  0.00  0.00    +0.000 NA
ATOM      5  C   UNL     1       5.060   5.876  16.198  0.00  0.00    +0.000 A 
ATOM      6  N   UNL     1       4.648   4.651  16.582  0.00  0.00    +0.000 NA
ATOM      7  C   UNL     1       3.665   4.690  17.514  0.00  0.00    +0.000 A 
ATOM      8  C   UNL     1       3.168   5.878  18.022  0.00  0.00    +0.000 A 
ATOM      9  O   UNL     1       2.165   5.645  18.911  0.00  0.00    +0.000 OA
ATOM     10  C   UNL     1       1.979   4.297  18.935  0.00  0.00    +0.000 A 
ATOM     11  C   UNL     1       0.975   3.647  19.648  0.00  0.00    +0.000 A 
ATOM     12  C   UNL     1       0.916   2.258  19.512  0.00  0.00    +0.000 A 
ATOM     13  C   UNL     1       1.854   1.565  18.735  0.00  0.00    +0.000 A 
ATOM     14  C   UNL     1       2.864   2.247  18.043  0.00  0.00    +0.000 A 
ATOM     15  C   UNL     1       2.907   3.652  18.120  0.00  0.00    +0.000 A 
ENDBRANCH   2   3
BRANCH   1  24
ATOM     16  C   UNL     1       1.543  10.443  18.552  0.00  0.00    +0.000 A 
ATOM     17  N   UNL     1       0.899  11.373  19.328  0.00  0.00    +0.000 N 
ATOM     18  C   UNL     1       0.408  10.792  20.479  0.00  0.00    +0.000 A 
ATOM     19  C   UNL     1      -0.283  11.371  21.551  0.00  0.00    +0.000 A 
ATOM     20  C   UNL     1      -0.667  10.533  22.602  0.00  0.00    +0.000 A 
ATOM     21  C   UNL     1      -0.377   9.172  22.577  0.00  0.00    +0.000 A 
ATOM     22  C   UNL     1       0.320   8.611  21.500  0.00  0.00    +0.000 A 
ATOM     23  C   UNL     1       0.726   9.432  20.424  0.00  0.00    +0.000 A 
ATOM     24  C   UNL     1       1.444   9.234  19.205  0.00  0.00    +0.000 A 
ATOM     25  H   UNL     1       0.806  12.352  19.112  0.00  0.00    +0.000 HD
BRANCH  16  26
ATOM     26  O   UNL     1       2.119  10.763  17.396  0.00  0.00    +0.000 OA
ATOM     27  H   UNL     1       3.069  10.922  17.523  0.00  0.00    +0.000 HD
ENDBRANCH  16  26
ENDBRANCH   1  24
TORSDOF 3
ENDMDL
MODEL 9
REMARK VINA RESULT:      -8.2      3.789      5.661
REMARK  Name = 
REMARK  3 active torsions:
REMARK  status: ('A' for Active; 'I' for Inactive)
REMARK    1  A    between atoms: O_1  and  C_2
REMARK    2  A    between atoms: C_10  and  N_11
REMARK    3  A    between atoms: N_12  and  C_13
REMARK                            x       y       z     vdW  Elec       q    Type
REMARK                         _______ _______ _______ _____ _____    ______ ____
ROOT
ATOM      1  N   UNL     1       5.026   4.450  16.495  0.00  0.00    +0.000 NA
ATOM      2  N   UNL     1       5.522   4.434  17.638  0.00  0.00    +0.000 NA
ENDROOT
BRANCH   2   3
ATOM      3  C   UNL     1       4.595   4.148  18.644  0.00  0.00    +0.000 A 
ATOM      4  N   UNL     1       4.409   2.921  19.190  0.00  0.00    +0.000 NA
ATOM      5  C   UNL     1       3.454   2.795  20.131  0.00  0.00    +0.000 A 
ATOM      6  N   UNL     1       2.642   3.749  20.630  0.00  0.00    +0.000 NA
ATOM      7  C   UNL     1       2.831   4.960  20.054  0.00  0.00    +0.000 A 
ATOM      8  C   UNL     1       3.784   5.178  19.073  0.00  0.00    +0.000 A 
ATOM      9  O   UNL     1       3.746   6.465  18.635  0.00  0.00    +0.000 OA
ATOM     10  C   UNL     1       2.724   7.068  19.301  0.00  0.00    +0.000 A 
ATOM     11  C   UNL     1       2.286   8.369  19.072  0.00  0.00    +0.000 A 
ATOM     12  C   UNL     1       1.190   8.797  19.825  0.00  0.00    +0.000 A 
ATOM     13  C   UNL     1       0.606   7.967  20.791  0.00  0.00    +0.000 A 
ATOM     14  C   UNL     1       1.082   6.668  21.011  0.00  0.00    +0.000 A 
ATOM     15  C   UNL     1       2.149   6.196  20.223  0.00  0.00    +0.000 A 
ENDBRANCH   2   3
BRANCH   1  24
ATOM     16  C   UNL     1       7.079   5.488  15.651  0.00  0.00    +0.000 A 
ATOM     17  N   UNL     1       7.754   5.501  14.457  0.00  0.00    +0.000 N 
ATOM     18  C   UNL     1       7.102   4.726  13.520  0.00  0.00    +0.000 A 
ATOM     19  C   UNL     1       7.422   4.483  12.178  0.00  0.00    +0.000 A 
ATOM     20  C   UNL     1       6.572   3.644  11.452  0.00  0.00    +0.000 A 
ATOM     21  C   UNL     1       5.453   3.068  12.046  0.00  0.00    +0.000 A 
ATOM     22  C   UNL     1       5.145   3.325  13.387  0.00  0.00    +0.000 A 
ATOM     23  C   UNL     1       5.982   4.173  14.147  0.00  0.00    +0.000 A 
ATOM     24  C   UNL     1       5.983   4.669  15.488  0.00  0.00    +0.000 A 
ATOM     25  H   UNL     1       8.598   6.015  14.267  0.00  0.00    +0.000 HD
BRANCH  16  26
ATOM     26  O   UNL     1       7.500   6.176  16.709  0.00  0.00    +0.000 OA
ATOM     27  H   UNL     1       6.871   6.883  16.927  0.00  0.00    +0.000 HD
ENDBRANCH  16  26
ENDBRANCH   1  24
TORSDOF 3
ENDMDL
