MODEL 1
REMARK VINA RESULT:      -6.3      0.000      0.000
REMARK  Name = 
REMARK  5 active torsions:
REMARK  status: ('A' for Active; 'I' for Inactive)
REMARK    1  A    between atoms: C_2  and  C_3
REMARK    2  A    between atoms: C_3  and  C_4
REMARK    3  A    between atoms: C_3  and  O_5
REMARK    4  A    between atoms: O_5  and  N_6
REMARK    5  A    between atoms: N_14  and  C_15
REMARK                            x       y       z     vdW  Elec       q    Type
REMARK                         _______ _______ _______ _____ _____    ______ ____
ROOT
ATOM      1  N   UNL     1       5.810   4.328  18.924  0.00  0.00    +0.000 NA
ATOM      2  C   UNL     1       4.662   3.815  18.651  0.00  0.00    +0.000 C 
ATOM      3  C   UNL     1       3.586   4.367  17.723  0.00  0.00    +0.000 C 
ATOM      4  C   UNL     1       2.251   4.377  18.505  0.00  0.00    +0.000 C 
ATOM      5  C   UNL     1       1.428   3.063  18.453  0.00  0.00    +0.000 C 
ATOM      6  C   UNL     1       1.731   2.323  19.766  0.00  0.00    +0.000 C 
ATOM      7  C   UNL     1       2.971   3.062  20.258  0.00  0.00    +0.000 C 
ATOM      8  C   UNL     1       4.195   2.575  19.392  0.00  0.00    +0.000 C 
ATOM      9  N   UNL     1       2.594   4.477  19.937  0.00  0.00    +0.000 NA
ATOM     10  C   UNL     1       1.478   5.068  20.679  0.00  0.00    +0.000 C 
ENDROOT
BRANCH   1  11
ATOM     11  O   UNL     1       5.954   5.629  18.364  0.00  0.00    +0.000 OA
BRANCH  11  12
ATOM     12  C   UNL     1       7.223   5.809  17.716  0.00  0.00    +0.000 C 
ATOM     13  C   UNL     1       7.615   7.274  17.617  0.00  0.00    +0.000 C 
BRANCH  12  15
ATOM     14  C   UNL     1       6.930   4.707  15.133  0.00  0.00    +0.000 C 
ATOM     15  C   UNL     1       7.066   5.216  16.326  0.00  0.00    +0.000 C 
ENDBRANCH  12  15
ENDBRANCH  11  12
ENDBRANCH   1  11
TORSDOF 3
ENDMDL
MODEL 2
REMARK VINA RESULT:      -6.3      1.509      2.494
REMARK  Name = 
REMARK  5 active torsions:
REMARK  status: ('A' for Active; 'I' for Inactive)
REMARK    1  A    between atoms: C_2  and  C_3
REMARK    2  A    between atoms: C_3  and  C_4
REMARK    3  A    between atoms: C_3  and  O_5
REMARK    4  A    between atoms: O_5  and  N_6
REMARK    5  A    between atoms: N_14  and  C_15
REMARK                            x       y       z     vdW  Elec       q    Type
REMARK                         _______ _______ _______ _____ _____    ______ ____
ROOT
ATOM      1  N   UNL     1       3.993   5.689  17.244  0.00  0.00    +0.000 NA
ATOM      2  C   UNL     1       3.057   5.437  18.090  0.00  0.00    +0.000 C 
ATOM      3  C   UNL     1       2.947   5.911  19.535  0.00  0.00    +0.000 C 
ATOM      4  C   UNL     1       2.675   4.669  20.417  0.00  0.00    +0.000 C 
ATOM      5  C   UNL     1       1.184   4.270  20.579  0.00  0.00    +0.000 C 
ATOM      6  C   UNL     1       0.944   3.121  19.585  0.00  0.00    +0.000 C 
ATOM      7  C   UNL     1       2.171   3.230  18.685  0.00  0.00    +0.000 C 
ATOM      8  C   UNL     1       1.953   4.461  17.725  0.00  0.00    +0.000 C 
ATOM      9  N   UNL     1       3.237   3.505  19.703  0.00  0.00    +0.000 NA
ATOM     10  C   UNL     1       3.556   2.440  20.657  0.00  0.00    +0.000 C 
ENDROOT
BRANCH   1  11
ATOM     11  O   UNL     1       5.083   6.378  17.850  0.00  0.00    +0.000 OA
BRANCH  11  12
ATOM     12  C   UNL     1       6.342   6.056  17.240  0.00  0.00    +0.000 C 
ATOM     13  C   UNL     1       6.964   4.803  17.833  0.00  0.00    +0.000 C 
BRANCH  12  15
ATOM     14  C   UNL     1       8.015   8.281  17.708  0.00  0.00    +0.000 C 
ATOM     15  C   UNL     1       7.242   7.254  17.492  0.00  0.00    +0.000 C 
ENDBRANCH  12  15
ENDBRANCH  11  12
ENDBRANCH   1  11
TORSDOF 3
ENDMDL
MODEL 3
REMARK VINA RESULT:      -6.3      3.038      4.664
REMARK  Name = 
REMARK  5 active torsions:
REMARK  status: ('A' for Active; 'I' for Inactive)
REMARK    1  A    between atoms: C_2  and  C_3
REMARK    2  A    between atoms: C_3  and  C_4
REMARK    3  A    between atoms: C_3  and  O_5
REMARK    4  A    between atoms: O_5  and  N_6
REMARK    5  A    between atoms: N_14  and  C_15
REMARK                            x       y       z     vdW  Elec       q    Type
REMARK                         _______ _______ _______ _____ _____    ______ ____
ROOT
ATOM      1  N   UNL     1       6.602   4.341  14.628  0.00  0.00    +0.000 NA
ATOM      2  C   UNL     1       6.264   4.158  15.856  0.00  0.00    +0.000 C 
ATOM      3  C   UNL     1       4.958   3.584  16.393  0.00  0.00    +0.000 C 
ATOM      4  C   UNL     1       4.418   4.566  17.461  0.00  0.00    +0.000 C 
ATOM      5  C   UNL     1       4.946   4.351  18.904  0.00  0.00    +0.000 C 
ATOM      6  C   UNL     1       6.068   5.383  19.100  0.00  0.00    +0.000 C 
ATOM      7  C   UNL     1       6.348   5.812  17.663  0.00  0.00    +0.000 C 
ATOM      8  C   UNL     1       7.168   4.658  16.969  0.00  0.00    +0.000 C 
ATOM      9  N   UNL     1       4.952   5.900  17.125  0.00  0.00    +0.000 NA
ATOM     10  C   UNL     1       4.077   6.941  17.672  0.00  0.00    +0.000 C 
ENDROOT
BRANCH   1  11
ATOM     11  O   UNL     1       5.520   4.083  13.738  0.00  0.00    +0.000 OA
BRANCH  11  12
ATOM     12  C   UNL     1       5.924   3.322  12.590  0.00  0.00    +0.000 C 
ATOM     13  C   UNL     1       7.103   3.952  11.868  0.00  0.00    +0.000 C 
BRANCH  12  15
ATOM     14  C   UNL     1       3.674   3.245  10.887  0.00  0.00    +0.000 C 
ATOM     15  C   UNL     1       4.713   3.280  11.673  0.00  0.00    +0.000 C 
ENDBRANCH  12  15
ENDBRANCH  11  12
ENDBRANCH   1  11
TORSDOF 3
ENDMDL
MODEL 4
REMARK VINA RESULT:      -6.3      0.782      1.492
REMARK  Name = 
REMARK  5 active torsions:
REMARK  status: ('A' for Active; 'I' for Inactive)
REMARK    1  A    between atoms: C_2  and  C_3
REMARK    2  A    between atoms: C_3  and  C_4
REMARK    3  A    between atoms: C_3  and  O_5
REMARK    4  A    between atoms: O_5  and  N_6
REMARK    5  A    between atoms: N_14  and  C_15
REMARK                            x       y       z     vdW  Elec       q    Type
REMARK                         _______ _______ _______ _____ _____    ______ ____
ROOT
ATOM      1  N   UNL     1       5.677   4.362  19.109  0.00  0.00    +0.000 NA
ATOM      2  C   UNL     1       4.582   3.773  18.778  0.00  0.00    +0.000 C 
ATOM      3  C   UNL     1       3.532   4.241  17.776  0.00  0.00    +0.000 C 
ATOM      4  C   UNL     1       2.154   4.178  18.477  0.00  0.00    +0.000 C 
ATOM      5  C   UNL     1       1.420   2.813  18.401  0.00  0.00    +0.000 C 
ATOM      6  C   UNL     1       1.688   2.114  19.744  0.00  0.00    +0.000 C 
ATOM      7  C   UNL     1       2.847   2.938  20.295  0.00  0.00    +0.000 C 
ATOM      8  C   UNL     1       4.149   2.517  19.512  0.00  0.00    +0.000 C 
ATOM      9  N   UNL     1       2.402   4.322  19.925  0.00  0.00    +0.000 NA
ATOM     10  C   UNL     1       1.208   4.851  20.588  0.00  0.00    +0.000 C 
ENDROOT
BRANCH   1  11
ATOM     11  O   UNL     1       5.773   5.661  18.534  0.00  0.00    +0.000 OA
BRANCH  11  12
ATOM     12  C   UNL     1       6.741   5.722  17.475  0.00  0.00    +0.000 C 
ATOM     13  C   UNL     1       7.784   4.622  17.586  0.00  0.00    +0.000 C 
BRANCH  12  15
ATOM     14  C   UNL     1       7.973   8.252  17.703  0.00  0.00    +0.000 C 
ATOM     15  C   UNL     1       7.405   7.083  17.597  0.00  0.00    +0.000 C 
ENDBRANCH  12  15
ENDBRANCH  11  12
ENDBRANCH   1  11
TORSDOF 3
ENDMDL
MODEL 5
REMARK VINA RESULT:      -6.2      1.338      2.444
REMARK  Name = 
REMARK  5 active torsions:
REMARK  status: ('A' for Active; 'I' for Inactive)
REMARK    1  A    between atoms: C_2  and  C_3
REMARK    2  A    between atoms: C_3  and  C_4
REMARK    3  A    between atoms: C_3  and  O_5
REMARK    4  A    between atoms: O_5  and  N_6
REMARK    5  A    between atoms: N_14  and  C_15
REMARK                            x       y       z     vdW  Elec       q    Type
REMARK                         _______ _______ _______ _____ _____    ______ ____
ROOT
ATOM      1  N   UNL     1       4.044   4.032  16.813  0.00  0.00    +0.000 NA
ATOM      2  C   UNL     1       3.287   4.503  17.741  0.00  0.00    +0.000 C 
ATOM      3  C   UNL     1       3.684   5.397  18.911  0.00  0.00    +0.000 C 
ATOM      4  C   UNL     1       3.130   4.751  20.203  0.00  0.00    +0.000 C 
ATOM      5  C   UNL     1       1.675   5.137  20.580  0.00  0.00    +0.000 C 
ATOM      6  C   UNL     1       0.792   3.975  20.098  0.00  0.00    +0.000 C 
ATOM      7  C   UNL     1       1.739   3.236  19.158  0.00  0.00    +0.000 C 
ATOM      8  C   UNL     1       1.835   4.069  17.823  0.00  0.00    +0.000 C 
ATOM      9  N   UNL     1       3.015   3.303  19.944  0.00  0.00    +0.000 NA
ATOM     10  C   UNL     1       3.074   2.562  21.206  0.00  0.00    +0.000 C 
ENDROOT
BRANCH   1  11
ATOM     11  O   UNL     1       5.419   4.307  17.062  0.00  0.00    +0.000 OA
BRANCH  11  12
ATOM     12  C   UNL     1       5.971   5.240  16.120  0.00  0.00    +0.000 C 
ATOM     13  C   UNL     1       6.860   4.561  15.092  0.00  0.00    +0.000 C 
BRANCH  12  15
ATOM     14  C   UNL     1       7.479   7.074  17.647  0.00  0.00    +0.000 C 
ATOM     15  C   UNL     1       6.783   6.227  16.941  0.00  0.00    +0.000 C 
ENDBRANCH  12  15
ENDBRANCH  11  12
ENDBRANCH   1  11
TORSDOF 3
ENDMDL
MODEL 6
REMARK VINA RESULT:      -6.2      1.120      1.836
REMARK  Name = 
REMARK  5 active torsions:
REMARK  status: ('A' for Active; 'I' for Inactive)
REMARK    1  A    between atoms: C_2  and  C_3
REMARK    2  A    between atoms: C_3  and  C_4
REMARK    3  A    between atoms: C_3  and  O_5
REMARK    4  A    between atoms: O_5  and  N_6
REMARK    5  A    between atoms: N_14  and  C_15
REMARK                            x       y       z     vdW  Elec       q    Type
REMARK                         _______ _______ _______ _____ _____    ______ ____
ROOT
ATOM      1  N   UNL     1       4.858   3.922  17.393  0.00  0.00    +0.000 NA
ATOM      2  C   UNL     1       3.766   3.418  17.852  0.00  0.00    +0.000 C 
ATOM      3  C   UNL     1       2.338   3.720  17.416  0.00  0.00    +0.000 C 
ATOM      4  C   UNL     1       1.518   4.045  18.687  0.00  0.00    +0.000 C 
ATOM      5  C   UNL     1       0.891   2.827  19.415  0.00  0.00    +0.000 C 
ATOM      6  C   UNL     1       1.831   2.507  20.588  0.00  0.00    +0.000 C 
ATOM      7  C   UNL     1       3.083   3.289  20.203  0.00  0.00    +0.000 C 
ATOM      8  C   UNL     1       3.811   2.491  19.054  0.00  0.00    +0.000 C 
ATOM      9  N   UNL     1       2.469   4.558  19.692  0.00  0.00    +0.000 NA
ATOM     10  C   UNL     1       1.769   5.409  20.656  0.00  0.00    +0.000 C 
ENDROOT
BRANCH   1  11
ATOM     11  O   UNL     1       4.605   4.980  16.474  0.00  0.00    +0.000 OA
BRANCH  11  12
ATOM     12  C   UNL     1       5.788   5.388  15.769  0.00  0.00    +0.000 C 
ATOM     13  C   UNL     1       6.545   4.206  15.187  0.00  0.00    +0.000 C 
BRANCH  12  15
ATOM     14  C   UNL     1       7.391   6.728  17.667  0.00  0.00    +0.000 C 
ATOM     15  C   UNL     1       6.651   6.109  16.790  0.00  0.00    +0.000 C 
ENDBRANCH  12  15
ENDBRANCH  11  12
ENDBRANCH   1  11
TORSDOF 3
ENDMDL
MODEL 7
REMARK VINA RESULT:      -6.2      1.723      1.896
REMARK  Name = 
REMARK  5 active torsions:
REMARK  status: ('A' for Active; 'I' for Inactive)
REMARK    1  A    between atoms: C_2  and  C_3
REMARK    2  A    between atoms: C_3  and  C_4
REMARK    3  A    between atoms: C_3  and  O_5
REMARK    4  A    between atoms: O_5  and  N_6
REMARK    5  A    between atoms: N_14  and  C_15
REMARK                            x       y       z     vdW  Elec       q    Type
REMARK                         _______ _______ _______ _____ _____    ______ ____
ROOT
ATOM      1  N   UNL     1       4.575   3.243  17.503  0.00  0.00    +0.000 NA
ATOM      2  C   UNL     1       3.497   2.959  18.145  0.00  0.00    +0.000 C 
ATOM      3  C   UNL     1       2.059   3.279  17.751  0.00  0.00    +0.000 C 
ATOM      4  C   UNL     1       1.382   3.963  18.963  0.00  0.00    +0.000 C 
ATOM      5  C   UNL     1       0.738   3.008  20.003  0.00  0.00    +0.000 C 
ATOM      6  C   UNL     1       1.756   2.886  21.149  0.00  0.00    +0.000 C 
ATOM      7  C   UNL     1       3.020   3.441  20.501  0.00  0.00    +0.000 C 
ATOM      8  C   UNL     1       3.584   2.336  19.527  0.00  0.00    +0.000 C 
ATOM      9  N   UNL     1       2.454   4.606  19.747  0.00  0.00    +0.000 NA
ATOM     10  C   UNL     1       1.905   5.718  20.527  0.00  0.00    +0.000 C 
ENDROOT
BRANCH   1  11
ATOM     11  O   UNL     1       4.316   4.077  16.378  0.00  0.00    +0.000 OA
BRANCH  11  12
ATOM     12  C   UNL     1       5.480   4.806  15.958  0.00  0.00    +0.000 C 
ATOM     13  C   UNL     1       5.224   6.302  15.879  0.00  0.00    +0.000 C 
BRANCH  12  15
ATOM     14  C   UNL     1       6.136   3.800  13.403  0.00  0.00    +0.000 C 
ATOM     15  C   UNL     1       5.833   4.265  14.582  0.00  0.00    +0.000 C 
ENDBRANCH  12  15
ENDBRANCH  11  12
ENDBRANCH   1  11
TORSDOF 3
ENDMDL
MODEL 8
REMARK VINA RESULT:      -6.1      1.634      2.193
REMARK  Name = 
REMARK  5 active torsions:
REMARK  status: ('A' for Active; 'I' for Inactive)
REMARK    1  A    between atoms: C_2  and  C_3
REMARK    2  A    between atoms: C_3  and  C_4
REMARK    3  A    between atoms: C_3  and  O_5
REMARK    4  A    between atoms: O_5  and  N_6
REMARK    5  A    between atoms: N_14  and  C_15
REMARK                            x       y       z     vdW  Elec       q    Type
REMARK                         _______ _______ _______ _____ _____    ______ ____
ROOT
ATOM      1  N   UNL     1       4.800   3.856  17.437  0.00  0.00    +0.000 NA
ATOM      2  C   UNL     1       3.707   3.373  17.914  0.00  0.00    +0.000 C 
ATOM      3  C   UNL     1       2.279   3.675  17.476  0.00  0.00    +0.000 C 
ATOM      4  C   UNL     1       1.467   4.040  18.742  0.00  0.00    +0.000 C 
ATOM      5  C   UNL     1       0.834   2.847  19.505  0.00  0.00    +0.000 C 
ATOM      6  C   UNL     1       1.777   2.551  20.682  0.00  0.00    +0.000 C 
ATOM      7  C   UNL     1       3.033   3.311  20.271  0.00  0.00    +0.000 C 
ATOM      8  C   UNL     1       3.750   2.478  19.140  0.00  0.00    +0.000 C 
ATOM      9  N   UNL     1       2.427   4.571  19.729  0.00  0.00    +0.000 NA
ATOM     10  C   UNL     1       1.738   5.454  20.673  0.00  0.00    +0.000 C 
ENDROOT
BRANCH   1  11
ATOM     11  O   UNL     1       4.552   4.891  16.492  0.00  0.00    +0.000 OA
BRANCH  11  12
ATOM     12  C   UNL     1       5.128   6.146  16.889  0.00  0.00    +0.000 C 
ATOM     13  C   UNL     1       6.198   5.975  17.954  0.00  0.00    +0.000 C 
BRANCH  12  15
ATOM     14  C   UNL     1       2.990   7.686  17.902  0.00  0.00    +0.000 C 
ATOM     15  C   UNL     1       3.977   6.975  17.434  0.00  0.00    +0.000 C 
ENDBRANCH  12  15
ENDBRANCH  11  12
ENDBRANCH   1  11
TORSDOF 3
ENDMDL
MODEL 9
REMARK VINA RESULT:      -6.1      1.514      2.228
REMARK  Name = 
REMARK  5 active torsions:
REMARK  status: ('A' for Active; 'I' for Inactive)
REMARK    1  A    between atoms: C_2  and  C_3
REMARK    2  A    between atoms: C_3  and  C_4
REMARK    3  A    between atoms: C_3  and  O_5
REMARK    4  A    between atoms: O_5  and  N_6
REMARK    5  A    between atoms: N_14  and  C_15
REMARK                            x       y       z     vdW  Elec       q    Type
REMARK                         _______ _______ _______ _____ _____    ______ ____
ROOT
ATOM      1  N   UNL     1       3.939   4.721  16.897  0.00  0.00    +0.000 NA
ATOM      2  C   UNL     1       3.119   4.919  17.869  0.00  0.00    +0.000 C 
ATOM      3  C   UNL     1       3.367   5.686  19.163  0.00  0.00    +0.000 C 
ATOM      4  C   UNL     1       2.937   4.775  20.337  0.00  0.00    +0.000 C 
ATOM      5  C   UNL     1       1.440   4.854  20.739  0.00  0.00    +0.000 C 
ATOM      6  C   UNL     1       0.761   3.644  20.077  0.00  0.00    +0.000 C 
ATOM      7  C   UNL     1       1.813   3.219  19.058  0.00  0.00    +0.000 C 
ATOM      8  C   UNL     1       1.761   4.242  17.859  0.00  0.00    +0.000 C 
ATOM      9  N   UNL     1       3.064   3.381  19.869  0.00  0.00    +0.000 NA
ATOM     10  C   UNL     1       3.254   2.484  21.011  0.00  0.00    +0.000 C 
ENDROOT
BRANCH   1  11
ATOM     11  O   UNL     1       5.250   5.182  17.209  0.00  0.00    +0.000 OA
BRANCH  11  12
ATOM     12  C   UNL     1       6.261   4.209  16.901  0.00  0.00    +0.000 C 
ATOM     13  C   UNL     1       7.638   4.644  17.373  0.00  0.00    +0.000 C 
BRANCH  12  15
ATOM     14  C   UNL     1       6.238   3.940  14.091  0.00  0.00    +0.000 C 
ATOM     15  C   UNL     1       6.249   4.064  15.389  0.00  0.00    +0.000 C 
ENDBRANCH  12  15
ENDBRANCH  11  12
ENDBRANCH   1  11
TORSDOF 3
ENDMDL
