MODEL 1
REMARK VINA RESULT:      -7.6      0.000      0.000
REMARK  Name = 
REMARK  4 active torsions:
REMARK  status: ('A' for Active; 'I' for Inactive)
REMARK    1  A    between atoms: C_1  and  S_2
REMARK    2  A    between atoms: S_2  and  C_3
REMARK    3  A    between atoms: C_5  and  C_6
REMARK    4  A    between atoms: C_12  and  C_13
REMARK                            x       y       z     vdW  Elec       q    Type
REMARK                         _______ _______ _______ _____ _____    ______ ____
ROOT
ATOM      1  C   UNL     1       4.920   5.869  16.939  0.00  0.00    +0.000 A 
ATOM      2  N   UNL     1       4.256   6.988  17.099  0.00  0.00    +0.000 NA
ATOM      3  C   UNL     1       3.299   6.695  18.053  0.00  0.00    +0.000 A 
ATOM      4  C   UNL     1       3.348   5.351  18.422  0.00  0.00    +0.000 A 
ATOM      5  N   UNL     1       4.431   4.868  17.715  0.00  0.00    +0.000 N 
ATOM      6  H   UNL     1       4.796   3.928  17.742  0.00  0.00    +0.000 HD
ENDROOT
BRANCH   3   7
ATOM      7  C   UNL     1       2.400   7.715  18.576  0.00  0.00    +0.000 A 
ATOM      8  C   UNL     1       2.053   7.716  19.933  0.00  0.00    +0.000 A 
ATOM      9  C   UNL     1       1.185   8.689  20.441  0.00  0.00    +0.000 A 
ATOM     10  C   UNL     1       0.666   9.673  19.602  0.00  0.00    +0.000 A 
ATOM     11  C   UNL     1       1.006   9.687  18.252  0.00  0.00    +0.000 A 
ATOM     12  C   UNL     1       1.849   8.699  17.743  0.00  0.00    +0.000 A 
ENDBRANCH   3   7
BRANCH   4  13
ATOM     13  C   UNL     1       2.534   4.509  19.301  0.00  0.00    +0.000 A 
ATOM     14  C   UNL     1       2.806   4.439  20.675  0.00  0.00    +0.000 A 
ATOM     15  C   UNL     1       2.073   3.599  21.514  0.00  0.00    +0.000 A 
ATOM     16  C   UNL     1       1.027   2.848  20.994  0.00  0.00    +0.000 A 
ATOM     17  C   UNL     1       0.723   2.924  19.636  0.00  0.00    +0.000 A 
ATOM     18  C   UNL     1       1.478   3.742  18.791  0.00  0.00    +0.000 A 
ENDBRANCH   4  13
BRANCH   1  20
ATOM     19  C   UNL     1       7.314   4.594  17.034  0.00  0.00    +0.000 C 
ATOM     20  S   UNL     1       6.279   5.574  15.924  0.00  0.00    +0.000 S 
ENDBRANCH   1  20
TORSDOF 3
ENDMDL
MODEL 2
REMARK VINA RESULT:      -7.6      0.738      4.491
REMARK  Name = 
REMARK  4 active torsions:
REMARK  status: ('A' for Active; 'I' for Inactive)
REMARK    1  A    between atoms: C_1  and  S_2
REMARK    2  A    between atoms: S_2  and  C_3
REMARK    3  A    between atoms: C_5  and  C_6
REMARK    4  A    between atoms: C_12  and  C_13
REMARK                            x       y       z     vdW  Elec       q    Type
REMARK                         _______ _______ _______ _____ _____    ______ ____
ROOT
ATOM      1  C   UNL     1       5.173   5.443  16.890  0.00  0.00    +0.000 A 
ATOM      2  N   UNL     1       4.678   4.468  17.613  0.00  0.00    +0.000 NA
ATOM      3  C   UNL     1       3.604   5.032  18.276  0.00  0.00    +0.000 A 
ATOM      4  C   UNL     1       3.495   6.393  17.995  0.00  0.00    +0.000 A 
ATOM      5  N   UNL     1       4.495   6.606  17.067  0.00  0.00    +0.000 N 
ATOM      6  H   UNL     1       4.714   7.476  16.606  0.00  0.00    +0.000 HD
ENDROOT
BRANCH   3   7
ATOM      7  C   UNL     1       2.727   4.240  19.128  0.00  0.00    +0.000 A 
ATOM      8  C   UNL     1       3.051   4.041  20.476  0.00  0.00    +0.000 A 
ATOM      9  C   UNL     1       2.216   3.276  21.298  0.00  0.00    +0.000 A 
ATOM     10  C   UNL     1       1.049   2.714  20.785  0.00  0.00    +0.000 A 
ATOM     11  C   UNL     1       0.713   2.909  19.449  0.00  0.00    +0.000 A 
ATOM     12  C   UNL     1       1.561   3.647  18.624  0.00  0.00    +0.000 A 
ENDBRANCH   3   7
BRANCH   4  13
ATOM     13  C   UNL     1       2.621   7.464  18.479  0.00  0.00    +0.000 A 
ATOM     14  C   UNL     1       2.219   8.499  17.621  0.00  0.00    +0.000 A 
ATOM     15  C   UNL     1       1.431   9.554  18.083  0.00  0.00    +0.000 A 
ATOM     16  C   UNL     1       0.999   9.563  19.403  0.00  0.00    +0.000 A 
ATOM     17  C   UNL     1       1.365   8.530  20.264  0.00  0.00    +0.000 A 
ATOM     18  C   UNL     1       2.180   7.490  19.808  0.00  0.00    +0.000 A 
ENDBRANCH   4  13
BRANCH   1  20
ATOM     19  C   UNL     1       5.950   4.067  14.682  0.00  0.00    +0.000 C 
ATOM     20  S   UNL     1       6.496   5.386  15.789  0.00  0.00    +0.000 S 
ENDBRANCH   1  20
TORSDOF 3
ENDMDL
MODEL 3
REMARK VINA RESULT:      -7.6      0.700      4.574
REMARK  Name = 
REMARK  4 active torsions:
REMARK  status: ('A' for Active; 'I' for Inactive)
REMARK    1  A    between atoms: C_1  and  S_2
REMARK    2  A    between atoms: S_2  and  C_3
REMARK    3  A    between atoms: C_5  and  C_6
REMARK    4  A    between atoms: C_12  and  C_13
REMARK                            x       y       z     vdW  Elec       q    Type
REMARK                         _______ _______ _______ _____ _____    ______ ____
ROOT
ATOM      1  C   UNL     1       5.176   5.444  16.915  0.00  0.00    +0.000 A 
ATOM      2  N   UNL     1       4.701   4.481  17.667  0.00  0.00    +0.000 NA
ATOM      3  C   UNL     1       3.627   5.047  18.327  0.00  0.00    +0.000 A 
ATOM      4  C   UNL     1       3.498   6.400  18.014  0.00  0.00    +0.000 A 
ATOM      5  N   UNL     1       4.486   6.602  17.071  0.00  0.00    +0.000 N 
ATOM      6  H   UNL     1       4.689   7.464  16.587  0.00  0.00    +0.000 HD
ENDROOT
BRANCH   3   7
ATOM      7  C   UNL     1       2.768   4.266  19.207  0.00  0.00    +0.000 A 
ATOM      8  C   UNL     1       1.574   3.720  18.718  0.00  0.00    +0.000 A 
ATOM      9  C   UNL     1       0.741   2.974  19.559  0.00  0.00    +0.000 A 
ATOM     10  C   UNL     1       1.097   2.759  20.889  0.00  0.00    +0.000 A 
ATOM     11  C   UNL     1       2.283   3.292  21.386  0.00  0.00    +0.000 A 
ATOM     12  C   UNL     1       3.098   4.059  20.553  0.00  0.00    +0.000 A 
ENDBRANCH   3   7
BRANCH   4  13
ATOM     13  C   UNL     1       2.615   7.471  18.480  0.00  0.00    +0.000 A 
ATOM     14  C   UNL     1       2.230   8.506  17.615  0.00  0.00    +0.000 A 
ATOM     15  C   UNL     1       1.433   9.561  18.062  0.00  0.00    +0.000 A 
ATOM     16  C   UNL     1       0.976   9.571  19.373  0.00  0.00    +0.000 A 
ATOM     17  C   UNL     1       1.326   8.539  20.241  0.00  0.00    +0.000 A 
ATOM     18  C   UNL     1       2.149   7.498  19.801  0.00  0.00    +0.000 A 
ENDBRANCH   4  13
BRANCH   1  20
ATOM     19  C   UNL     1       6.050   3.899  14.861  0.00  0.00    +0.000 C 
ATOM     20  S   UNL     1       6.489   5.377  15.803  0.00  0.00    +0.000 S 
ENDBRANCH   1  20
TORSDOF 3
ENDMDL
MODEL 4
REMARK VINA RESULT:      -7.6      0.732      4.485
REMARK  Name = 
REMARK  4 active torsions:
REMARK  status: ('A' for Active; 'I' for Inactive)
REMARK    1  A    between atoms: C_1  and  S_2
REMARK    2  A    between atoms: S_2  and  C_3
REMARK    3  A    between atoms: C_5  and  C_6
REMARK    4  A    between atoms: C_12  and  C_13
REMARK                            x       y       z     vdW  Elec       q    Type
REMARK                         _______ _______ _______ _____ _____    ______ ____
ROOT
ATOM      1  C   UNL     1       5.170   5.449  16.860  0.00  0.00    +0.000 A 
ATOM      2  N   UNL     1       4.681   4.484  17.599  0.00  0.00    +0.000 NA
ATOM      3  C   UNL     1       3.620   5.059  18.272  0.00  0.00    +0.000 A 
ATOM      4  C   UNL     1       3.512   6.418  17.979  0.00  0.00    +0.000 A 
ATOM      5  N   UNL     1       4.499   6.617  17.035  0.00  0.00    +0.000 N 
ATOM      6  H   UNL     1       4.715   7.482  16.562  0.00  0.00    +0.000 HD
ENDROOT
BRANCH   3   7
ATOM      7  C   UNL     1       2.752   4.280  19.145  0.00  0.00    +0.000 A 
ATOM      8  C   UNL     1       1.576   3.711  18.639  0.00  0.00    +0.000 A 
ATOM      9  C   UNL     1       0.734   2.967  19.473  0.00  0.00    +0.000 A 
ATOM     10  C   UNL     1       1.064   2.777  20.814  0.00  0.00    +0.000 A 
ATOM     11  C   UNL     1       2.232   3.333  21.328  0.00  0.00    +0.000 A 
ATOM     12  C   UNL     1       3.054   4.098  20.502  0.00  0.00    +0.000 A 
ENDBRANCH   3   7
BRANCH   4  13
ATOM     13  C   UNL     1       2.649   7.497  18.465  0.00  0.00    +0.000 A 
ATOM     14  C   UNL     1       2.204   7.510  19.795  0.00  0.00    +0.000 A 
ATOM     15  C   UNL     1       1.338   8.502  20.256  0.00  0.00    +0.000 A 
ATOM     16  C   UNL     1       0.939   9.521  19.400  0.00  0.00    +0.000 A 
ATOM     17  C   UNL     1       1.392   9.540  18.082  0.00  0.00    +0.000 A 
ATOM     18  C   UNL     1       2.235   8.529  17.613  0.00  0.00    +0.000 A 
ENDBRANCH   4  13
BRANCH   1  20
ATOM     19  C   UNL     1       5.943   4.000  14.699  0.00  0.00    +0.000 C 
ATOM     20  S   UNL     1       6.476   5.376  15.741  0.00  0.00    +0.000 S 
ENDBRANCH   1  20
TORSDOF 3
ENDMDL
MODEL 5
REMARK VINA RESULT:      -7.6      0.697      1.304
REMARK  Name = 
REMARK  4 active torsions:
REMARK  status: ('A' for Active; 'I' for Inactive)
REMARK    1  A    between atoms: C_1  and  S_2
REMARK    2  A    between atoms: S_2  and  C_3
REMARK    3  A    between atoms: C_5  and  C_6
REMARK    4  A    between atoms: C_12  and  C_13
REMARK                            x       y       z     vdW  Elec       q    Type
REMARK                         _______ _______ _______ _____ _____    ______ ____
ROOT
ATOM      1  C   UNL     1       5.180   5.625  16.884  0.00  0.00    +0.000 A 
ATOM      2  N   UNL     1       4.539   6.759  17.024  0.00  0.00    +0.000 NA
ATOM      3  C   UNL     1       3.543   6.489  17.944  0.00  0.00    +0.000 A 
ATOM      4  C   UNL     1       3.547   5.144  18.313  0.00  0.00    +0.000 A 
ATOM      5  N   UNL     1       4.641   4.636  17.642  0.00  0.00    +0.000 N 
ATOM      6  H   UNL     1       4.982   3.687  17.680  0.00  0.00    +0.000 HD
ENDROOT
BRANCH   3   7
ATOM      7  C   UNL     1       2.653   7.531  18.438  0.00  0.00    +0.000 A 
ATOM      8  C   UNL     1       2.257   8.575  17.593  0.00  0.00    +0.000 A 
ATOM      9  C   UNL     1       1.407   9.583  18.063  0.00  0.00    +0.000 A 
ATOM     10  C   UNL     1       0.938   9.550  19.375  0.00  0.00    +0.000 A 
ATOM     11  C   UNL     1       1.320   8.515  20.224  0.00  0.00    +0.000 A 
ATOM     12  C   UNL     1       2.190   7.528  19.762  0.00  0.00    +0.000 A 
ENDBRANCH   3   7
BRANCH   4  13
ATOM     13  C   UNL     1       2.683   4.322  19.162  0.00  0.00    +0.000 A 
ATOM     14  C   UNL     1       2.995   4.120  20.515  0.00  0.00    +0.000 A 
ATOM     15  C   UNL     1       2.211   3.295  21.321  0.00  0.00    +0.000 A 
ATOM     16  C   UNL     1       1.076   2.693  20.792  0.00  0.00    +0.000 A 
ATOM     17  C   UNL     1       0.734   2.902  19.458  0.00  0.00    +0.000 A 
ATOM     18  C   UNL     1       1.538   3.704  18.643  0.00  0.00    +0.000 A 
ENDBRANCH   4  13
BRANCH   1  20
ATOM     19  C   UNL     1       5.916   4.003  14.836  0.00  0.00    +0.000 C 
ATOM     20  S   UNL     1       6.565   5.297  15.916  0.00  0.00    +0.000 S 
ENDBRANCH   1  20
TORSDOF 3
ENDMDL
MODEL 6
REMARK VINA RESULT:      -7.6      0.952      4.435
REMARK  Name = 
REMARK  4 active torsions:
REMARK  status: ('A' for Active; 'I' for Inactive)
REMARK    1  A    between atoms: C_1  and  S_2
REMARK    2  A    between atoms: S_2  and  C_3
REMARK    3  A    between atoms: C_5  and  C_6
REMARK    4  A    between atoms: C_12  and  C_13
REMARK                            x       y       z     vdW  Elec       q    Type
REMARK                         _______ _______ _______ _____ _____    ______ ____
ROOT
ATOM      1  C   UNL     1       5.362   5.141  16.845  0.00  0.00    +0.000 A 
ATOM      2  N   UNL     1       4.840   4.208  17.604  0.00  0.00    +0.000 NA
ATOM      3  C   UNL     1       3.781   4.826  18.242  0.00  0.00    +0.000 A 
ATOM      4  C   UNL     1       3.709   6.178  17.908  0.00  0.00    +0.000 A 
ATOM      5  N   UNL     1       4.716   6.328  16.976  0.00  0.00    +0.000 N 
ATOM      6  H   UNL     1       4.959   7.174  16.482  0.00  0.00    +0.000 HD
ENDROOT
BRANCH   3   7
ATOM      7  C   UNL     1       2.881   4.092  19.121  0.00  0.00    +0.000 A 
ATOM      8  C   UNL     1       3.273   3.787  20.431  0.00  0.00    +0.000 A 
ATOM      9  C   UNL     1       2.417   3.076  21.278  0.00  0.00    +0.000 A 
ATOM     10  C   UNL     1       1.160   2.674  20.830  0.00  0.00    +0.000 A 
ATOM     11  C   UNL     1       0.755   2.975  19.533  0.00  0.00    +0.000 A 
ATOM     12  C   UNL     1       1.622   3.659  18.680  0.00  0.00    +0.000 A 
ENDBRANCH   3   7
BRANCH   4  13
ATOM     13  C   UNL     1       2.863   7.290  18.348  0.00  0.00    +0.000 A 
ATOM     14  C   UNL     1       2.332   7.312  19.646  0.00  0.00    +0.000 A 
ATOM     15  C   UNL     1       1.481   8.336  20.061  0.00  0.00    +0.000 A 
ATOM     16  C   UNL     1       1.184   9.378  19.192  0.00  0.00    +0.000 A 
ATOM     17  C   UNL     1       1.722   9.388  17.906  0.00  0.00    +0.000 A 
ATOM     18  C   UNL     1       2.550   8.345  17.482  0.00  0.00    +0.000 A 
ENDBRANCH   4  13
BRANCH   1  20
ATOM     19  C   UNL     1       5.893   4.139  14.379  0.00  0.00    +0.000 C 
ATOM     20  S   UNL     1       6.685   5.006  15.752  0.00  0.00    +0.000 S 
ENDBRANCH   1  20
TORSDOF 3
ENDMDL
MODEL 7
REMARK VINA RESULT:      -7.5      2.853      4.951
REMARK  Name = 
REMARK  4 active torsions:
REMARK  status: ('A' for Active; 'I' for Inactive)
REMARK    1  A    between atoms: C_1  and  S_2
REMARK    2  A    between atoms: S_2  and  C_3
REMARK    3  A    between atoms: C_5  and  C_6
REMARK    4  A    between atoms: C_12  and  C_13
REMARK                            x       y       z     vdW  Elec       q    Type
REMARK                         _______ _______ _______ _____ _____    ______ ____
ROOT
ATOM      1  C   UNL     1       6.283   4.213  13.967  0.00  0.00    +0.000 A 
ATOM      2  N   UNL     1       7.114   4.947  14.666  0.00  0.00    +0.000 NA
ATOM      3  C   UNL     1       6.475   5.149  15.875  0.00  0.00    +0.000 A 
ATOM      4  C   UNL     1       5.202   4.580  15.875  0.00  0.00    +0.000 A 
ATOM      5  N   UNL     1       5.137   3.952  14.647  0.00  0.00    +0.000 N 
ATOM      6  H   UNL     1       4.367   3.406  14.290  0.00  0.00    +0.000 HD
ENDROOT
BRANCH   3   7
ATOM      7  C   UNL     1       7.118   5.858  16.973  0.00  0.00    +0.000 A 
ATOM      8  C   UNL     1       7.492   5.166  18.132  0.00  0.00    +0.000 A 
ATOM      9  C   UNL     1       8.103   5.842  19.194  0.00  0.00    +0.000 A 
ATOM     10  C   UNL     1       8.355   7.210  19.103  0.00  0.00    +0.000 A 
ATOM     11  C   UNL     1       7.992   7.909  17.955  0.00  0.00    +0.000 A 
ATOM     12  C   UNL     1       7.357   7.238  16.910  0.00  0.00    +0.000 A 
ENDBRANCH   3   7
BRANCH   4  13
ATOM     13  C   UNL     1       4.094   4.568  16.832  0.00  0.00    +0.000 A 
ATOM     14  C   UNL     1       3.368   3.391  17.069  0.00  0.00    +0.000 A 
ATOM     15  C   UNL     1       2.277   3.380  17.938  0.00  0.00    +0.000 A 
ATOM     16  C   UNL     1       1.923   4.540  18.615  0.00  0.00    +0.000 A 
ATOM     17  C   UNL     1       2.648   5.713  18.413  0.00  0.00    +0.000 A 
ATOM     18  C   UNL     1       3.722   5.731  17.519  0.00  0.00    +0.000 A 
ENDBRANCH   4  13
BRANCH   1  20
ATOM     19  C   UNL     1       4.782   3.359  11.873  0.00  0.00    +0.000 C 
ATOM     20  S   UNL     1       6.502   3.570  12.386  0.00  0.00    +0.000 S 
ENDBRANCH   1  20
TORSDOF 3
ENDMDL
MODEL 8
REMARK VINA RESULT:      -7.5      0.628      1.266
REMARK  Name = 
REMARK  4 active torsions:
REMARK  status: ('A' for Active; 'I' for Inactive)
REMARK    1  A    between atoms: C_1  and  S_2
REMARK    2  A    between atoms: S_2  and  C_3
REMARK    3  A    between atoms: C_5  and  C_6
REMARK    4  A    between atoms: C_12  and  C_13
REMARK                            x       y       z     vdW  Elec       q    Type
REMARK                         _______ _______ _______ _____ _____    ______ ____
ROOT
ATOM      1  C   UNL     1       5.156   5.685  16.912  0.00  0.00    +0.000 A 
ATOM      2  N   UNL     1       4.497   6.810  17.048  0.00  0.00    +0.000 NA
ATOM      3  C   UNL     1       3.515   6.531  17.979  0.00  0.00    +0.000 A 
ATOM      4  C   UNL     1       3.544   5.190  18.359  0.00  0.00    +0.000 A 
ATOM      5  N   UNL     1       4.640   4.694  17.682  0.00  0.00    +0.000 N 
ATOM      6  H   UNL     1       4.997   3.751  17.725  0.00  0.00    +0.000 HD
ENDROOT
BRANCH   3   7
ATOM      7  C   UNL     1       2.611   7.562  18.473  0.00  0.00    +0.000 A 
ATOM      8  C   UNL     1       2.175   7.534  19.804  0.00  0.00    +0.000 A 
ATOM      9  C   UNL     1       1.302   8.517  20.283  0.00  0.00    +0.000 A 
ATOM     10  C   UNL     1       0.866   9.539  19.442  0.00  0.00    +0.000 A 
ATOM     11  C   UNL     1       1.296   9.581  18.119  0.00  0.00    +0.000 A 
ATOM     12  C   UNL     1       2.143   8.585  17.636  0.00  0.00    +0.000 A 
ENDBRANCH   3   7
BRANCH   4  13
ATOM     13  C   UNL     1       2.701   4.360  19.222  0.00  0.00    +0.000 A 
ATOM     14  C   UNL     1       1.532   3.766  18.721  0.00  0.00    +0.000 A 
ATOM     15  C   UNL     1       0.692   3.018  19.546  0.00  0.00    +0.000 A 
ATOM     16  C   UNL     1       1.034   2.819  20.877  0.00  0.00    +0.000 A 
ATOM     17  C   UNL     1       2.205   3.378  21.388  0.00  0.00    +0.000 A 
ATOM     18  C   UNL     1       3.030   4.152  20.568  0.00  0.00    +0.000 A 
ENDBRANCH   4  13
BRANCH   1  20
ATOM     19  C   UNL     1       5.994   3.891  15.056  0.00  0.00    +0.000 C 
ATOM     20  S   UNL     1       6.538   5.373  15.934  0.00  0.00    +0.000 S 
ENDBRANCH   1  20
TORSDOF 3
ENDMDL
MODEL 9
REMARK VINA RESULT:      -7.5      2.839      5.002
REMARK  Name = 
REMARK  4 active torsions:
REMARK  status: ('A' for Active; 'I' for Inactive)
REMARK    1  A    between atoms: C_1  and  S_2
REMARK    2  A    between atoms: S_2  and  C_3
REMARK    3  A    between atoms: C_5  and  C_6
REMARK    4  A    between atoms: C_12  and  C_13
REMARK                            x       y       z     vdW  Elec       q    Type
REMARK                         _______ _______ _______ _____ _____    ______ ____
ROOT
ATOM      1  C   UNL     1       6.323   4.229  13.974  0.00  0.00    +0.000 A 
ATOM      2  N   UNL     1       7.154   4.951  14.686  0.00  0.00    +0.000 NA
ATOM      3  C   UNL     1       6.504   5.151  15.889  0.00  0.00    +0.000 A 
ATOM      4  C   UNL     1       5.226   4.594  15.871  0.00  0.00    +0.000 A 
ATOM      5  N   UNL     1       5.168   3.974  14.639  0.00  0.00    +0.000 N 
ATOM      6  H   UNL     1       4.396   3.438  14.271  0.00  0.00    +0.000 HD
ENDROOT
BRANCH   3   7
ATOM      7  C   UNL     1       7.142   5.847  16.999  0.00  0.00    +0.000 A 
ATOM      8  C   UNL     1       7.400   7.221  16.910  0.00  0.00    +0.000 A 
ATOM      9  C   UNL     1       8.018   7.894  17.970  0.00  0.00    +0.000 A 
ATOM     10  C   UNL     1       8.373   7.205  19.128  0.00  0.00    +0.000 A 
ATOM     11  C   UNL     1       8.117   5.841  19.231  0.00  0.00    +0.000 A 
ATOM     12  C   UNL     1       7.527   5.166  18.162  0.00  0.00    +0.000 A 
ENDBRANCH   3   7
BRANCH   4  13
ATOM     13  C   UNL     1       4.108   4.587  16.817  0.00  0.00    +0.000 A 
ATOM     14  C   UNL     1       3.746   5.757  17.502  0.00  0.00    +0.000 A 
ATOM     15  C   UNL     1       2.718   5.751  18.445  0.00  0.00    +0.000 A 
ATOM     16  C   UNL     1       2.010   4.581  18.686  0.00  0.00    +0.000 A 
ATOM     17  C   UNL     1       2.337   3.415  17.997  0.00  0.00    +0.000 A 
ATOM     18  C   UNL     1       3.387   3.414  17.074  0.00  0.00    +0.000 A 
ENDBRANCH   4  13
BRANCH   1  20
ATOM     19  C   UNL     1       4.838   3.334  11.886  0.00  0.00    +0.000 C 
ATOM     20  S   UNL     1       6.553   3.594  12.390  0.00  0.00    +0.000 S 
ENDBRANCH   1  20
TORSDOF 3
ENDMDL
