MODEL 1
REMARK VINA RESULT:      -8.2      0.000      0.000
REMARK  Name = 
REMARK  5 active torsions:
REMARK  status: ('A' for Active; 'I' for Inactive)
REMARK    1  A    between atoms: C_1  and  N_2
REMARK    2  A    between atoms: C_4  and  C_5
REMARK    3  A    between atoms: N_7  and  C_8
REMARK    4  A    between atoms: C_8  and  C_9
REMARK    5  A    between atoms: C_14  and  N_15
REMARK                            x       y       z     vdW  Elec       q    Type
REMARK                         _______ _______ _______ _____ _____    ______ ____
ROOT
ATOM      1  C   UNL     1       4.497   5.129  16.552  0.00  0.00    +0.000 C 
ENDROOT
BRANCH   1   2
ATOM      2  C   UNL     1       5.541   4.927  15.477  0.00  0.00    +0.000 A 
ATOM      3  C   UNL     1       5.232   4.220  14.298  0.00  0.00    +0.000 A 
ATOM      4  C   UNL     1       6.163   4.079  13.275  0.00  0.00    +0.000 A 
ATOM      5  C   UNL     1       7.403   4.649  13.448  0.00  0.00    +0.000 A 
ATOM      6  N   UNL     1       7.768   5.312  14.563  0.00  0.00    +0.000 NA
ATOM      7  C   UNL     1       6.851   5.439  15.573  0.00  0.00    +0.000 A 
BRANCH   7   8
ATOM      8  N   UNL     1       7.324   6.114  16.754  0.00  0.00    +0.000 N 
ATOM      9  C   UNL     1       7.644   5.505  17.956  0.00  0.00    +0.000 A 
ATOM     10  C   UNL     1       8.006   6.497  18.835  0.00  0.00    +0.000 A 
ATOM     11  C   UNL     1       7.879   7.680  18.096  0.00  0.00    +0.000 A 
ATOM     12  N   UNL     1       7.465   7.464  16.849  0.00  0.00    +0.000 NA
ENDBRANCH   7   8
ENDBRANCH   1   2
BRANCH   1  15
ATOM     13  C   UNL     1       4.357   3.678  18.547  0.00  0.00    +0.000 C 
ATOM     14  O   UNL     1       4.996   4.464  19.238  0.00  0.00    +0.000 OA
ATOM     15  N   UNL     1       4.065   3.914  17.221  0.00  0.00    +0.000 N 
ATOM     16  H   UNL     1       3.545   3.240  16.677  0.00  0.00    +0.000 HD
BRANCH  13  20
ATOM     17  C   UNL     1       1.210   2.767  21.650  0.00  0.00    +0.000 C 
ATOM     18  N   UNL     1       2.009   2.593  20.461  0.00  0.00    +0.000 N 
ATOM     19  C   UNL     1       3.435   2.392  20.516  0.00  0.00    +0.000 C 
ATOM     20  C   UNL     1       3.857   2.335  19.056  0.00  0.00    +0.000 C 
ATOM     21  C   UNL     1       2.605   1.868  18.314  0.00  0.00    +0.000 C 
ATOM     22  C   UNL     1       1.471   2.223  19.243  0.00  0.00    +0.000 C 
ATOM     23  O   UNL     1       0.288   2.134  18.963  0.00  0.00    +0.000 OA
ENDBRANCH  13  20
ENDBRANCH   1  15
TORSDOF 4
ENDMDL
MODEL 2
REMARK VINA RESULT:      -8.1      1.332      1.753
REMARK  Name = 
REMARK  5 active torsions:
REMARK  status: ('A' for Active; 'I' for Inactive)
REMARK    1  A    between atoms: C_1  and  N_2
REMARK    2  A    between atoms: C_4  and  C_5
REMARK    3  A    between atoms: N_7  and  C_8
REMARK    4  A    between atoms: C_8  and  C_9
REMARK    5  A    between atoms: C_14  and  N_15
REMARK                            x       y       z     vdW  Elec       q    Type
REMARK                         _______ _______ _______ _____ _____    ______ ____
ROOT
ATOM      1  C   UNL     1       4.351   5.081  16.746  0.00  0.00    +0.000 C 
ENDROOT
BRANCH   1   2
ATOM      2  C   UNL     1       5.358   4.841  15.644  0.00  0.00    +0.000 A 
ATOM      3  C   UNL     1       4.988   4.158  14.468  0.00  0.00    +0.000 A 
ATOM      4  C   UNL     1       5.885   3.983  13.421  0.00  0.00    +0.000 A 
ATOM      5  C   UNL     1       7.154   4.495  13.566  0.00  0.00    +0.000 A 
ATOM      6  N   UNL     1       7.577   5.132  14.677  0.00  0.00    +0.000 NA
ATOM      7  C   UNL     1       6.691   5.293  15.710  0.00  0.00    +0.000 A 
BRANCH   7   8
ATOM      8  N   UNL     1       7.224   5.936  16.884  0.00  0.00    +0.000 N 
ATOM      9  C   UNL     1       7.526   5.307  18.080  0.00  0.00    +0.000 A 
ATOM     10  C   UNL     1       7.961   6.274  18.953  0.00  0.00    +0.000 A 
ATOM     11  C   UNL     1       7.895   7.464  18.217  0.00  0.00    +0.000 A 
ATOM     12  N   UNL     1       7.448   7.275  16.977  0.00  0.00    +0.000 NA
ENDBRANCH   7   8
ENDBRANCH   1   2
BRANCH   1  15
ATOM     13  C   UNL     1       2.544   3.626  17.597  0.00  0.00    +0.000 C 
ATOM     14  O   UNL     1       1.665   4.385  17.203  0.00  0.00    +0.000 OA
ATOM     15  N   UNL     1       3.887   3.882  17.423  0.00  0.00    +0.000 N 
ATOM     16  H   UNL     1       4.586   3.241  17.770  0.00  0.00    +0.000 HD
BRANCH  13  20
ATOM     17  C   UNL     1       4.934   1.635  20.865  0.00  0.00    +0.000 C 
ATOM     18  N   UNL     1       3.770   2.049  20.119  0.00  0.00    +0.000 N 
ATOM     19  C   UNL     1       3.531   1.617  18.766  0.00  0.00    +0.000 C 
ATOM     20  C   UNL     1       2.258   2.345  18.365  0.00  0.00    +0.000 C 
ATOM     21  C   UNL     1       1.538   2.614  19.686  0.00  0.00    +0.000 C 
ATOM     22  C   UNL     1       2.633   2.551  20.722  0.00  0.00    +0.000 C 
ATOM     23  O   UNL     1       2.495   2.842  21.898  0.00  0.00    +0.000 OA
ENDBRANCH  13  20
ENDBRANCH   1  15
TORSDOF 4
ENDMDL
MODEL 3
REMARK VINA RESULT:      -7.6      1.568      2.043
REMARK  Name = 
REMARK  5 active torsions:
REMARK  status: ('A' for Active; 'I' for Inactive)
REMARK    1  A    between atoms: C_1  and  N_2
REMARK    2  A    between atoms: C_4  and  C_5
REMARK    3  A    between atoms: N_7  and  C_8
REMARK    4  A    between atoms: C_8  and  C_9
REMARK    5  A    between atoms: C_14  and  N_15
REMARK                            x       y       z     vdW  Elec       q    Type
REMARK                         _______ _______ _______ _____ _____    ______ ____
ROOT
ATOM      1  C   UNL     1       4.389   6.153  17.112  0.00  0.00    +0.000 C 
ENDROOT
BRANCH   1   2
ATOM      2  C   UNL     1       5.326   5.533  16.100  0.00  0.00    +0.000 A 
ATOM      3  C   UNL     1       4.835   4.668  15.101  0.00  0.00    +0.000 A 
ATOM      4  C   UNL     1       5.674   4.139  14.127  0.00  0.00    +0.000 A 
ATOM      5  C   UNL     1       7.006   4.481  14.168  0.00  0.00    +0.000 A 
ATOM      6  N   UNL     1       7.541   5.279  15.113  0.00  0.00    +0.000 NA
ATOM      7  C   UNL     1       6.711   5.790  16.077  0.00  0.00    +0.000 A 
BRANCH   7   8
ATOM      8  N   UNL     1       7.357   6.592  17.084  0.00  0.00    +0.000 N 
ATOM      9  C   UNL     1       7.770   6.144  18.328  0.00  0.00    +0.000 A 
ATOM     10  C   UNL     1       8.292   7.223  18.999  0.00  0.00    +0.000 A 
ATOM     11  C   UNL     1       8.161   8.289  18.101  0.00  0.00    +0.000 A 
ATOM     12  N   UNL     1       7.596   7.925  16.952  0.00  0.00    +0.000 NA
ENDBRANCH   7   8
ENDBRANCH   1   2
BRANCH   1  15
ATOM     13  C   UNL     1       2.591   5.619  18.721  0.00  0.00    +0.000 C 
ATOM     14  O   UNL     1       2.643   6.729  19.239  0.00  0.00    +0.000 OA
ATOM     15  N   UNL     1       3.407   5.243  17.676  0.00  0.00    +0.000 N 
ATOM     16  H   UNL     1       3.347   4.316  17.279  0.00  0.00    +0.000 HD
BRANCH  13  20
ATOM     17  C   UNL     1       3.294   1.170  18.981  0.00  0.00    +0.000 C 
ATOM     18  N   UNL     1       2.769   2.467  19.337  0.00  0.00    +0.000 N 
ATOM     19  C   UNL     1       1.892   3.205  18.465  0.00  0.00    +0.000 C 
ATOM     20  C   UNL     1       1.660   4.517  19.200  0.00  0.00    +0.000 C 
ATOM     21  C   UNL     1       1.883   4.175  20.673  0.00  0.00    +0.000 C 
ATOM     22  C   UNL     1       2.734   2.930  20.638  0.00  0.00    +0.000 C 
ATOM     23  O   UNL     1       3.245   2.408  21.615  0.00  0.00    +0.000 OA
ENDBRANCH  13  20
ENDBRANCH   1  15
TORSDOF 4
ENDMDL
MODEL 4
REMARK VINA RESULT:      -7.5      1.577      3.446
REMARK  Name = 
REMARK  5 active torsions:
REMARK  status: ('A' for Active; 'I' for Inactive)
REMARK    1  A    between atoms: C_1  and  N_2
REMARK    2  A    between atoms: C_4  and  C_5
REMARK    3  A    between atoms: N_7  and  C_8
REMARK    4  A    between atoms: C_8  and  C_9
REMARK    5  A    between atoms: C_14  and  N_15
REMARK                            x       y       z     vdW  Elec       q    Type
REMARK                         _______ _______ _______ _____ _____    ______ ____
ROOT
ATOM      1  C   UNL     1       4.976   3.577  16.403  0.00  0.00    +0.000 C 
ENDROOT
BRANCH   1   2
ATOM      2  C   UNL     1       5.870   4.730  16.802  0.00  0.00    +0.000 A 
ATOM      3  C   UNL     1       5.829   5.253  18.109  0.00  0.00    +0.000 A 
ATOM      4  C   UNL     1       6.687   6.271  18.508  0.00  0.00    +0.000 A 
ATOM      5  C   UNL     1       7.581   6.760  17.583  0.00  0.00    +0.000 A 
ATOM      6  N   UNL     1       7.650   6.322  16.311  0.00  0.00    +0.000 NA
ATOM      7  C   UNL     1       6.795   5.325  15.920  0.00  0.00    +0.000 A 
BRANCH   7   8
ATOM      8  N   UNL     1       6.887   4.941  14.534  0.00  0.00    +0.000 N 
ATOM      9  C   UNL     1       6.131   3.959  13.919  0.00  0.00    +0.000 A 
ATOM     10  C   UNL     1       6.556   3.871  12.616  0.00  0.00    +0.000 A 
ATOM     11  C   UNL     1       7.573   4.829  12.515  0.00  0.00    +0.000 A 
ATOM     12  N   UNL     1       7.785   5.473  13.660  0.00  0.00    +0.000 NA
ENDBRANCH   7   8
ENDBRANCH   1   2
BRANCH   1  15
ATOM     13  C   UNL     1       3.129   2.559  17.691  0.00  0.00    +0.000 C 
ATOM     14  O   UNL     1       3.761   1.529  17.897  0.00  0.00    +0.000 OA
ATOM     15  N   UNL     1       3.638   3.617  16.968  0.00  0.00    +0.000 N 
ATOM     16  H   UNL     1       3.087   4.447  16.807  0.00  0.00    +0.000 HD
BRANCH  13  20
ATOM     17  C   UNL     1       1.478   2.698  21.887  0.00  0.00    +0.000 C 
ATOM     18  N   UNL     1       1.599   3.014  20.484  0.00  0.00    +0.000 N 
ATOM     19  C   UNL     1       1.403   2.025  19.455  0.00  0.00    +0.000 C 
ATOM     20  C   UNL     1       1.700   2.771  18.163  0.00  0.00    +0.000 C 
ATOM     21  C   UNL     1       1.413   4.236  18.494  0.00  0.00    +0.000 C 
ATOM     22  C   UNL     1       1.527   4.304  19.996  0.00  0.00    +0.000 C 
ATOM     23  O   UNL     1       1.497   5.333  20.650  0.00  0.00    +0.000 OA
ENDBRANCH  13  20
ENDBRANCH   1  15
TORSDOF 4
ENDMDL
MODEL 5
REMARK VINA RESULT:      -7.5      1.710      2.094
REMARK  Name = 
REMARK  5 active torsions:
REMARK  status: ('A' for Active; 'I' for Inactive)
REMARK    1  A    between atoms: C_1  and  N_2
REMARK    2  A    between atoms: C_4  and  C_5
REMARK    3  A    between atoms: N_7  and  C_8
REMARK    4  A    between atoms: C_8  and  C_9
REMARK    5  A    between atoms: C_14  and  N_15
REMARK                            x       y       z     vdW  Elec       q    Type
REMARK                         _______ _______ _______ _____ _____    ______ ____
ROOT
ATOM      1  C   UNL     1       5.347   3.225  15.602  0.00  0.00    +0.000 C 
ENDROOT
BRANCH   1   2
ATOM      2  C   UNL     1       6.235   3.896  14.579  0.00  0.00    +0.000 A 
ATOM      3  C   UNL     1       6.190   3.511  13.224  0.00  0.00    +0.000 A 
ATOM      4  C   UNL     1       6.955   4.160  12.262  0.00  0.00    +0.000 A 
ATOM      5  C   UNL     1       7.766   5.193  12.672  0.00  0.00    +0.000 A 
ATOM      6  N   UNL     1       7.875   5.589  13.955  0.00  0.00    +0.000 NA
ATOM      7  C   UNL     1       7.126   4.940  14.901  0.00  0.00    +0.000 A 
BRANCH   7   8
ATOM      8  N   UNL     1       7.330   5.380  16.258  0.00  0.00    +0.000 N 
ATOM      9  C   UNL     1       7.754   4.583  17.308  0.00  0.00    +0.000 A 
ATOM     10  C   UNL     1       7.774   5.368  18.435  0.00  0.00    +0.000 A 
ATOM     11  C   UNL     1       7.349   6.626  17.992  0.00  0.00    +0.000 A 
ATOM     12  N   UNL     1       7.074   6.645  16.689  0.00  0.00    +0.000 NA
ENDBRANCH   7   8
ENDBRANCH   1   2
BRANCH   1  15
ATOM     13  C   UNL     1       4.094   4.175  17.508  0.00  0.00    +0.000 C 
ATOM     14  O   UNL     1       4.771   3.571  18.332  0.00  0.00    +0.000 OA
ATOM     15  N   UNL     1       4.298   4.068  16.150  0.00  0.00    +0.000 N 
ATOM     16  H   UNL     1       3.715   4.572  15.497  0.00  0.00    +0.000 HD
BRANCH  13  20
ATOM     17  C   UNL     1       0.414   3.230  19.940  0.00  0.00    +0.000 C 
ATOM     18  N   UNL     1       1.500   4.014  19.403  0.00  0.00    +0.000 N 
ATOM     19  C   UNL     1       1.619   4.298  17.997  0.00  0.00    +0.000 C 
ATOM     20  C   UNL     1       2.925   5.070  17.885  0.00  0.00    +0.000 C 
ATOM     21  C   UNL     1       3.109   5.711  19.261  0.00  0.00    +0.000 C 
ATOM     22  C   UNL     1       2.271   4.857  20.180  0.00  0.00    +0.000 C 
ATOM     23  O   UNL     1       2.251   4.956  21.395  0.00  0.00    +0.000 OA
ENDBRANCH  13  20
ENDBRANCH   1  15
TORSDOF 4
ENDMDL
MODEL 6
REMARK VINA RESULT:      -7.4      0.990      1.065
REMARK  Name = 
REMARK  5 active torsions:
REMARK  status: ('A' for Active; 'I' for Inactive)
REMARK    1  A    between atoms: C_1  and  N_2
REMARK    2  A    between atoms: C_4  and  C_5
REMARK    3  A    between atoms: N_7  and  C_8
REMARK    4  A    between atoms: C_8  and  C_9
REMARK    5  A    between atoms: C_14  and  N_15
REMARK                            x       y       z     vdW  Elec       q    Type
REMARK                         _______ _______ _______ _____ _____    ______ ____
ROOT
ATOM      1  C   UNL     1       4.422   5.823  16.811  0.00  0.00    +0.000 C 
ENDROOT
BRANCH   1   2
ATOM      2  C   UNL     1       5.418   5.332  15.785  0.00  0.00    +0.000 A 
ATOM      3  C   UNL     1       4.996   4.561  14.684  0.00  0.00    +0.000 A 
ATOM      4  C   UNL     1       5.890   4.154  13.701  0.00  0.00    +0.000 A 
ATOM      5  C   UNL     1       7.209   4.523  13.835  0.00  0.00    +0.000 A 
ATOM      6  N   UNL     1       7.680   5.234  14.879  0.00  0.00    +0.000 NA
ATOM      7  C   UNL     1       6.796   5.624  15.850  0.00  0.00    +0.000 A 
BRANCH   7   8
ATOM      8  N   UNL     1       7.375   6.336  16.961  0.00  0.00    +0.000 N 
ATOM      9  C   UNL     1       7.690   5.787  18.193  0.00  0.00    +0.000 A 
ATOM     10  C   UNL     1       8.173   6.802  18.982  0.00  0.00    +0.000 A 
ATOM     11  C   UNL     1       8.121   7.936  18.162  0.00  0.00    +0.000 A 
ATOM     12  N   UNL     1       7.638   7.671  16.950  0.00  0.00    +0.000 NA
ENDBRANCH   7   8
ENDBRANCH   1   2
BRANCH   1  15
ATOM     13  C   UNL     1       3.822   3.681  17.886  0.00  0.00    +0.000 C 
ATOM     14  O   UNL     1       4.991   3.412  18.140  0.00  0.00    +0.000 OA
ATOM     15  N   UNL     1       3.445   4.836  17.236  0.00  0.00    +0.000 N 
ATOM     16  H   UNL     1       2.473   5.023  17.033  0.00  0.00    +0.000 HD
BRANCH  13  20
ATOM     17  C   UNL     1       2.074   2.563  21.892  0.00  0.00    +0.000 C 
ATOM     18  N   UNL     1       2.107   2.854  20.479  0.00  0.00    +0.000 N 
ATOM     19  C   UNL     1       2.848   2.045  19.546  0.00  0.00    +0.000 C 
ATOM     20  C   UNL     1       2.662   2.754  18.213  0.00  0.00    +0.000 C 
ATOM     21  C   UNL     1       1.344   3.513  18.364  0.00  0.00    +0.000 C 
ATOM     22  C   UNL     1       1.168   3.652  19.856  0.00  0.00    +0.000 C 
ATOM     23  O   UNL     1       0.298   4.317  20.395  0.00  0.00    +0.000 OA
ENDBRANCH  13  20
ENDBRANCH   1  15
TORSDOF 4
ENDMDL
MODEL 7
REMARK VINA RESULT:      -7.3      1.490      1.757
REMARK  Name = 
REMARK  5 active torsions:
REMARK  status: ('A' for Active; 'I' for Inactive)
REMARK    1  A    between atoms: C_1  and  N_2
REMARK    2  A    between atoms: C_4  and  C_5
REMARK    3  A    between atoms: N_7  and  C_8
REMARK    4  A    between atoms: C_8  and  C_9
REMARK    5  A    between atoms: C_14  and  N_15
REMARK                            x       y       z     vdW  Elec       q    Type
REMARK                         _______ _______ _______ _____ _____    ______ ____
ROOT
ATOM      1  C   UNL     1       4.401   6.137  16.868  0.00  0.00    +0.000 C 
ENDROOT
BRANCH   1   2
ATOM      2  C   UNL     1       5.373   5.512  15.892  0.00  0.00    +0.000 A 
ATOM      3  C   UNL     1       4.912   4.697  14.840  0.00  0.00    +0.000 A 
ATOM      4  C   UNL     1       5.787   4.166  13.900  0.00  0.00    +0.000 A 
ATOM      5  C   UNL     1       7.126   4.457  14.028  0.00  0.00    +0.000 A 
ATOM      6  N   UNL     1       7.632   5.206  15.028  0.00  0.00    +0.000 NA
ATOM      7  C   UNL     1       6.766   5.719  15.958  0.00  0.00    +0.000 A 
BRANCH   7   8
ATOM      8  N   UNL     1       7.380   6.465  17.026  0.00  0.00    +0.000 N 
ATOM      9  C   UNL     1       7.733   5.957  18.264  0.00  0.00    +0.000 A 
ATOM     10  C   UNL     1       8.241   6.997  19.004  0.00  0.00    +0.000 A 
ATOM     11  C   UNL     1       8.163   8.104  18.150  0.00  0.00    +0.000 A 
ATOM     12  N   UNL     1       7.643   7.799  16.962  0.00  0.00    +0.000 NA
ENDBRANCH   7   8
ENDBRANCH   1   2
BRANCH   1  15
ATOM     13  C   UNL     1       3.196   5.735  18.987  0.00  0.00    +0.000 C 
ATOM     14  O   UNL     1       2.792   6.891  19.047  0.00  0.00    +0.000 OA
ATOM     15  N   UNL     1       3.991   5.272  17.961  0.00  0.00    +0.000 N 
ATOM     16  H   UNL     1       4.316   4.316  17.948  0.00  0.00    +0.000 HD
BRANCH  13  20
ATOM     17  C   UNL     1       0.516   2.109  18.831  0.00  0.00    +0.000 C 
ATOM     18  N   UNL     1       1.645   2.925  19.207  0.00  0.00    +0.000 N 
ATOM     19  C   UNL     1       1.495   4.142  19.962  0.00  0.00    +0.000 C 
ATOM     20  C   UNL     1       2.909   4.695  20.058  0.00  0.00    +0.000 C 
ATOM     21  C   UNL     1       3.809   3.466  19.924  0.00  0.00    +0.000 C 
ATOM     22  C   UNL     1       2.941   2.448  19.227  0.00  0.00    +0.000 C 
ATOM     23  O   UNL     1       3.331   1.369  18.813  0.00  0.00    +0.000 OA
ENDBRANCH  13  20
ENDBRANCH   1  15
TORSDOF 4
ENDMDL
MODEL 8
REMARK VINA RESULT:      -7.3      1.648      1.990
REMARK  Name = 
REMARK  5 active torsions:
REMARK  status: ('A' for Active; 'I' for Inactive)
REMARK    1  A    between atoms: C_1  and  N_2
REMARK    2  A    between atoms: C_4  and  C_5
REMARK    3  A    between atoms: N_7  and  C_8
REMARK    4  A    between atoms: C_8  and  C_9
REMARK    5  A    between atoms: C_14  and  N_15
REMARK                            x       y       z     vdW  Elec       q    Type
REMARK                         _______ _______ _______ _____ _____    ______ ____
ROOT
ATOM      1  C   UNL     1       4.955   3.480  15.246  0.00  0.00    +0.000 C 
ENDROOT
BRANCH   1   2
ATOM      2  C   UNL     1       6.054   4.052  14.379  0.00  0.00    +0.000 A 
ATOM      3  C   UNL     1       6.116   3.751  13.004  0.00  0.00    +0.000 A 
ATOM      4  C   UNL     1       7.084   4.318  12.184  0.00  0.00    +0.000 A 
ATOM      5  C   UNL     1       7.989   5.184  12.755  0.00  0.00    +0.000 A 
ATOM      6  N   UNL     1       7.999   5.489  14.068  0.00  0.00    +0.000 NA
ATOM      7  C   UNL     1       7.049   4.919  14.874  0.00  0.00    +0.000 A 
BRANCH   7   8
ATOM      8  N   UNL     1       7.150   5.248  16.273  0.00  0.00    +0.000 N 
ATOM      9  C   UNL     1       6.602   6.365  16.880  0.00  0.00    +0.000 A 
ATOM     10  C   UNL     1       6.965   6.332  18.204  0.00  0.00    +0.000 A 
ATOM     11  C   UNL     1       7.733   5.168  18.326  0.00  0.00    +0.000 A 
ATOM     12  N   UNL     1       7.857   4.512  17.174  0.00  0.00    +0.000 NA
ENDBRANCH   7   8
ENDBRANCH   1   2
BRANCH   1  15
ATOM     13  C   UNL     1       4.142   3.420  17.578  0.00  0.00    +0.000 C 
ATOM     14  O   UNL     1       3.008   3.101  17.239  0.00  0.00    +0.000 OA
ATOM     15  N   UNL     1       5.162   3.631  16.676  0.00  0.00    +0.000 N 
ATOM     16  H   UNL     1       6.082   3.903  16.989  0.00  0.00    +0.000 HD
BRANCH  13  20
ATOM     17  C   UNL     1       1.810   5.370  20.913  0.00  0.00    +0.000 C 
ATOM     18  N   UNL     1       2.740   4.467  20.278  0.00  0.00    +0.000 N 
ATOM     19  C   UNL     1       3.914   4.934  19.587  0.00  0.00    +0.000 C 
ATOM     20  C   UNL     1       4.541   3.668  19.024  0.00  0.00    +0.000 C 
ATOM     21  C   UNL     1       4.056   2.555  19.954  0.00  0.00    +0.000 C 
ATOM     22  C   UNL     1       2.810   3.122  20.590  0.00  0.00    +0.000 C 
ATOM     23  O   UNL     1       2.045   2.494  21.301  0.00  0.00    +0.000 OA
ENDBRANCH  13  20
ENDBRANCH   1  15
TORSDOF 4
ENDMDL
MODEL 9
REMARK VINA RESULT:      -7.3      2.438      6.047
REMARK  Name = 
REMARK  5 active torsions:
REMARK  status: ('A' for Active; 'I' for Inactive)
REMARK    1  A    between atoms: C_1  and  N_2
REMARK    2  A    between atoms: C_4  and  C_5
REMARK    3  A    between atoms: N_7  and  C_8
REMARK    4  A    between atoms: C_8  and  C_9
REMARK    5  A    between atoms: C_14  and  N_15
REMARK                            x       y       z     vdW  Elec       q    Type
REMARK                         _______ _______ _______ _____ _____    ______ ____
ROOT
ATOM      1  C   UNL     1       4.712   4.052  19.792  0.00  0.00    +0.000 C 
ENDROOT
BRANCH   1   2
ATOM      2  C   UNL     1       3.372   3.491  19.371  0.00  0.00    +0.000 A 
ATOM      3  C   UNL     1       3.165   2.100  19.298  0.00  0.00    +0.000 A 
ATOM      4  C   UNL     1       1.922   1.569  18.972  0.00  0.00    +0.000 A 
ATOM      5  C   UNL     1       0.893   2.446  18.718  0.00  0.00    +0.000 A 
ATOM      6  N   UNL     1       1.035   3.787  18.743  0.00  0.00    +0.000 NA
ATOM      7  C   UNL     1       2.265   4.304  19.055  0.00  0.00    +0.000 A 
BRANCH   7   8
ATOM      8  N   UNL     1       2.357   5.741  19.013  0.00  0.00    +0.000 N 
ATOM      9  C   UNL     1       1.943   6.604  20.013  0.00  0.00    +0.000 A 
ATOM     10  C   UNL     1       2.160   7.885  19.566  0.00  0.00    +0.000 A 
ATOM     11  C   UNL     1       2.707   7.719  18.287  0.00  0.00    +0.000 A 
ATOM     12  N   UNL     1       2.825   6.438  17.942  0.00  0.00    +0.000 NA
ENDBRANCH   7   8
ENDBRANCH   1   2
BRANCH   1  15
ATOM     13  C   UNL     1       6.719   5.218  18.946  0.00  0.00    +0.000 C 
ATOM     14  O   UNL     1       7.167   5.393  20.074  0.00  0.00    +0.000 OA
ATOM     15  N   UNL     1       5.524   4.575  18.707  0.00  0.00    +0.000 N 
ATOM     16  H   UNL     1       5.179   4.456  17.765  0.00  0.00    +0.000 HD
BRANCH  13  20
ATOM     17  C   UNL     1       5.934   4.193  14.623  0.00  0.00    +0.000 C 
ATOM     18  N   UNL     1       6.303   4.996  15.763  0.00  0.00    +0.000 N 
ATOM     19  C   UNL     1       7.443   4.683  16.586  0.00  0.00    +0.000 C 
ATOM     20  C   UNL     1       7.403   5.731  17.688  0.00  0.00    +0.000 C 
ATOM     21  C   UNL     1       6.655   6.911  17.067  0.00  0.00    +0.000 C 
ATOM     22  C   UNL     1       5.865   6.295  15.939  0.00  0.00    +0.000 C 
ATOM     23  O   UNL     1       5.030   6.882  15.273  0.00  0.00    +0.000 OA
ENDBRANCH  13  20
ENDBRANCH   1  15
TORSDOF 4
ENDMDL
