MODEL 1
REMARK VINA RESULT:      -8.1      0.000      0.000
REMARK  Name = 
REMARK  11 active torsions:
REMARK  status: ('A' for Active; 'I' for Inactive)
REMARK    1  A    between atoms: C_1  and  O_2
REMARK    2  A    between atoms: O_2  and  C_3
REMARK    3  A    between atoms: C_5  and  O_6
REMARK    4  A    between atoms: O_6  and  C_7
REMARK    5  A    between atoms: C_12  and  C_13
REMARK    6  A    between atoms: C_13  and  O_14
REMARK    7  A    between atoms: O_14  and  C_15
REMARK    8  A    between atoms: C_19  and  C_20
REMARK    9  A    between atoms: C_20  and  O_22
REMARK   10  A    between atoms: N_24  and  C_25
REMARK   11  A    between atoms: C_29  and  C_30
REMARK                            x       y       z     vdW  Elec       q    Type
REMARK                         _______ _______ _______ _____ _____    ______ ____
ROOT
ATOM      1  C   UNL     1       3.114   4.746  18.153  0.00  0.00    +0.000 A 
ATOM      2  C   UNL     1       2.790   3.994  19.280  0.00  0.00    +0.000 A 
ATOM      3  C   UNL     1       2.214   4.631  20.385  0.00  0.00    +0.000 A 
ATOM      4  C   UNL     1       1.998   6.009  20.282  0.00  0.00    +0.000 A 
ATOM      5  N   UNL     1       1.407   6.902  21.136  0.00  0.00    +0.000 NA
ATOM      6  C   UNL     1       1.454   8.075  20.517  0.00  0.00    +0.000 A 
ATOM      7  N   UNL     1       2.084   7.961  19.298  0.00  0.00    +0.000 N 
ATOM      8  C   UNL     1       2.350   8.985  18.319  0.00  0.00    +0.000 C 
ATOM      9  C   UNL     1       2.412   6.644  19.123  0.00  0.00    +0.000 A 
ATOM     10  N   UNL     1       2.985   6.092  18.041  0.00  0.00    +0.000 NA
ENDROOT
BRANCH   1  11
ATOM     11  O   UNL     1       3.603   4.030  17.060  0.00  0.00    +0.000 OA
BRANCH  11  14
ATOM     12  C   UNL     1       7.171   4.549  17.333  0.00  0.00    +0.000 A 
ATOM     13  C   UNL     1       5.855   4.325  17.695  0.00  0.00    +0.000 A 
ATOM     14  C   UNL     1       4.909   4.260  16.680  0.00  0.00    +0.000 A 
ATOM     15  C   UNL     1       5.318   4.366  15.349  0.00  0.00    +0.000 A 
ATOM     16  C   UNL     1       6.658   4.606  15.080  0.00  0.00    +0.000 A 
ATOM     17  C   UNL     1       7.141   4.812  13.678  0.00  0.00    +0.000 C 
ATOM     18  N   UNL     1       7.587   4.693  16.056  0.00  0.00    +0.000 NA
BRANCH  12  20
ATOM     19  C   UNL     1       7.829   5.737  19.231  0.00  0.00    +0.000 C 
ATOM     20  O   UNL     1       8.092   4.642  18.358  0.00  0.00    +0.000 OA
ENDBRANCH  12  20
ENDBRANCH  11  14
ENDBRANCH   1  11
BRANCH   6  21
ATOM     21  C   UNL     1       0.861   9.336  21.049  0.00  0.00    +0.000 C 
BRANCH  21  22
ATOM     22  O   UNL     1      -0.351   9.561  20.331  0.00  0.00    +0.000 OA
BRANCH  22  23
ATOM     23  C   UNL     1      -0.429  10.744  19.645  0.00  0.00    +0.000 A 
ATOM     24  C   UNL     1      -1.401  10.786  18.644  0.00  0.00    +0.000 A 
ATOM     25  C   UNL     1      -1.600  11.946  17.894  0.00  0.00    +0.000 A 
ATOM     26  C   UNL     1      -0.799  13.063  18.122  0.00  0.00    +0.000 A 
ATOM     27  C   UNL     1       0.212  13.012  19.088  0.00  0.00    +0.000 A 
ATOM     28  C   UNL     1       0.387  11.855  19.861  0.00  0.00    +0.000 A 
BRANCH  27  29
ATOM     29  C   UNL     1       1.043  14.219  19.305  0.00  0.00    +0.000 C 
ATOM     30  O   UNL     1       1.849  14.621  18.479  0.00  0.00    +0.000 OA
BRANCH  29  31
ATOM     31  O   UNL     1       0.846  14.818  20.497  0.00  0.00    +0.000 OA
ATOM     32  H   UNL     1       0.996  14.253  21.277  0.00  0.00    +0.000 HD
ENDBRANCH  29  31
ENDBRANCH  27  29
ENDBRANCH  22  23
ENDBRANCH  21  22
ENDBRANCH   6  21
TORSDOF 8
ENDMDL
MODEL 2
REMARK VINA RESULT:      -8.0      3.349      5.244
REMARK  Name = 
REMARK  11 active torsions:
REMARK  status: ('A' for Active; 'I' for Inactive)
REMARK    1  A    between atoms: C_1  and  O_2
REMARK    2  A    between atoms: O_2  and  C_3
REMARK    3  A    between atoms: C_5  and  O_6
REMARK    4  A    between atoms: O_6  and  C_7
REMARK    5  A    between atoms: C_12  and  C_13
REMARK    6  A    between atoms: C_13  and  O_14
REMARK    7  A    between atoms: O_14  and  C_15
REMARK    8  A    between atoms: C_19  and  C_20
REMARK    9  A    between atoms: C_20  and  O_22
REMARK   10  A    between atoms: N_24  and  C_25
REMARK   11  A    between atoms: C_29  and  C_30
REMARK                            x       y       z     vdW  Elec       q    Type
REMARK                         _______ _______ _______ _____ _____    ______ ____
ROOT
ATOM      1  C   UNL     1       2.203   7.693  19.561  0.00  0.00    +0.000 A 
ATOM      2  C   UNL     1       2.159   8.165  18.250  0.00  0.00    +0.000 A 
ATOM      3  C   UNL     1       1.377   9.286  17.953  0.00  0.00    +0.000 A 
ATOM      4  C   UNL     1       0.677   9.871  19.012  0.00  0.00    +0.000 A 
ATOM      5  N   UNL     1      -0.108  10.992  19.074  0.00  0.00    +0.000 NA
ATOM      6  C   UNL     1      -0.499  11.087  20.338  0.00  0.00    +0.000 A 
ATOM      7  N   UNL     1      -0.005  10.040  21.084  0.00  0.00    +0.000 N 
ATOM      8  C   UNL     1      -0.194   9.761  22.485  0.00  0.00    +0.000 C 
ATOM      9  C   UNL     1       0.769   9.272  20.258  0.00  0.00    +0.000 A 
ATOM     10  N   UNL     1       1.485   8.187  20.599  0.00  0.00    +0.000 NA
ENDROOT
BRANCH   1  11
ATOM     11  O   UNL     1       3.070   6.626  19.798  0.00  0.00    +0.000 OA
BRANCH  11  14
ATOM     12  C   UNL     1       3.615   4.058  17.311  0.00  0.00    +0.000 A 
ATOM     13  C   UNL     1       3.790   5.213  18.052  0.00  0.00    +0.000 A 
ATOM     14  C   UNL     1       2.877   5.472  19.066  0.00  0.00    +0.000 A 
ATOM     15  C   UNL     1       1.865   4.549  19.336  0.00  0.00    +0.000 A 
ATOM     16  C   UNL     1       1.757   3.424  18.529  0.00  0.00    +0.000 A 
ATOM     17  C   UNL     1       0.643   2.442  18.716  0.00  0.00    +0.000 C 
ATOM     18  N   UNL     1       2.623   3.167  17.526  0.00  0.00    +0.000 NA
BRANCH  12  20
ATOM     19  C   UNL     1       5.232   5.009  15.923  0.00  0.00    +0.000 C 
ATOM     20  O   UNL     1       4.515   3.833  16.287  0.00  0.00    +0.000 OA
ENDBRANCH  12  20
ENDBRANCH  11  14
ENDBRANCH   1  11
BRANCH   6  21
ATOM     21  C   UNL     1      -1.321  12.203  20.887  0.00  0.00    +0.000 C 
BRANCH  21  22
ATOM     22  O   UNL     1      -2.172  12.652  19.833  0.00  0.00    +0.000 OA
BRANCH  22  23
ATOM     23  C   UNL     1      -3.516  12.498  20.042  0.00  0.00    +0.000 A 
ATOM     24  C   UNL     1      -3.957  12.820  21.328  0.00  0.00    +0.000 A 
ATOM     25  C   UNL     1      -5.310  12.734  21.657  0.00  0.00    +0.000 A 
ATOM     26  C   UNL     1      -6.228  12.290  20.707  0.00  0.00    +0.000 A 
ATOM     27  C   UNL     1      -5.787  11.916  19.433  0.00  0.00    +0.000 A 
ATOM     28  C   UNL     1      -4.431  12.034  19.096  0.00  0.00    +0.000 A 
BRANCH  27  29
ATOM     29  C   UNL     1      -6.790  11.451  18.448  0.00  0.00    +0.000 C 
ATOM     30  O   UNL     1      -7.185  12.151  17.528  0.00  0.00    +0.000 OA
BRANCH  29  31
ATOM     31  O   UNL     1      -7.243  10.200  18.668  0.00  0.00    +0.000 OA
ATOM     32  H   UNL     1      -7.911  10.117  19.374  0.00  0.00    +0.000 HD
ENDBRANCH  29  31
ENDBRANCH  27  29
ENDBRANCH  22  23
ENDBRANCH  21  22
ENDBRANCH   6  21
TORSDOF 8
ENDMDL
MODEL 3
REMARK VINA RESULT:      -8.0      1.536      1.956
REMARK  Name = 
REMARK  11 active torsions:
REMARK  status: ('A' for Active; 'I' for Inactive)
REMARK    1  A    between atoms: C_1  and  O_2
REMARK    2  A    between atoms: O_2  and  C_3
REMARK    3  A    between atoms: C_5  and  O_6
REMARK    4  A    between atoms: O_6  and  C_7
REMARK    5  A    between atoms: C_12  and  C_13
REMARK    6  A    between atoms: C_13  and  O_14
REMARK    7  A    between atoms: O_14  and  C_15
REMARK    8  A    between atoms: C_19  and  C_20
REMARK    9  A    between atoms: C_20  and  O_22
REMARK   10  A    between atoms: N_24  and  C_25
REMARK   11  A    between atoms: C_29  and  C_30
REMARK                            x       y       z     vdW  Elec       q    Type
REMARK                         _______ _______ _______ _____ _____    ______ ____
ROOT
ATOM      1  C   UNL     1       3.161   4.830  18.216  0.00  0.00    +0.000 A 
ATOM      2  C   UNL     1       2.863   4.223  19.435  0.00  0.00    +0.000 A 
ATOM      3  C   UNL     1       2.270   4.982  20.450  0.00  0.00    +0.000 A 
ATOM      4  C   UNL     1       2.011   6.326  20.168  0.00  0.00    +0.000 A 
ATOM      5  N   UNL     1       1.394   7.306  20.901  0.00  0.00    +0.000 NA
ATOM      6  C   UNL     1       1.403   8.387  20.133  0.00  0.00    +0.000 A 
ATOM      7  N   UNL     1       2.034   8.134  18.936  0.00  0.00    +0.000 N 
ATOM      8  C   UNL     1       2.266   9.027  17.829  0.00  0.00    +0.000 C 
ATOM      9  C   UNL     1       2.402   6.816  18.933  0.00  0.00    +0.000 A 
ATOM     10  N   UNL     1       2.991   6.144  17.929  0.00  0.00    +0.000 NA
ENDROOT
BRANCH   1  11
ATOM     11  O   UNL     1       3.670   3.991  17.223  0.00  0.00    +0.000 OA
BRANCH  11  14
ATOM     12  C   UNL     1       7.241   4.529  17.411  0.00  0.00    +0.000 A 
ATOM     13  C   UNL     1       5.932   4.318  17.806  0.00  0.00    +0.000 A 
ATOM     14  C   UNL     1       4.969   4.207  16.811  0.00  0.00    +0.000 A 
ATOM     15  C   UNL     1       5.354   4.255  15.470  0.00  0.00    +0.000 A 
ATOM     16  C   UNL     1       6.689   4.486  15.168  0.00  0.00    +0.000 A 
ATOM     17  C   UNL     1       7.147   4.632  13.750  0.00  0.00    +0.000 C 
ATOM     18  N   UNL     1       7.635   4.617  16.122  0.00  0.00    +0.000 NA
BRANCH  12  20
ATOM     19  C   UNL     1       7.898   5.767  19.277  0.00  0.00    +0.000 C 
ATOM     20  O   UNL     1       8.180   4.668  18.415  0.00  0.00    +0.000 OA
ENDBRANCH  12  20
ENDBRANCH  11  14
ENDBRANCH   1  11
BRANCH   6  21
ATOM     21  C   UNL     1       0.772   9.688  20.498  0.00  0.00    +0.000 C 
BRANCH  21  22
ATOM     22  O   UNL     1       0.537  10.393  19.280  0.00  0.00    +0.000 OA
BRANCH  22  23
ATOM     23  C   UNL     1      -0.743  10.838  19.084  0.00  0.00    +0.000 A 
ATOM     24  C   UNL     1      -1.373  10.346  17.939  0.00  0.00    +0.000 A 
ATOM     25  C   UNL     1      -2.690  10.702  17.644  0.00  0.00    +0.000 A 
ATOM     26  C   UNL     1      -3.373  11.583  18.480  0.00  0.00    +0.000 A 
ATOM     27  C   UNL     1      -2.731  12.121  19.601  0.00  0.00    +0.000 A 
ATOM     28  C   UNL     1      -1.419  11.737  19.911  0.00  0.00    +0.000 A 
BRANCH  27  29
ATOM     29  C   UNL     1      -3.488  13.053  20.468  0.00  0.00    +0.000 C 
ATOM     30  O   UNL     1      -3.111  14.192  20.700  0.00  0.00    +0.000 OA
BRANCH  29  31
ATOM     31  O   UNL     1      -4.615  12.528  20.992  0.00  0.00    +0.000 OA
ATOM     32  H   UNL     1      -5.050  11.847  20.446  0.00  0.00    +0.000 HD
ENDBRANCH  29  31
ENDBRANCH  27  29
ENDBRANCH  22  23
ENDBRANCH  21  22
ENDBRANCH   6  21
TORSDOF 8
ENDMDL
MODEL 4
REMARK VINA RESULT:      -8.0      4.348     10.832
REMARK  Name = 
REMARK  11 active torsions:
REMARK  status: ('A' for Active; 'I' for Inactive)
REMARK    1  A    between atoms: C_1  and  O_2
REMARK    2  A    between atoms: O_2  and  C_3
REMARK    3  A    between atoms: C_5  and  O_6
REMARK    4  A    between atoms: O_6  and  C_7
REMARK    5  A    between atoms: C_12  and  C_13
REMARK    6  A    between atoms: C_13  and  O_14
REMARK    7  A    between atoms: O_14  and  C_15
REMARK    8  A    between atoms: C_19  and  C_20
REMARK    9  A    between atoms: C_20  and  O_22
REMARK   10  A    between atoms: N_24  and  C_25
REMARK   11  A    between atoms: C_29  and  C_30
REMARK                            x       y       z     vdW  Elec       q    Type
REMARK                         _______ _______ _______ _____ _____    ______ ____
ROOT
ATOM      1  C   UNL     1      -4.096  11.459  17.681  0.00  0.00    +0.000 A 
ATOM      2  C   UNL     1      -3.776  10.769  16.513  0.00  0.00    +0.000 A 
ATOM      3  C   UNL     1      -2.526  10.149  16.404  0.00  0.00    +0.000 A 
ATOM      4  C   UNL     1      -1.663  10.265  17.498  0.00  0.00    +0.000 A 
ATOM      5  N   UNL     1      -0.423   9.735  17.738  0.00  0.00    +0.000 NA
ATOM      6  C   UNL     1      -0.080  10.156  18.948  0.00  0.00    +0.000 A 
ATOM      7  N   UNL     1      -1.059  10.966  19.481  0.00  0.00    +0.000 N 
ATOM      8  C   UNL     1      -1.084  11.631  20.758  0.00  0.00    +0.000 C 
ATOM      9  C   UNL     1      -2.086  11.022  18.579  0.00  0.00    +0.000 A 
ATOM     10  N   UNL     1      -3.261  11.654  18.732  0.00  0.00    +0.000 NA
ENDROOT
BRANCH   1  11
ATOM     11  O   UNL     1      -5.390  11.976  17.751  0.00  0.00    +0.000 OA
BRANCH  11  14
ATOM     12  C   UNL     1      -7.464  12.214  20.704  0.00  0.00    +0.000 A 
ATOM     13  C   UNL     1      -6.668  12.589  19.636  0.00  0.00    +0.000 A 
ATOM     14  C   UNL     1      -6.177  11.583  18.814  0.00  0.00    +0.000 A 
ATOM     15  C   UNL     1      -6.541  10.257  19.054  0.00  0.00    +0.000 A 
ATOM     16  C   UNL     1      -7.331   9.972  20.159  0.00  0.00    +0.000 A 
ATOM     17  C   UNL     1      -7.684   8.562  20.515  0.00  0.00    +0.000 C 
ATOM     18  N   UNL     1      -7.800  10.936  20.981  0.00  0.00    +0.000 NA
BRANCH  12  20
ATOM     19  C   UNL     1      -7.252  14.463  21.289  0.00  0.00    +0.000 C 
ATOM     20  O   UNL     1      -7.916  13.226  21.528  0.00  0.00    +0.000 OA
ENDBRANCH  12  20
ENDBRANCH  11  14
ENDBRANCH   1  11
BRANCH   6  21
ATOM     21  C   UNL     1       1.173   9.766  19.655  0.00  0.00    +0.000 C 
BRANCH  21  22
ATOM     22  O   UNL     1       1.963   9.026  18.726  0.00  0.00    +0.000 OA
BRANCH  22  23
ATOM     23  C   UNL     1       2.080   7.685  18.976  0.00  0.00    +0.000 A 
ATOM     24  C   UNL     1       1.790   7.298  20.286  0.00  0.00    +0.000 A 
ATOM     25  C   UNL     1       1.844   5.954  20.658  0.00  0.00    +0.000 A 
ATOM     26  C   UNL     1       2.224   4.991  19.725  0.00  0.00    +0.000 A 
ATOM     27  C   UNL     1       2.566   5.377  18.424  0.00  0.00    +0.000 A 
ATOM     28  C   UNL     1       2.480   6.724  18.045  0.00  0.00    +0.000 A 
BRANCH  27  29
ATOM     29  C   UNL     1       2.963   4.327  17.458  0.00  0.00    +0.000 C 
ATOM     30  O   UNL     1       4.055   4.312  16.911  0.00  0.00    +0.000 OA
BRANCH  29  31
ATOM     31  O   UNL     1       2.007   3.405  17.221  0.00  0.00    +0.000 OA
ATOM     32  H   UNL     1       2.142   2.862  16.422  0.00  0.00    +0.000 HD
ENDBRANCH  29  31
ENDBRANCH  27  29
ENDBRANCH  22  23
ENDBRANCH  21  22
ENDBRANCH   6  21
TORSDOF 8
ENDMDL
MODEL 5
REMARK VINA RESULT:      -8.0      4.582     10.820
REMARK  Name = 
REMARK  11 active torsions:
REMARK  status: ('A' for Active; 'I' for Inactive)
REMARK    1  A    between atoms: C_1  and  O_2
REMARK    2  A    between atoms: O_2  and  C_3
REMARK    3  A    between atoms: C_5  and  O_6
REMARK    4  A    between atoms: O_6  and  C_7
REMARK    5  A    between atoms: C_12  and  C_13
REMARK    6  A    between atoms: C_13  and  O_14
REMARK    7  A    between atoms: O_14  and  C_15
REMARK    8  A    between atoms: C_19  and  C_20
REMARK    9  A    between atoms: C_20  and  O_22
REMARK   10  A    between atoms: N_24  and  C_25
REMARK   11  A    between atoms: C_29  and  C_30
REMARK                            x       y       z     vdW  Elec       q    Type
REMARK                         _______ _______ _______ _____ _____    ______ ____
ROOT
ATOM      1  C   UNL     1      -4.293  11.571  17.932  0.00  0.00    +0.000 A 
ATOM      2  C   UNL     1      -4.153  10.906  16.715  0.00  0.00    +0.000 A 
ATOM      3  C   UNL     1      -2.952  10.249  16.428  0.00  0.00    +0.000 A 
ATOM      4  C   UNL     1      -1.950  10.304  17.402  0.00  0.00    +0.000 A 
ATOM      5  N   UNL     1      -0.710   9.726  17.464  0.00  0.00    +0.000 NA
ATOM      6  C   UNL     1      -0.198  10.098  18.629  0.00  0.00    +0.000 A 
ATOM      7  N   UNL     1      -1.068  10.923  19.306  0.00  0.00    +0.000 N 
ATOM      8  C   UNL     1      -0.903  11.551  20.593  0.00  0.00    +0.000 C 
ATOM      9  C   UNL     1      -2.201  11.041  18.548  0.00  0.00    +0.000 A 
ATOM     10  N   UNL     1      -3.323  11.707  18.870  0.00  0.00    +0.000 NA
ENDROOT
BRANCH   1  11
ATOM     11  O   UNL     1      -5.547  12.128  18.184  0.00  0.00    +0.000 OA
BRANCH  11  14
ATOM     12  C   UNL     1      -7.361  12.020  21.311  0.00  0.00    +0.000 A 
ATOM     13  C   UNL     1      -6.630  12.512  20.244  0.00  0.00    +0.000 A 
ATOM     14  C   UNL     1      -6.270  11.619  19.243  0.00  0.00    +0.000 A 
ATOM     15  C   UNL     1      -6.696  10.291  19.317  0.00  0.00    +0.000 A 
ATOM     16  C   UNL     1      -7.412   9.883  20.434  0.00  0.00    +0.000 A 
ATOM     17  C   UNL     1      -7.823   8.454  20.610  0.00  0.00    +0.000 C 
ATOM     18  N   UNL     1      -7.753  10.733  21.426  0.00  0.00    +0.000 NA
BRANCH  12  20
ATOM     19  C   UNL     1      -7.400  12.408  23.612  0.00  0.00    +0.000 C 
ATOM     20  O   UNL     1      -7.683  12.917  22.311  0.00  0.00    +0.000 OA
ENDBRANCH  12  20
ENDBRANCH  11  14
ENDBRANCH   1  11
BRANCH   6  21
ATOM     21  C   UNL     1       1.122   9.646  19.157  0.00  0.00    +0.000 C 
BRANCH  21  22
ATOM     22  O   UNL     1       1.903   9.242  18.033  0.00  0.00    +0.000 OA
BRANCH  22  23
ATOM     23  C   UNL     1       2.581   8.060  18.171  0.00  0.00    +0.000 A 
ATOM     24  C   UNL     1       3.628   7.869  17.267  0.00  0.00    +0.000 A 
ATOM     25  C   UNL     1       4.415   6.717  17.324  0.00  0.00    +0.000 A 
ATOM     26  C   UNL     1       4.133   5.732  18.269  0.00  0.00    +0.000 A 
ATOM     27  C   UNL     1       3.053   5.893  19.144  0.00  0.00    +0.000 A 
ATOM     28  C   UNL     1       2.286   7.066  19.105  0.00  0.00    +0.000 A 
BRANCH  27  29
ATOM     29  C   UNL     1       2.785   4.827  20.137  0.00  0.00    +0.000 C 
ATOM     30  O   UNL     1       3.393   3.767  20.147  0.00  0.00    +0.000 OA
BRANCH  29  31
ATOM     31  O   UNL     1       1.801   5.121  21.011  0.00  0.00    +0.000 OA
ATOM     32  H   UNL     1       2.063   5.689  21.759  0.00  0.00    +0.000 HD
ENDBRANCH  29  31
ENDBRANCH  27  29
ENDBRANCH  22  23
ENDBRANCH  21  22
ENDBRANCH   6  21
TORSDOF 8
ENDMDL
MODEL 6
REMARK VINA RESULT:      -7.9      3.407      4.965
REMARK  Name = 
REMARK  11 active torsions:
REMARK  status: ('A' for Active; 'I' for Inactive)
REMARK    1  A    between atoms: C_1  and  O_2
REMARK    2  A    between atoms: O_2  and  C_3
REMARK    3  A    between atoms: C_5  and  O_6
REMARK    4  A    between atoms: O_6  and  C_7
REMARK    5  A    between atoms: C_12  and  C_13
REMARK    6  A    between atoms: C_13  and  O_14
REMARK    7  A    between atoms: O_14  and  C_15
REMARK    8  A    between atoms: C_19  and  C_20
REMARK    9  A    between atoms: C_20  and  O_22
REMARK   10  A    between atoms: N_24  and  C_25
REMARK   11  A    between atoms: C_29  and  C_30
REMARK                            x       y       z     vdW  Elec       q    Type
REMARK                         _______ _______ _______ _____ _____    ______ ____
ROOT
ATOM      1  C   UNL     1       2.173   7.708  19.516  0.00  0.00    +0.000 A 
ATOM      2  C   UNL     1       2.298   8.120  18.190  0.00  0.00    +0.000 A 
ATOM      3  C   UNL     1       1.670   9.301  17.779  0.00  0.00    +0.000 A 
ATOM      4  C   UNL     1       0.944  10.004  18.746  0.00  0.00    +0.000 A 
ATOM      5  N   UNL     1       0.281  11.202  18.692  0.00  0.00    +0.000 NA
ATOM      6  C   UNL     1      -0.208  11.396  19.909  0.00  0.00    +0.000 A 
ATOM      7  N   UNL     1       0.101  10.339  20.737  0.00  0.00    +0.000 N 
ATOM      8  C   UNL     1      -0.240  10.147  22.123  0.00  0.00    +0.000 C 
ATOM      9  C   UNL     1       0.859   9.458  20.016  0.00  0.00    +0.000 A 
ATOM     10  N   UNL     1       1.422   8.322  20.463  0.00  0.00    +0.000 NA
ENDROOT
BRANCH   1  11
ATOM     11  O   UNL     1       2.896   6.569  19.873  0.00  0.00    +0.000 OA
BRANCH  11  14
ATOM     12  C   UNL     1       2.329   3.644  17.824  0.00  0.00    +0.000 A 
ATOM     13  C   UNL     1       2.145   4.609  18.798  0.00  0.00    +0.000 A 
ATOM     14  C   UNL     1       3.100   5.612  18.900  0.00  0.00    +0.000 A 
ATOM     15  C   UNL     1       4.165   5.645  17.998  0.00  0.00    +0.000 A 
ATOM     16  C   UNL     1       4.278   4.625  17.063  0.00  0.00    +0.000 A 
ATOM     17  C   UNL     1       5.444   4.560  16.126  0.00  0.00    +0.000 C 
ATOM     18  N   UNL     1       3.370   3.630  16.964  0.00  0.00    +0.000 NA
BRANCH  12  20
ATOM     19  C   UNL     1       0.756   2.397  19.014  0.00  0.00    +0.000 C 
ATOM     20  O   UNL     1       1.386   2.637  17.758  0.00  0.00    +0.000 OA
ENDBRANCH  12  20
ENDBRANCH  11  14
ENDBRANCH   1  11
BRANCH   6  21
ATOM     21  C   UNL     1      -0.953  12.615  20.337  0.00  0.00    +0.000 C 
BRANCH  21  22
ATOM     22  O   UNL     1      -2.264  12.518  19.785  0.00  0.00    +0.000 OA
BRANCH  22  23
ATOM     23  C   UNL     1      -3.299  12.641  20.674  0.00  0.00    +0.000 A 
ATOM     24  C   UNL     1      -4.566  12.751  20.098  0.00  0.00    +0.000 A 
ATOM     25  C   UNL     1      -5.704  12.852  20.899  0.00  0.00    +0.000 A 
ATOM     26  C   UNL     1      -5.575  12.879  22.286  0.00  0.00    +0.000 A 
ATOM     27  C   UNL     1      -4.304  12.821  22.869  0.00  0.00    +0.000 A 
ATOM     28  C   UNL     1      -3.166  12.687  22.063  0.00  0.00    +0.000 A 
BRANCH  27  29
ATOM     29  C   UNL     1      -4.205  12.849  24.347  0.00  0.00    +0.000 C 
ATOM     30  O   UNL     1      -3.587  13.714  24.950  0.00  0.00    +0.000 OA
BRANCH  29  31
ATOM     31  O   UNL     1      -4.836  11.829  24.963  0.00  0.00    +0.000 OA
ATOM     32  H   UNL     1      -4.849  10.988  24.469  0.00  0.00    +0.000 HD
ENDBRANCH  29  31
ENDBRANCH  27  29
ENDBRANCH  22  23
ENDBRANCH  21  22
ENDBRANCH   6  21
TORSDOF 8
ENDMDL
MODEL 7
REMARK VINA RESULT:      -7.9      1.978      9.201
REMARK  Name = 
REMARK  11 active torsions:
REMARK  status: ('A' for Active; 'I' for Inactive)
REMARK    1  A    between atoms: C_1  and  O_2
REMARK    2  A    between atoms: O_2  and  C_3
REMARK    3  A    between atoms: C_5  and  O_6
REMARK    4  A    between atoms: O_6  and  C_7
REMARK    5  A    between atoms: C_12  and  C_13
REMARK    6  A    between atoms: C_13  and  O_14
REMARK    7  A    between atoms: O_14  and  C_15
REMARK    8  A    between atoms: C_19  and  C_20
REMARK    9  A    between atoms: C_20  and  O_22
REMARK   10  A    between atoms: N_24  and  C_25
REMARK   11  A    between atoms: C_29  and  C_30
REMARK                            x       y       z     vdW  Elec       q    Type
REMARK                         _______ _______ _______ _____ _____    ______ ____
ROOT
ATOM      1  C   UNL     1       1.389   8.906  19.842  0.00  0.00    +0.000 A 
ATOM      2  C   UNL     1       1.775   9.253  18.548  0.00  0.00    +0.000 A 
ATOM      3  C   UNL     1       2.378   8.289  17.732  0.00  0.00    +0.000 A 
ATOM      4  C   UNL     1       2.557   7.015  18.281  0.00  0.00    +0.000 A 
ATOM      5  N   UNL     1       3.043   5.853  17.742  0.00  0.00    +0.000 NA
ATOM      6  C   UNL     1       2.963   4.948  18.708  0.00  0.00    +0.000 A 
ATOM      7  N   UNL     1       2.462   5.507  19.863  0.00  0.00    +0.000 N 
ATOM      8  C   UNL     1       2.223   4.881  21.139  0.00  0.00    +0.000 C 
ATOM      9  C   UNL     1       2.173   6.817  19.597  0.00  0.00    +0.000 A 
ATOM     10  N   UNL     1       1.609   7.705  20.433  0.00  0.00    +0.000 NA
ENDROOT
BRANCH   1  11
ATOM     11  O   UNL     1       0.717   9.892  20.565  0.00  0.00    +0.000 OA
BRANCH  11  14
ATOM     12  C   UNL     1      -2.051  11.147  18.605  0.00  0.00    +0.000 A 
ATOM     13  C   UNL     1      -1.246  10.273  19.314  0.00  0.00    +0.000 A 
ATOM     14  C   UNL     1      -0.071  10.776  19.857  0.00  0.00    +0.000 A 
ATOM     15  C   UNL     1       0.227  12.134  19.720  0.00  0.00    +0.000 A 
ATOM     16  C   UNL     1      -0.633  12.932  18.978  0.00  0.00    +0.000 A 
ATOM     17  C   UNL     1      -0.324  14.375  18.726  0.00  0.00    +0.000 C 
ATOM     18  N   UNL     1      -1.769  12.455  18.426  0.00  0.00    +0.000 NA
BRANCH  12  20
ATOM     19  C   UNL     1      -3.700  11.418  16.976  0.00  0.00    +0.000 C 
ATOM     20  O   UNL     1      -3.200  10.621  18.046  0.00  0.00    +0.000 OA
ENDBRANCH  12  20
ENDBRANCH  11  14
ENDBRANCH   1  11
BRANCH   6  21
ATOM     21  C   UNL     1       3.322   3.509  18.551  0.00  0.00    +0.000 C 
BRANCH  21  22
ATOM     22  O   UNL     1       4.698   3.382  18.907  0.00  0.00    +0.000 OA
BRANCH  22  23
ATOM     23  C   UNL     1       5.577   4.136  18.177  0.00  0.00    +0.000 A 
ATOM     24  C   UNL     1       6.247   5.128  18.897  0.00  0.00    +0.000 A 
ATOM     25  C   UNL     1       7.192   5.944  18.272  0.00  0.00    +0.000 A 
ATOM     26  C   UNL     1       7.446   5.792  16.910  0.00  0.00    +0.000 A 
ATOM     27  C   UNL     1       6.741   4.835  16.172  0.00  0.00    +0.000 A 
ATOM     28  C   UNL     1       5.816   3.996  16.809  0.00  0.00    +0.000 A 
BRANCH  27  29
ATOM     29  C   UNL     1       7.039   4.700  14.727  0.00  0.00    +0.000 C 
ATOM     30  O   UNL     1       7.747   5.491  14.123  0.00  0.00    +0.000 OA
BRANCH  29  31
ATOM     31  O   UNL     1       6.444   3.643  14.136  0.00  0.00    +0.000 OA
ATOM     32  H   UNL     1       6.087   2.971  14.747  0.00  0.00    +0.000 HD
ENDBRANCH  29  31
ENDBRANCH  27  29
ENDBRANCH  22  23
ENDBRANCH  21  22
ENDBRANCH   6  21
TORSDOF 8
ENDMDL
MODEL 8
REMARK VINA RESULT:      -7.8      1.909      2.657
REMARK  Name = 
REMARK  11 active torsions:
REMARK  status: ('A' for Active; 'I' for Inactive)
REMARK    1  A    between atoms: C_1  and  O_2
REMARK    2  A    between atoms: O_2  and  C_3
REMARK    3  A    between atoms: C_5  and  O_6
REMARK    4  A    between atoms: O_6  and  C_7
REMARK    5  A    between atoms: C_12  and  C_13
REMARK    6  A    between atoms: C_13  and  O_14
REMARK    7  A    between atoms: O_14  and  C_15
REMARK    8  A    between atoms: C_19  and  C_20
REMARK    9  A    between atoms: C_20  and  O_22
REMARK   10  A    between atoms: N_24  and  C_25
REMARK   11  A    between atoms: C_29  and  C_30
REMARK                            x       y       z     vdW  Elec       q    Type
REMARK                         _______ _______ _______ _____ _____    ______ ____
ROOT
ATOM      1  C   UNL     1       3.694   4.388  18.289  0.00  0.00    +0.000 A 
ATOM      2  C   UNL     1       3.323   3.832  19.513  0.00  0.00    +0.000 A 
ATOM      3  C   UNL     1       2.631   4.619  20.440  0.00  0.00    +0.000 A 
ATOM      4  C   UNL     1       2.351   5.938  20.070  0.00  0.00    +0.000 A 
ATOM      5  N   UNL     1       1.650   6.931  20.702  0.00  0.00    +0.000 NA
ATOM      6  C   UNL     1       1.684   7.973  19.882  0.00  0.00    +0.000 A 
ATOM      7  N   UNL     1       2.412   7.682  18.750  0.00  0.00    +0.000 N 
ATOM      8  C   UNL     1       2.700   8.528  17.619  0.00  0.00    +0.000 C 
ATOM      9  C   UNL     1       2.821   6.380  18.843  0.00  0.00    +0.000 A 
ATOM     10  N   UNL     1       3.505   5.680  17.923  0.00  0.00    +0.000 NA
ENDROOT
BRANCH   1  11
ATOM     11  O   UNL     1       4.304   3.520  17.383  0.00  0.00    +0.000 OA
BRANCH  11  14
ATOM     12  C   UNL     1       6.993   5.595  16.140  0.00  0.00    +0.000 A 
ATOM     13  C   UNL     1       6.060   5.048  17.003  0.00  0.00    +0.000 A 
ATOM     14  C   UNL     1       5.224   4.058  16.506  0.00  0.00    +0.000 A 
ATOM     15  C   UNL     1       5.385   3.615  15.191  0.00  0.00    +0.000 A 
ATOM     16  C   UNL     1       6.337   4.232  14.392  0.00  0.00    +0.000 A 
ATOM     17  C   UNL     1       6.499   3.859  12.952  0.00  0.00    +0.000 C 
ATOM     18  N   UNL     1       7.144   5.211  14.854  0.00  0.00    +0.000 NA
BRANCH  12  20
ATOM     19  C   UNL     1       7.341   7.077  17.908  0.00  0.00    +0.000 C 
ATOM     20  O   UNL     1       7.794   6.601  16.644  0.00  0.00    +0.000 OA
ENDBRANCH  12  20
ENDBRANCH  11  14
ENDBRANCH   1  11
BRANCH   6  21
ATOM     21  C   UNL     1       0.986   9.267  20.130  0.00  0.00    +0.000 C 
BRANCH  21  22
ATOM     22  O   UNL     1       0.296   9.606  18.928  0.00  0.00    +0.000 OA
BRANCH  22  23
ATOM     23  C   UNL     1      -0.788  10.430  19.073  0.00  0.00    +0.000 A 
ATOM     24  C   UNL     1      -0.716  11.322  20.145  0.00  0.00    +0.000 A 
ATOM     25  C   UNL     1      -1.745  12.234  20.380  0.00  0.00    +0.000 A 
ATOM     26  C   UNL     1      -2.872  12.234  19.559  0.00  0.00    +0.000 A 
ATOM     27  C   UNL     1      -2.974  11.309  18.515  0.00  0.00    +0.000 A 
ATOM     28  C   UNL     1      -1.924  10.415  18.262  0.00  0.00    +0.000 A 
BRANCH  27  29
ATOM     29  C   UNL     1      -4.185  11.340  17.662  0.00  0.00    +0.000 C 
ATOM     30  O   UNL     1      -5.233  10.800  17.984  0.00  0.00    +0.000 OA
BRANCH  29  31
ATOM     31  O   UNL     1      -4.022  11.994  16.494  0.00  0.00    +0.000 OA
ATOM     32  H   UNL     1      -3.530  11.506  15.808  0.00  0.00    +0.000 HD
ENDBRANCH  29  31
ENDBRANCH  27  29
ENDBRANCH  22  23
ENDBRANCH  21  22
ENDBRANCH   6  21
TORSDOF 8
ENDMDL
MODEL 9
REMARK VINA RESULT:      -7.8      1.289      1.666
REMARK  Name = 
REMARK  11 active torsions:
REMARK  status: ('A' for Active; 'I' for Inactive)
REMARK    1  A    between atoms: C_1  and  O_2
REMARK    2  A    between atoms: O_2  and  C_3
REMARK    3  A    between atoms: C_5  and  O_6
REMARK    4  A    between atoms: O_6  and  C_7
REMARK    5  A    between atoms: C_12  and  C_13
REMARK    6  A    between atoms: C_13  and  O_14
REMARK    7  A    between atoms: O_14  and  C_15
REMARK    8  A    between atoms: C_19  and  C_20
REMARK    9  A    between atoms: C_20  and  O_22
REMARK   10  A    between atoms: N_24  and  C_25
REMARK   11  A    between atoms: C_29  and  C_30
REMARK                            x       y       z     vdW  Elec       q    Type
REMARK                         _______ _______ _______ _____ _____    ______ ____
ROOT
ATOM      1  C   UNL     1       3.387   4.330  17.706  0.00  0.00    +0.000 A 
ATOM      2  C   UNL     1       3.168   3.407  18.728  0.00  0.00    +0.000 A 
ATOM      3  C   UNL     1       2.617   3.843  19.937  0.00  0.00    +0.000 A 
ATOM      4  C   UNL     1       2.316   5.205  20.043  0.00  0.00    +0.000 A 
ATOM      5  N   UNL     1       1.720   5.929  21.042  0.00  0.00    +0.000 NA
ATOM      6  C   UNL     1       1.667   7.177  20.597  0.00  0.00    +0.000 A 
ATOM      7  N   UNL     1       2.236   7.277  19.347  0.00  0.00    +0.000 N 
ATOM      8  C   UNL     1       2.390   8.444  18.515  0.00  0.00    +0.000 C 
ATOM      9  C   UNL     1       2.630   6.023  18.970  0.00  0.00    +0.000 A 
ATOM     10  N   UNL     1       3.176   5.666  17.795  0.00  0.00    +0.000 NA
ENDROOT
BRANCH   1  11
ATOM     11  O   UNL     1       3.858   3.808  16.501  0.00  0.00    +0.000 OA
BRANCH  11  14
ATOM     12  C   UNL     1       7.078   5.451  16.449  0.00  0.00    +0.000 A 
ATOM     13  C   UNL     1       5.878   4.951  16.920  0.00  0.00    +0.000 A 
ATOM     14  C   UNL     1       5.048   4.305  16.012  0.00  0.00    +0.000 A 
ATOM     15  C   UNL     1       5.469   4.138  14.691  0.00  0.00    +0.000 A 
ATOM     16  C   UNL     1       6.683   4.688  14.304  0.00  0.00    +0.000 A 
ATOM     17  C   UNL     1       7.148   4.613  12.883  0.00  0.00    +0.000 C 
ATOM     18  N   UNL     1       7.493   5.336  15.169  0.00  0.00    +0.000 NA
BRANCH  12  20
ATOM     19  C   UNL     1       7.457   5.908  18.706  0.00  0.00    +0.000 C 
ATOM     20  O   UNL     1       7.876   6.117  17.360  0.00  0.00    +0.000 OA
ENDBRANCH  12  20
ENDBRANCH  11  14
ENDBRANCH   1  11
BRANCH   6  21
ATOM     21  C   UNL     1       1.031   8.310  21.330  0.00  0.00    +0.000 C 
BRANCH  21  22
ATOM     22  O   UNL     1      -0.039   8.786  20.516  0.00  0.00    +0.000 OA
BRANCH  22  23
ATOM     23  C   UNL     1      -0.261  10.136  20.548  0.00  0.00    +0.000 A 
ATOM     24  C   UNL     1      -0.457  10.674  21.822  0.00  0.00    +0.000 A 
ATOM     25  C   UNL     1      -0.662  12.044  21.990  0.00  0.00    +0.000 A 
ATOM     26  C   UNL     1      -0.708  12.880  20.876  0.00  0.00    +0.000 A 
ATOM     27  C   UNL     1      -0.564  12.341  19.593  0.00  0.00    +0.000 A 
ATOM     28  C   UNL     1      -0.325  10.970  19.430  0.00  0.00    +0.000 A 
BRANCH  27  29
ATOM     29  C   UNL     1      -0.614  13.260  18.432  0.00  0.00    +0.000 C 
ATOM     30  O   UNL     1      -0.214  14.413  18.486  0.00  0.00    +0.000 OA
BRANCH  29  31
ATOM     31  O   UNL     1      -1.158  12.719  17.323  0.00  0.00    +0.000 OA
ATOM     32  H   UNL     1      -1.602  13.350  16.727  0.00  0.00    +0.000 HD
ENDBRANCH  29  31
ENDBRANCH  27  29
ENDBRANCH  22  23
ENDBRANCH  21  22
ENDBRANCH   6  21
TORSDOF 8
ENDMDL
