MODEL 1
REMARK VINA RESULT:      -6.5      0.000      0.000
REMARK  Name = 
REMARK  4 active torsions:
REMARK  status: ('A' for Active; 'I' for Inactive)
REMARK    1  A    between atoms: C_1  and  C_2
REMARK    2  A    between atoms: C_2  and  C_3
REMARK    3  A    between atoms: N_11  and  C_12
REMARK    4  A    between atoms: C_12  and  C_13
REMARK                            x       y       z     vdW  Elec       q    Type
REMARK                         _______ _______ _______ _____ _____    ______ ____
ROOT
ATOM      1  C   UNL     1       2.166   6.164  19.838  0.00  0.00    +0.000 A 
ATOM      2  N   UNL     1       1.760   5.392  20.872  0.00  0.00    +0.000 NA
ATOM      3  C   UNL     1       1.810   4.066  20.697  0.00  0.00    +0.000 A 
ATOM      4  N   UNL     1       2.234   3.435  19.598  0.00  0.00    +0.000 NA
ATOM      5  C   UNL     1       2.639   4.221  18.580  0.00  0.00    +0.000 A 
ATOM      6  C   UNL     1       2.626   5.613  18.642  0.00  0.00    +0.000 A 
ATOM      7  C   UNL     1       3.130   6.405  17.469  0.00  0.00    +0.000 C 
ATOM      8  C   UNL     1       4.640   6.227  17.241  0.00  0.00    +0.000 C 
ATOM      9  N   UNL     1       5.032   5.013  16.486  0.00  0.00    +0.000 NA
ATOM     10  C   UNL     1       4.685   3.761  17.198  0.00  0.00    +0.000 C 
ATOM     11  C   UNL     1       3.182   3.509  17.369  0.00  0.00    +0.000 C 
ENDROOT
BRANCH   1  13
ATOM     12  C   UNL     1       1.104   7.992  21.190  0.00  0.00    +0.000 C 
ATOM     13  C   UNL     1       2.128   7.645  20.119  0.00  0.00    +0.000 C 
ENDBRANCH   1  13
BRANCH   9  14
ATOM     14  C   UNL     1       6.504   5.011  16.242  0.00  0.00    +0.000 C 
BRANCH  14  15
ATOM     15  C   UNL     1       6.897   4.878  14.789  0.00  0.00    +0.000 A 
ATOM     16  N   UNL     1       7.908   5.520  14.233  0.00  0.00    +0.000 NA
ATOM     17  C   UNL     1       7.970   5.220  12.889  0.00  0.00    +0.000 A 
ATOM     18  C   UNL     1       7.030   4.321  12.435  0.00  0.00    +0.000 A 
ATOM     19  S   UNL     1       6.014   3.842  13.731  0.00  0.00    +0.000 S 
ENDBRANCH  14  15
ENDBRANCH   9  14
TORSDOF 3
ENDMDL
MODEL 2
REMARK VINA RESULT:      -6.2      2.318      6.264
REMARK  Name = 
REMARK  4 active torsions:
REMARK  status: ('A' for Active; 'I' for Inactive)
REMARK    1  A    between atoms: C_1  and  C_2
REMARK    2  A    between atoms: C_2  and  C_3
REMARK    3  A    between atoms: N_11  and  C_12
REMARK    4  A    between atoms: C_12  and  C_13
REMARK                            x       y       z     vdW  Elec       q    Type
REMARK                         _______ _______ _______ _____ _____    ______ ____
ROOT
ATOM      1  C   UNL     1       7.083   5.834  17.298  0.00  0.00    +0.000 A 
ATOM      2  N   UNL     1       7.359   5.921  15.977  0.00  0.00    +0.000 NA
ATOM      3  C   UNL     1       6.688   5.100  15.160  0.00  0.00    +0.000 A 
ATOM      4  N   UNL     1       5.763   4.208  15.531  0.00  0.00    +0.000 NA
ATOM      5  C   UNL     1       5.500   4.139  16.851  0.00  0.00    +0.000 A 
ATOM      6  C   UNL     1       6.139   4.937  17.798  0.00  0.00    +0.000 A 
ATOM      7  C   UNL     1       5.753   4.814  19.244  0.00  0.00    +0.000 C 
ATOM      8  C   UNL     1       4.316   5.290  19.515  0.00  0.00    +0.000 C 
ATOM      9  N   UNL     1       3.252   4.299  19.230  0.00  0.00    +0.000 NA
ATOM     10  C   UNL     1       3.182   3.932  17.796  0.00  0.00    +0.000 C 
ATOM     11  C   UNL     1       4.409   3.184  17.259  0.00  0.00    +0.000 C 
ENDROOT
BRANCH   1  13
ATOM     12  C   UNL     1       7.775   8.229  17.585  0.00  0.00    +0.000 C 
ATOM     13  C   UNL     1       7.840   6.819  18.154  0.00  0.00    +0.000 C 
ENDBRANCH   1  13
BRANCH   9  14
ATOM     14  C   UNL     1       1.921   4.842  19.631  0.00  0.00    +0.000 C 
BRANCH  14  15
ATOM     15  C   UNL     1       1.859   6.349  19.714  0.00  0.00    +0.000 A 
ATOM     16  N   UNL     1       1.577   7.020  20.816  0.00  0.00    +0.000 NA
ATOM     17  C   UNL     1       1.553   8.372  20.548  0.00  0.00    +0.000 A 
ATOM     18  C   UNL     1       1.856   8.727  19.252  0.00  0.00    +0.000 A 
ATOM     19  S   UNL     1       2.166   7.319  18.322  0.00  0.00    +0.000 S 
ENDBRANCH  14  15
ENDBRANCH   9  14
TORSDOF 3
ENDMDL
MODEL 3
REMARK VINA RESULT:      -6.2      2.827      6.179
REMARK  Name = 
REMARK  4 active torsions:
REMARK  status: ('A' for Active; 'I' for Inactive)
REMARK    1  A    between atoms: C_1  and  C_2
REMARK    2  A    between atoms: C_2  and  C_3
REMARK    3  A    between atoms: N_11  and  C_12
REMARK    4  A    between atoms: C_12  and  C_13
REMARK                            x       y       z     vdW  Elec       q    Type
REMARK                         _______ _______ _______ _____ _____    ______ ____
ROOT
ATOM      1  C   UNL     1       7.175   5.881  17.287  0.00  0.00    +0.000 A 
ATOM      2  N   UNL     1       7.465   5.913  15.966  0.00  0.00    +0.000 NA
ATOM      3  C   UNL     1       6.765   5.095  15.170  0.00  0.00    +0.000 A 
ATOM      4  N   UNL     1       5.800   4.258  15.561  0.00  0.00    +0.000 NA
ATOM      5  C   UNL     1       5.523   4.243  16.880  0.00  0.00    +0.000 A 
ATOM      6  C   UNL     1       6.188   5.044  17.807  0.00  0.00    +0.000 A 
ATOM      7  C   UNL     1       5.785   4.984  19.253  0.00  0.00    +0.000 C 
ATOM      8  C   UNL     1       4.368   5.531  19.494  0.00  0.00    +0.000 C 
ATOM      9  N   UNL     1       3.264   4.578  19.230  0.00  0.00    +0.000 NA
ATOM     10  C   UNL     1       3.190   4.168  17.809  0.00  0.00    +0.000 C 
ATOM     11  C   UNL     1       4.388   3.351  17.308  0.00  0.00    +0.000 C 
ENDROOT
BRANCH   1  13
ATOM     12  C   UNL     1       7.820   8.286  17.605  0.00  0.00    +0.000 C 
ATOM     13  C   UNL     1       7.966   6.860  18.118  0.00  0.00    +0.000 C 
ENDBRANCH   1  13
BRANCH   9  14
ATOM     14  C   UNL     1       1.954   5.191  19.601  0.00  0.00    +0.000 C 
BRANCH  14  15
ATOM     15  C   UNL     1       1.866   6.678  19.348  0.00  0.00    +0.000 A 
ATOM     16  N   UNL     1       2.073   7.244  18.173  0.00  0.00    +0.000 NA
ATOM     17  C   UNL     1       1.966   8.613  18.286  0.00  0.00    +0.000 A 
ATOM     18  C   UNL     1       1.639   9.082  19.540  0.00  0.00    +0.000 A 
ATOM     19  S   UNL     1       1.476   7.766  20.627  0.00  0.00    +0.000 S 
ENDBRANCH  14  15
ENDBRANCH   9  14
TORSDOF 3
ENDMDL
MODEL 4
REMARK VINA RESULT:      -6.2      2.126      2.674
REMARK  Name = 
REMARK  4 active torsions:
REMARK  status: ('A' for Active; 'I' for Inactive)
REMARK    1  A    between atoms: C_1  and  C_2
REMARK    2  A    between atoms: C_2  and  C_3
REMARK    3  A    between atoms: N_11  and  C_12
REMARK    4  A    between atoms: C_12  and  C_13
REMARK                            x       y       z     vdW  Elec       q    Type
REMARK                         _______ _______ _______ _____ _____    ______ ____
ROOT
ATOM      1  C   UNL     1       1.931   4.744  20.415  0.00  0.00    +0.000 A 
ATOM      2  N   UNL     1       2.065   4.056  21.572  0.00  0.00    +0.000 NA
ATOM      3  C   UNL     1       2.556   2.814  21.488  0.00  0.00    +0.000 A 
ATOM      4  N   UNL     1       2.935   2.195  20.366  0.00  0.00    +0.000 NA
ATOM      5  C   UNL     1       2.797   2.898  19.223  0.00  0.00    +0.000 A 
ATOM      6  C   UNL     1       2.291   4.196  19.185  0.00  0.00    +0.000 A 
ATOM      7  C   UNL     1       2.208   4.914  17.867  0.00  0.00    +0.000 C 
ATOM      8  C   UNL     1       3.593   5.218  17.272  0.00  0.00    +0.000 C 
ATOM      9  N   UNL     1       4.228   4.102  16.532  0.00  0.00    +0.000 NA
ATOM     10  C   UNL     1       4.523   2.937  17.399  0.00  0.00    +0.000 C 
ATOM     11  C   UNL     1       3.289   2.226  17.969  0.00  0.00    +0.000 C 
ENDROOT
BRANCH   1  13
ATOM     12  C   UNL     1       2.402   7.184  20.057  0.00  0.00    +0.000 C 
ATOM     13  C   UNL     1       1.417   6.152  20.588  0.00  0.00    +0.000 C 
ENDBRANCH   1  13
BRANCH   9  14
ATOM     14  C   UNL     1       5.511   4.554  15.918  0.00  0.00    +0.000 C 
BRANCH  14  15
ATOM     15  C   UNL     1       6.292   5.539  16.756  0.00  0.00    +0.000 A 
ATOM     16  N   UNL     1       6.274   6.847  16.572  0.00  0.00    +0.000 NA
ATOM     17  C   UNL     1       7.127   7.458  17.465  0.00  0.00    +0.000 A 
ATOM     18  C   UNL     1       7.763   6.616  18.351  0.00  0.00    +0.000 A 
ATOM     19  S   UNL     1       7.293   4.994  18.049  0.00  0.00    +0.000 S 
ENDBRANCH  14  15
ENDBRANCH   9  14
TORSDOF 3
ENDMDL
MODEL 5
REMARK VINA RESULT:      -6.2      2.001      2.630
REMARK  Name = 
REMARK  4 active torsions:
REMARK  status: ('A' for Active; 'I' for Inactive)
REMARK    1  A    between atoms: C_1  and  C_2
REMARK    2  A    between atoms: C_2  and  C_3
REMARK    3  A    between atoms: N_11  and  C_12
REMARK    4  A    between atoms: C_12  and  C_13
REMARK                            x       y       z     vdW  Elec       q    Type
REMARK                         _______ _______ _______ _____ _____    ______ ____
ROOT
ATOM      1  C   UNL     1       1.973   6.031  20.194  0.00  0.00    +0.000 A 
ATOM      2  N   UNL     1       1.644   5.139  21.156  0.00  0.00    +0.000 NA
ATOM      3  C   UNL     1       1.680   3.844  20.824  0.00  0.00    +0.000 A 
ATOM      4  N   UNL     1       2.021   3.350  19.629  0.00  0.00    +0.000 NA
ATOM      5  C   UNL     1       2.348   4.254  18.684  0.00  0.00    +0.000 A 
ATOM      6  C   UNL     1       2.341   5.629  18.910  0.00  0.00    +0.000 A 
ATOM      7  C   UNL     1       2.757   6.558  17.805  0.00  0.00    +0.000 C 
ATOM      8  C   UNL     1       4.246   6.420  17.446  0.00  0.00    +0.000 C 
ATOM      9  N   UNL     1       4.578   5.307  16.526  0.00  0.00    +0.000 NA
ATOM     10  C   UNL     1       4.285   3.977  17.109  0.00  0.00    +0.000 C 
ATOM     11  C   UNL     1       2.799   3.694  17.360  0.00  0.00    +0.000 C 
ENDROOT
BRANCH   1  13
ATOM     12  C   UNL     1       0.574   7.899  21.118  0.00  0.00    +0.000 C 
ATOM     13  C   UNL     1       1.957   7.469  20.650  0.00  0.00    +0.000 C 
ENDBRANCH   1  13
BRANCH   9  14
ATOM     14  C   UNL     1       6.029   5.345  16.174  0.00  0.00    +0.000 C 
BRANCH  14  15
ATOM     15  C   UNL     1       6.865   6.234  17.064  0.00  0.00    +0.000 A 
ATOM     16  N   UNL     1       7.132   7.501  16.806  0.00  0.00    +0.000 NA
ATOM     17  C   UNL     1       7.957   8.014  17.784  0.00  0.00    +0.000 A 
ATOM     18  C   UNL     1       8.283   7.147  18.803  0.00  0.00    +0.000 A 
ATOM     19  S   UNL     1       7.547   5.623  18.525  0.00  0.00    +0.000 S 
ENDBRANCH  14  15
ENDBRANCH   9  14
TORSDOF 3
ENDMDL
MODEL 6
REMARK VINA RESULT:      -6.1      2.178      2.793
REMARK  Name = 
REMARK  4 active torsions:
REMARK  status: ('A' for Active; 'I' for Inactive)
REMARK    1  A    between atoms: C_1  and  C_2
REMARK    2  A    between atoms: C_2  and  C_3
REMARK    3  A    between atoms: N_11  and  C_12
REMARK    4  A    between atoms: C_12  and  C_13
REMARK                            x       y       z     vdW  Elec       q    Type
REMARK                         _______ _______ _______ _____ _____    ______ ____
ROOT
ATOM      1  C   UNL     1       1.847   5.210  20.328  0.00  0.00    +0.000 A 
ATOM      2  N   UNL     1       1.458   4.273  21.221  0.00  0.00    +0.000 NA
ATOM      3  C   UNL     1       1.440   3.002  20.801  0.00  0.00    +0.000 A 
ATOM      4  N   UNL     1       1.781   2.575  19.582  0.00  0.00    +0.000 NA
ATOM      5  C   UNL     1       2.169   3.523  18.706  0.00  0.00    +0.000 A 
ATOM      6  C   UNL     1       2.222   4.879  19.026  0.00  0.00    +0.000 A 
ATOM      7  C   UNL     1       2.703   5.859  17.994  0.00  0.00    +0.000 C 
ATOM      8  C   UNL     1       4.191   5.674  17.652  0.00  0.00    +0.000 C 
ATOM      9  N   UNL     1       4.490   4.611  16.664  0.00  0.00    +0.000 NA
ATOM     10  C   UNL     1       4.123   3.260  17.149  0.00  0.00    +0.000 C 
ATOM     11  C   UNL     1       2.620   3.033  17.355  0.00  0.00    +0.000 C 
ENDROOT
BRANCH   1  13
ATOM     12  C   UNL     1       0.505   7.244  20.932  0.00  0.00    +0.000 C 
ATOM     13  C   UNL     1       1.890   6.613  20.881  0.00  0.00    +0.000 C 
ENDBRANCH   1  13
BRANCH   9  14
ATOM     14  C   UNL     1       5.947   4.603  16.340  0.00  0.00    +0.000 C 
BRANCH  14  15
ATOM     15  C   UNL     1       6.820   5.278  17.371  0.00  0.00    +0.000 A 
ATOM     16  N   UNL     1       7.289   4.681  18.451  0.00  0.00    +0.000 NA
ATOM     17  C   UNL     1       8.008   5.580  19.209  0.00  0.00    +0.000 A 
ATOM     18  C   UNL     1       8.116   6.849  18.683  0.00  0.00    +0.000 A 
ATOM     19  S   UNL     1       7.273   6.932  17.192  0.00  0.00    +0.000 S 
ENDBRANCH  14  15
ENDBRANCH   9  14
TORSDOF 3
ENDMDL
MODEL 7
REMARK VINA RESULT:      -5.9      1.452      2.558
REMARK  Name = 
REMARK  4 active torsions:
REMARK  status: ('A' for Active; 'I' for Inactive)
REMARK    1  A    between atoms: C_1  and  C_2
REMARK    2  A    between atoms: C_2  and  C_3
REMARK    3  A    between atoms: N_11  and  C_12
REMARK    4  A    between atoms: C_12  and  C_13
REMARK                            x       y       z     vdW  Elec       q    Type
REMARK                         _______ _______ _______ _____ _____    ______ ____
ROOT
ATOM      1  C   UNL     1       2.769   5.724  19.875  0.00  0.00    +0.000 A 
ATOM      2  N   UNL     1       1.841   6.707  19.843  0.00  0.00    +0.000 NA
ATOM      3  C   UNL     1       2.046   7.709  18.980  0.00  0.00    +0.000 A 
ATOM      4  N   UNL     1       3.080   7.821  18.140  0.00  0.00    +0.000 NA
ATOM      5  C   UNL     1       3.993   6.830  18.185  0.00  0.00    +0.000 A 
ATOM      6  C   UNL     1       3.890   5.739  19.046  0.00  0.00    +0.000 A 
ATOM      7  C   UNL     1       4.939   4.664  18.999  0.00  0.00    +0.000 C 
ATOM      8  C   UNL     1       4.921   3.880  17.676  0.00  0.00    +0.000 C 
ATOM      9  N   UNL     1       5.639   4.518  16.547  0.00  0.00    +0.000 NA
ATOM     10  C   UNL     1       5.033   5.808  16.141  0.00  0.00    +0.000 C 
ATOM     11  C   UNL     1       5.120   6.923  17.190  0.00  0.00    +0.000 C 
ENDROOT
BRANCH   1  13
ATOM     12  C   UNL     1       1.354   3.695  20.301  0.00  0.00    +0.000 C 
ATOM     13  C   UNL     1       2.451   4.604  20.835  0.00  0.00    +0.000 C 
ENDBRANCH   1  13
BRANCH   9  14
ATOM     14  C   UNL     1       5.639   3.614  15.359  0.00  0.00    +0.000 C 
BRANCH  14  15
ATOM     15  C   UNL     1       6.449   4.120  14.188  0.00  0.00    +0.000 A 
ATOM     16  N   UNL     1       7.374   5.058  14.277  0.00  0.00    +0.000 NA
ATOM     17  C   UNL     1       7.891   5.325  13.028  0.00  0.00    +0.000 A 
ATOM     18  C   UNL     1       7.385   4.562  11.999  0.00  0.00    +0.000 A 
ATOM     19  S   UNL     1       6.204   3.478  12.607  0.00  0.00    +0.000 S 
ENDBRANCH  14  15
ENDBRANCH   9  14
TORSDOF 3
ENDMDL
MODEL 8
REMARK VINA RESULT:      -5.8      0.874      1.057
REMARK  Name = 
REMARK  4 active torsions:
REMARK  status: ('A' for Active; 'I' for Inactive)
REMARK    1  A    between atoms: C_1  and  C_2
REMARK    2  A    between atoms: C_2  and  C_3
REMARK    3  A    between atoms: N_11  and  C_12
REMARK    4  A    between atoms: C_12  and  C_13
REMARK                            x       y       z     vdW  Elec       q    Type
REMARK                         _______ _______ _______ _____ _____    ______ ____
ROOT
ATOM      1  C   UNL     1       1.915   4.896  20.279  0.00  0.00    +0.000 A 
ATOM      2  N   UNL     1       1.910   4.094  21.369  0.00  0.00    +0.000 NA
ATOM      3  C   UNL     1       2.466   2.884  21.236  0.00  0.00    +0.000 A 
ATOM      4  N   UNL     1       3.035   2.400  20.127  0.00  0.00    +0.000 NA
ATOM      5  C   UNL     1       3.033   3.215  19.053  0.00  0.00    +0.000 A 
ATOM      6  C   UNL     1       2.478   4.493  19.069  0.00  0.00    +0.000 A 
ATOM      7  C   UNL     1       2.556   5.343  17.832  0.00  0.00    +0.000 C 
ATOM      8  C   UNL     1       3.998   5.752  17.487  0.00  0.00    +0.000 C 
ATOM      9  N   UNL     1       4.786   4.741  16.744  0.00  0.00    +0.000 NA
ATOM     10  C   UNL     1       5.005   3.501  17.524  0.00  0.00    +0.000 C 
ATOM     11  C   UNL     1       3.735   2.695  17.827  0.00  0.00    +0.000 C 
ENDROOT
BRANCH   1  13
ATOM     12  C   UNL     1       2.307   7.374  20.205  0.00  0.00    +0.000 C 
ATOM     13  C   UNL     1       1.316   6.260  20.513  0.00  0.00    +0.000 C 
ENDBRANCH   1  13
BRANCH   9  14
ATOM     14  C   UNL     1       6.123   5.296  16.379  0.00  0.00    +0.000 C 
BRANCH  14  15
ATOM     15  C   UNL     1       6.566   4.985  14.968  0.00  0.00    +0.000 A 
ATOM     16  N   UNL     1       7.655   5.478  14.407  0.00  0.00    +0.000 NA
ATOM     17  C   UNL     1       7.749   5.041  13.104  0.00  0.00    +0.000 A 
ATOM     18  C   UNL     1       6.752   4.185  12.690  0.00  0.00    +0.000 A 
ATOM     19  S   UNL     1       5.640   3.928  13.970  0.00  0.00    +0.000 S 
ENDBRANCH  14  15
ENDBRANCH   9  14
TORSDOF 3
ENDMDL
MODEL 9
REMARK VINA RESULT:      -5.8      1.849      2.592
REMARK  Name = 
REMARK  4 active torsions:
REMARK  status: ('A' for Active; 'I' for Inactive)
REMARK    1  A    between atoms: C_1  and  C_2
REMARK    2  A    between atoms: C_2  and  C_3
REMARK    3  A    between atoms: N_11  and  C_12
REMARK    4  A    between atoms: C_12  and  C_13
REMARK                            x       y       z     vdW  Elec       q    Type
REMARK                         _______ _______ _______ _____ _____    ______ ____
ROOT
ATOM      1  C   UNL     1       2.473   3.547  19.775  0.00  0.00    +0.000 A 
ATOM      2  N   UNL     1       1.346   3.101  19.176  0.00  0.00    +0.000 NA
ATOM      3  C   UNL     1       0.965   3.724  18.054  0.00  0.00    +0.000 A 
ATOM      4  N   UNL     1       1.604   4.741  17.468  0.00  0.00    +0.000 NA
ATOM      5  C   UNL     1       2.727   5.169  18.078  0.00  0.00    +0.000 A 
ATOM      6  C   UNL     1       3.218   4.604  19.253  0.00  0.00    +0.000 A 
ATOM      7  C   UNL     1       4.498   5.126  19.841  0.00  0.00    +0.000 C 
ATOM      8  C   UNL     1       5.719   4.834  18.952  0.00  0.00    +0.000 C 
ATOM      9  N   UNL     1       5.937   5.786  17.837  0.00  0.00    +0.000 NA
ATOM     10  C   UNL     1       4.833   5.771  16.848  0.00  0.00    +0.000 C 
ATOM     11  C   UNL     1       3.483   6.268  17.378  0.00  0.00    +0.000 C 
ENDROOT
BRANCH   1  13
ATOM     12  C   UNL     1       1.675   2.497  21.911  0.00  0.00    +0.000 C 
ATOM     13  C   UNL     1       2.868   2.770  21.006  0.00  0.00    +0.000 C 
ENDBRANCH   1  13
BRANCH   9  14
ATOM     14  C   UNL     1       7.203   5.457  17.118  0.00  0.00    +0.000 C 
BRANCH  14  15
ATOM     15  C   UNL     1       7.010   4.982  15.697  0.00  0.00    +0.000 A 
ATOM     16  N   UNL     1       7.598   5.527  14.647  0.00  0.00    +0.000 NA
ATOM     17  C   UNL     1       7.177   4.898  13.496  0.00  0.00    +0.000 A 
ATOM     18  C   UNL     1       6.300   3.851  13.676  0.00  0.00    +0.000 A 
ATOM     19  S   UNL     1       5.971   3.652  15.347  0.00  0.00    +0.000 S 
ENDBRANCH  14  15
ENDBRANCH   9  14
TORSDOF 3
ENDMDL
