MODEL 1
REMARK VINA RESULT:      -8.5      0.000      0.000
REMARK  Name = 
REMARK  4 active torsions:
REMARK  status: ('A' for Active; 'I' for Inactive)
REMARK    1  A    between atoms: O_1  and  C_2
REMARK    2  A    between atoms: C_10  and  N_11
REMARK    3  A    between atoms: N_11  and  C_12
REMARK    4  A    between atoms: C_20  and  C_21
REMARK                            x       y       z     vdW  Elec       q    Type
REMARK                         _______ _______ _______ _____ _____    ______ ____
ROOT
ATOM      1  C   UNL     1       2.270   8.906  18.254  0.00  0.00    +0.000 A 
ATOM      2  N   UNL     1       1.350   9.757  18.712  0.00  0.00    +0.000 NA
ATOM      3  C   UNL     1       0.810   9.473  19.899  0.00  0.00    +0.000 A 
ATOM      4  C   UNL     1      -0.146  10.362  20.367  0.00  0.00    +0.000 A 
ATOM      5  C   UNL     1      -0.748  10.198  21.609  0.00  0.00    +0.000 A 
ATOM      6  C   UNL     1      -0.362   9.144  22.421  0.00  0.00    +0.000 A 
ATOM      7  C   UNL     1       0.594   8.236  21.962  0.00  0.00    +0.000 A 
ATOM      8  C   UNL     1       1.162   8.334  20.667  0.00  0.00    +0.000 A 
ATOM      9  C   UNL     1       2.077   7.389  20.095  0.00  0.00    +0.000 A 
ATOM     10  C   UNL     1       2.684   7.724  18.856  0.00  0.00    +0.000 A 
ENDROOT
BRANCH  10  11
ATOM     11  C   UNL     1       3.690   6.877  18.183  0.00  0.00    +0.000 A 
ATOM     12  N   UNL     1       4.533   6.012  18.729  0.00  0.00    +0.000 NA
ATOM     13  C   UNL     1       5.331   5.564  17.694  0.00  0.00    +0.000 A 
ATOM     14  C   UNL     1       6.492   4.777  17.708  0.00  0.00    +0.000 A 
ATOM     15  C   UNL     1       7.110   4.467  16.485  0.00  0.00    +0.000 A 
ATOM     16  C   UNL     1       6.542   4.864  15.272  0.00  0.00    +0.000 A 
ATOM     17  C   UNL     1       5.393   5.659  15.238  0.00  0.00    +0.000 A 
ATOM     18  C   UNL     1       4.866   6.034  16.474  0.00  0.00    +0.000 A 
ATOM     19  N   UNL     1       3.909   6.942  16.823  0.00  0.00    +0.000 N 
ATOM     20  H   UNL     1       3.514   7.650  16.221  0.00  0.00    +0.000 HD
ENDBRANCH  10  11
BRANCH   1  21
ATOM     21  O   UNL     1       2.774   9.331  17.059  0.00  0.00    +0.000 OA
ATOM     22  H   UNL     1       3.670   9.586  17.351  0.00  0.00    +0.000 HD
ENDBRANCH   1  21
BRANCH   9  23
ATOM     23  N   UNL     1       2.335   6.131  20.649  0.00  0.00    +0.000 N 
ATOM     24  H   UNL     1       3.317   6.015  20.926  0.00  0.00    +0.000 HD
BRANCH  23  25
ATOM     25  C   UNL     1       1.567   4.879  20.536  0.00  0.00    +0.000 C 
ATOM     26  C   UNL     1       1.334   4.310  19.101  0.00  0.00    +0.000 C 
ATOM     27  N   UNL     1       1.760   2.893  18.946  0.00  0.00    +0.000 NA
ATOM     28  C   UNL     1       3.214   2.841  19.194  0.00  0.00    +0.000 C 
ATOM     29  C   UNL     1       3.563   3.328  20.609  0.00  0.00    +0.000 C 
ATOM     30  C   UNL     1       2.280   3.762  21.347  0.00  0.00    +0.000 C 
ATOM     31  C   UNL     1       1.341   2.542  21.383  0.00  0.00    +0.000 C 
ATOM     32  C   UNL     1       1.071   2.057  19.951  0.00  0.00    +0.000 C 
ENDBRANCH  23  25
ENDBRANCH   9  23
TORSDOF 4
ENDMDL
MODEL 2
REMARK VINA RESULT:      -8.1      0.949      1.357
REMARK  Name = 
REMARK  4 active torsions:
REMARK  status: ('A' for Active; 'I' for Inactive)
REMARK    1  A    between atoms: O_1  and  C_2
REMARK    2  A    between atoms: C_10  and  N_11
REMARK    3  A    between atoms: N_11  and  C_12
REMARK    4  A    between atoms: C_20  and  C_21
REMARK                            x       y       z     vdW  Elec       q    Type
REMARK                         _______ _______ _______ _____ _____    ______ ____
ROOT
ATOM      1  C   UNL     1       2.164   8.994  18.210  0.00  0.00    +0.000 A 
ATOM      2  N   UNL     1       1.299   9.829  18.789  0.00  0.00    +0.000 NA
ATOM      3  C   UNL     1       0.840   9.477  19.991  0.00  0.00    +0.000 A 
ATOM      4  C   UNL     1      -0.059  10.351  20.585  0.00  0.00    +0.000 A 
ATOM      5  C   UNL     1      -0.574  10.116  21.855  0.00  0.00    +0.000 A 
ATOM      6  C   UNL     1      -0.155   9.003  22.566  0.00  0.00    +0.000 A 
ATOM      7  C   UNL     1       0.744   8.110  21.980  0.00  0.00    +0.000 A 
ATOM      8  C   UNL     1       1.219   8.284  20.656  0.00  0.00    +0.000 A 
ATOM      9  C   UNL     1       2.068   7.361  19.958  0.00  0.00    +0.000 A 
ATOM     10  C   UNL     1       2.593   7.766  18.703  0.00  0.00    +0.000 A 
ENDROOT
BRANCH  10  11
ATOM     11  C   UNL     1       3.526   6.947  17.904  0.00  0.00    +0.000 A 
ATOM     12  N   UNL     1       3.266   5.854  17.202  0.00  0.00    +0.000 NA
ATOM     13  C   UNL     1       4.487   5.408  16.735  0.00  0.00    +0.000 A 
ATOM     14  C   UNL     1       4.841   4.215  16.088  0.00  0.00    +0.000 A 
ATOM     15  C   UNL     1       6.181   4.022  15.718  0.00  0.00    +0.000 A 
ATOM     16  C   UNL     1       7.134   5.026  15.915  0.00  0.00    +0.000 A 
ATOM     17  C   UNL     1       6.804   6.215  16.569  0.00  0.00    +0.000 A 
ATOM     18  C   UNL     1       5.487   6.329  17.015  0.00  0.00    +0.000 A 
ATOM     19  N   UNL     1       4.876   7.224  17.844  0.00  0.00    +0.000 N 
ATOM     20  H   UNL     1       5.340   7.900  18.435  0.00  0.00    +0.000 HD
ENDBRANCH  10  11
BRANCH   1  21
ATOM     21  O   UNL     1       2.590   9.487  17.012  0.00  0.00    +0.000 OA
ATOM     22  H   UNL     1       1.844   9.203  16.452  0.00  0.00    +0.000 HD
ENDBRANCH   1  21
BRANCH   9  23
ATOM     23  N   UNL     1       2.336   6.064  20.409  0.00  0.00    +0.000 N 
ATOM     24  H   UNL     1       2.903   6.053  21.266  0.00  0.00    +0.000 HD
BRANCH  23  25
ATOM     25  C   UNL     1       2.285   4.787  19.679  0.00  0.00    +0.000 C 
ATOM     26  C   UNL     1       3.526   3.846  19.794  0.00  0.00    +0.000 C 
ATOM     27  N   UNL     1       3.186   2.464  20.230  0.00  0.00    +0.000 NA
ATOM     28  C   UNL     1       2.598   2.561  21.580  0.00  0.00    +0.000 C 
ATOM     29  C   UNL     1       1.327   3.424  21.581  0.00  0.00    +0.000 C 
ATOM     30  C   UNL     1       1.058   3.966  20.162  0.00  0.00    +0.000 C 
ATOM     31  C   UNL     1       0.916   2.748  19.230  0.00  0.00    +0.000 C 
ATOM     32  C   UNL     1       2.185   1.888  19.310  0.00  0.00    +0.000 C 
ENDBRANCH  23  25
ENDBRANCH   9  23
TORSDOF 4
ENDMDL
MODEL 3
REMARK VINA RESULT:      -7.6      3.793      9.096
REMARK  Name = 
REMARK  4 active torsions:
REMARK  status: ('A' for Active; 'I' for Inactive)
REMARK    1  A    between atoms: O_1  and  C_2
REMARK    2  A    between atoms: C_10  and  N_11
REMARK    3  A    between atoms: N_11  and  C_12
REMARK    4  A    between atoms: C_20  and  C_21
REMARK                            x       y       z     vdW  Elec       q    Type
REMARK                         _______ _______ _______ _____ _____    ______ ____
ROOT
ATOM      1  C   UNL     1       0.723   9.539  22.186  0.00  0.00    +0.000 A 
ATOM      2  N   UNL     1       1.451   8.512  21.744  0.00  0.00    +0.000 NA
ATOM      3  C   UNL     1       1.570   8.388  20.421  0.00  0.00    +0.000 A 
ATOM      4  C   UNL     1       2.327   7.317  19.971  0.00  0.00    +0.000 A 
ATOM      5  C   UNL     1       2.560   7.107  18.616  0.00  0.00    +0.000 A 
ATOM      6  C   UNL     1       2.059   8.007  17.690  0.00  0.00    +0.000 A 
ATOM      7  C   UNL     1       1.290   9.087  18.126  0.00  0.00    +0.000 A 
ATOM      8  C   UNL     1       0.968   9.276  19.494  0.00  0.00    +0.000 A 
ATOM      9  C   UNL     1       0.109  10.306  20.004  0.00  0.00    +0.000 A 
ATOM     10  C   UNL     1       0.029  10.462  21.412  0.00  0.00    +0.000 A 
ENDROOT
BRANCH  10  11
ATOM     11  C   UNL     1      -0.765  11.516  22.074  0.00  0.00    +0.000 A 
ATOM     12  N   UNL     1      -0.563  12.826  22.062  0.00  0.00    +0.000 NA
ATOM     13  C   UNL     1      -1.509  13.359  22.916  0.00  0.00    +0.000 A 
ATOM     14  C   UNL     1      -1.659  14.660  23.420  0.00  0.00    +0.000 A 
ATOM     15  C   UNL     1      -2.732  14.926  24.286  0.00  0.00    +0.000 A 
ATOM     16  C   UNL     1      -3.679  13.942  24.582  0.00  0.00    +0.000 A 
ATOM     17  C   UNL     1      -3.539  12.638  24.101  0.00  0.00    +0.000 A 
ATOM     18  C   UNL     1      -2.405  12.384  23.328  0.00  0.00    +0.000 A 
ATOM     19  N   UNL     1      -1.848  11.223  22.876  0.00  0.00    +0.000 N 
ATOM     20  H   UNL     1      -2.089  10.290  23.180  0.00  0.00    +0.000 HD
ENDBRANCH  10  11
BRANCH   1  21
ATOM     21  O   UNL     1       0.716   9.580  23.550  0.00  0.00    +0.000 OA
ATOM     22  H   UNL     1       0.423   8.667  23.731  0.00  0.00    +0.000 HD
ENDBRANCH   1  21
BRANCH   9  23
ATOM     23  N   UNL     1      -0.708  11.102  19.193  0.00  0.00    +0.000 N 
ATOM     24  H   UNL     1      -0.297  12.023  19.002  0.00  0.00    +0.000 HD
BRANCH  23  25
ATOM     25  C   UNL     1      -2.151  10.993  18.921  0.00  0.00    +0.000 C 
ATOM     26  C   UNL     1      -2.818  12.156  18.121  0.00  0.00    +0.000 C 
ATOM     27  N   UNL     1      -3.572  11.698  16.922  0.00  0.00    +0.000 NA
ATOM     28  C   UNL     1      -2.604  11.054  16.013  0.00  0.00    +0.000 C 
ATOM     29  C   UNL     1      -1.920   9.850  16.678  0.00  0.00    +0.000 C 
ATOM     30  C   UNL     1      -2.429   9.689  18.124  0.00  0.00    +0.000 C 
ATOM     31  C   UNL     1      -3.956   9.504  18.052  0.00  0.00    +0.000 C 
ATOM     32  C   UNL     1      -4.585  10.703  17.327  0.00  0.00    +0.000 C 
ENDBRANCH  23  25
ENDBRANCH   9  23
TORSDOF 4
ENDMDL
MODEL 4
REMARK VINA RESULT:      -7.4      3.964      9.729
REMARK  Name = 
REMARK  4 active torsions:
REMARK  status: ('A' for Active; 'I' for Inactive)
REMARK    1  A    between atoms: O_1  and  C_2
REMARK    2  A    between atoms: C_10  and  N_11
REMARK    3  A    between atoms: N_11  and  C_12
REMARK    4  A    between atoms: C_20  and  C_21
REMARK                            x       y       z     vdW  Elec       q    Type
REMARK                         _______ _______ _______ _____ _____    ______ ____
ROOT
ATOM      1  C   UNL     1       0.283   9.517  22.235  0.00  0.00    +0.000 A 
ATOM      2  N   UNL     1       0.893   8.452  21.712  0.00  0.00    +0.000 NA
ATOM      3  C   UNL     1       1.298   8.556  20.445  0.00  0.00    +0.000 A 
ATOM      4  C   UNL     1       1.931   7.444  19.910  0.00  0.00    +0.000 A 
ATOM      5  C   UNL     1       2.437   7.445  18.614  0.00  0.00    +0.000 A 
ATOM      6  C   UNL     1       2.345   8.595  17.847  0.00  0.00    +0.000 A 
ATOM      7  C   UNL     1       1.705   9.721  18.369  0.00  0.00    +0.000 A 
ATOM      8  C   UNL     1       1.108   9.717  19.655  0.00  0.00    +0.000 A 
ATOM      9  C   UNL     1       0.357  10.803  20.218  0.00  0.00    +0.000 A 
ATOM     10  C   UNL     1      -0.026  10.704  21.581  0.00  0.00    +0.000 A 
ENDROOT
BRANCH  10  11
ATOM     11  C   UNL     1      -0.747  11.769  22.307  0.00  0.00    +0.000 A 
ATOM     12  N   UNL     1      -0.340  13.002  22.572  0.00  0.00    +0.000 NA
ATOM     13  C   UNL     1      -1.325  13.559  23.364  0.00  0.00    +0.000 A 
ATOM     14  C   UNL     1      -1.353  14.768  24.077  0.00  0.00    +0.000 A 
ATOM     15  C   UNL     1      -2.506  15.088  24.812  0.00  0.00    +0.000 A 
ATOM     16  C   UNL     1      -3.634  14.265  24.776  0.00  0.00    +0.000 A 
ATOM     17  C   UNL     1      -3.620  13.052  24.083  0.00  0.00    +0.000 A 
ATOM     18  C   UNL     1      -2.423  12.716  23.449  0.00  0.00    +0.000 A 
ATOM     19  N   UNL     1      -1.986  11.560  22.873  0.00  0.00    +0.000 N 
ATOM     20  H   UNL     1      -2.423  10.652  22.956  0.00  0.00    +0.000 HD
ENDBRANCH  10  11
BRANCH   1  21
ATOM     21  O   UNL     1      -0.040   9.300  23.543  0.00  0.00    +0.000 OA
ATOM     22  H   UNL     1       0.807   8.928  23.852  0.00  0.00    +0.000 HD
ENDBRANCH   1  21
BRANCH   9  23
ATOM     23  N   UNL     1      -0.083  11.904  19.476  0.00  0.00    +0.000 N 
ATOM     24  H   UNL     1      -1.073  11.833  19.212  0.00  0.00    +0.000 HD
BRANCH  23  25
ATOM     25  C   UNL     1       0.696  12.894  18.712  0.00  0.00    +0.000 C 
ATOM     26  C   UNL     1       0.166  14.363  18.695  0.00  0.00    +0.000 C 
ATOM     27  N   UNL     1       1.182  15.366  19.114  0.00  0.00    +0.000 NA
ATOM     28  C   UNL     1       1.550  15.062  20.511  0.00  0.00    +0.000 C 
ATOM     29  C   UNL     1       2.141  13.651  20.644  0.00  0.00    +0.000 C 
ATOM     30  C   UNL     1       2.144  12.950  19.270  0.00  0.00    +0.000 C 
ATOM     31  C   UNL     1       2.977  13.826  18.314  0.00  0.00    +0.000 C 
ATOM     32  C   UNL     1       2.381  15.241  18.263  0.00  0.00    +0.000 C 
ENDBRANCH  23  25
ENDBRANCH   9  23
TORSDOF 4
ENDMDL
MODEL 5
REMARK VINA RESULT:      -7.3      1.032      5.827
REMARK  Name = 
REMARK  4 active torsions:
REMARK  status: ('A' for Active; 'I' for Inactive)
REMARK    1  A    between atoms: O_1  and  C_2
REMARK    2  A    between atoms: C_10  and  N_11
REMARK    3  A    between atoms: N_11  and  C_12
REMARK    4  A    between atoms: C_20  and  C_21
REMARK                            x       y       z     vdW  Elec       q    Type
REMARK                         _______ _______ _______ _____ _____    ______ ____
ROOT
ATOM      1  C   UNL     1       2.989   8.476  17.641  0.00  0.00    +0.000 A 
ATOM      2  N   UNL     1       3.757   8.024  16.648  0.00  0.00    +0.000 NA
ATOM      3  C   UNL     1       4.197   6.769  16.754  0.00  0.00    +0.000 A 
ATOM      4  C   UNL     1       4.996   6.308  15.718  0.00  0.00    +0.000 A 
ATOM      5  C   UNL     1       5.478   5.005  15.693  0.00  0.00    +0.000 A 
ATOM      6  C   UNL     1       5.125   4.127  16.706  0.00  0.00    +0.000 A 
ATOM      7  C   UNL     1       4.327   4.577  17.759  0.00  0.00    +0.000 A 
ATOM      8  C   UNL     1       3.892   5.923  17.850  0.00  0.00    +0.000 A 
ATOM      9  C   UNL     1       3.150   6.477  18.946  0.00  0.00    +0.000 A 
ATOM     10  C   UNL     1       2.644   7.795  18.802  0.00  0.00    +0.000 A 
ENDROOT
BRANCH  10  11
ATOM     11  C   UNL     1       1.814   8.468  19.822  0.00  0.00    +0.000 A 
ATOM     12  N   UNL     1       1.754   8.225  21.123  0.00  0.00    +0.000 NA
ATOM     13  C   UNL     1       0.753   9.042  21.611  0.00  0.00    +0.000 A 
ATOM     14  C   UNL     1       0.140   9.088  22.872  0.00  0.00    +0.000 A 
ATOM     15  C   UNL     1      -0.869  10.038  23.096  0.00  0.00    +0.000 A 
ATOM     16  C   UNL     1      -1.207  10.973  22.115  0.00  0.00    +0.000 A 
ATOM     17  C   UNL     1      -0.618  10.936  20.849  0.00  0.00    +0.000 A 
ATOM     18  C   UNL     1       0.306   9.914  20.628  0.00  0.00    +0.000 A 
ATOM     19  N   UNL     1       0.907   9.454  19.493  0.00  0.00    +0.000 N 
ATOM     20  H   UNL     1       0.646   9.687  18.545  0.00  0.00    +0.000 HD
ENDBRANCH  10  11
BRANCH   1  21
ATOM     21  O   UNL     1       2.570   9.750  17.391  0.00  0.00    +0.000 OA
ATOM     22  H   UNL     1       2.136   9.940  18.244  0.00  0.00    +0.000 HD
ENDBRANCH   1  21
BRANCH   9  23
ATOM     23  N   UNL     1       2.973   5.820  20.169  0.00  0.00    +0.000 N 
ATOM     24  H   UNL     1       3.814   5.848  20.758  0.00  0.00    +0.000 HD
BRANCH  23  25
ATOM     25  C   UNL     1       1.974   4.811  20.557  0.00  0.00    +0.000 C 
ATOM     26  C   UNL     1       1.167   4.124  19.409  0.00  0.00    +0.000 C 
ATOM     27  N   UNL     1       1.220   2.638  19.451  0.00  0.00    +0.000 NA
ATOM     28  C   UNL     1       2.632   2.243  19.276  0.00  0.00    +0.000 C 
ATOM     29  C   UNL     1       3.521   2.818  20.389  0.00  0.00    +0.000 C 
ATOM     30  C   UNL     1       2.671   3.673  21.351  0.00  0.00    +0.000 C 
ATOM     31  C   UNL     1       1.570   2.759  21.921  0.00  0.00    +0.000 C 
ATOM     32  C   UNL     1       0.749   2.164  20.768  0.00  0.00    +0.000 C 
ENDBRANCH  23  25
ENDBRANCH   9  23
TORSDOF 4
ENDMDL
MODEL 6
REMARK VINA RESULT:      -7.3      1.004      5.918
REMARK  Name = 
REMARK  4 active torsions:
REMARK  status: ('A' for Active; 'I' for Inactive)
REMARK    1  A    between atoms: O_1  and  C_2
REMARK    2  A    between atoms: C_10  and  N_11
REMARK    3  A    between atoms: N_11  and  C_12
REMARK    4  A    between atoms: C_20  and  C_21
REMARK                            x       y       z     vdW  Elec       q    Type
REMARK                         _______ _______ _______ _____ _____    ______ ____
ROOT
ATOM      1  C   UNL     1       2.870   8.503  17.583  0.00  0.00    +0.000 A 
ATOM      2  N   UNL     1       3.714   8.066  16.647  0.00  0.00    +0.000 NA
ATOM      3  C   UNL     1       4.214   6.841  16.816  0.00  0.00    +0.000 A 
ATOM      4  C   UNL     1       5.091   6.395  15.838  0.00  0.00    +0.000 A 
ATOM      5  C   UNL     1       5.643   5.120  15.881  0.00  0.00    +0.000 A 
ATOM      6  C   UNL     1       5.284   4.254  16.900  0.00  0.00    +0.000 A 
ATOM      7  C   UNL     1       4.407   4.689  17.896  0.00  0.00    +0.000 A 
ATOM      8  C   UNL     1       3.896   6.011  17.921  0.00  0.00    +0.000 A 
ATOM      9  C   UNL     1       3.067   6.554  18.959  0.00  0.00    +0.000 A 
ATOM     10  C   UNL     1       2.500   7.838  18.746  0.00  0.00    +0.000 A 
ENDROOT
BRANCH  10  11
ATOM     11  C   UNL     1       1.581   8.493  19.699  0.00  0.00    +0.000 A 
ATOM     12  N   UNL     1       0.605   9.352  19.440  0.00  0.00    +0.000 NA
ATOM     13  C   UNL     1       0.121   9.751  20.671  0.00  0.00    +0.000 A 
ATOM     14  C   UNL     1      -0.787  10.764  21.014  0.00  0.00    +0.000 A 
ATOM     15  C   UNL     1      -1.105  10.952  22.368  0.00  0.00    +0.000 A 
ATOM     16  C   UNL     1      -0.594  10.102  23.352  0.00  0.00    +0.000 A 
ATOM     17  C   UNL     1       0.321   9.096  23.032  0.00  0.00    +0.000 A 
ATOM     18  C   UNL     1       0.694   9.005  21.690  0.00  0.00    +0.000 A 
ATOM     19  N   UNL     1       1.684   8.307  21.061  0.00  0.00    +0.000 N 
ATOM     20  H   UNL     1       2.458   7.837  21.510  0.00  0.00    +0.000 HD
ENDBRANCH  10  11
BRANCH   1  21
ATOM     21  O   UNL     1       2.398   9.745  17.272  0.00  0.00    +0.000 OA
ATOM     22  H   UNL     1       2.551   9.732  16.309  0.00  0.00    +0.000 HD
ENDBRANCH   1  21
BRANCH   9  23
ATOM     23  N   UNL     1       2.860   5.925  20.191  0.00  0.00    +0.000 N 
ATOM     24  H   UNL     1       3.662   6.022  20.824  0.00  0.00    +0.000 HD
BRANCH  23  25
ATOM     25  C   UNL     1       1.902   4.867  20.555  0.00  0.00    +0.000 C 
ATOM     26  C   UNL     1       1.159   4.141  19.389  0.00  0.00    +0.000 C 
ATOM     27  N   UNL     1       1.285   2.659  19.435  0.00  0.00    +0.000 NA
ATOM     28  C   UNL     1       2.718   2.334  19.296  0.00  0.00    +0.000 C 
ATOM     29  C   UNL     1       3.549   2.953  20.430  0.00  0.00    +0.000 C 
ATOM     30  C   UNL     1       2.635   3.766  21.369  0.00  0.00    +0.000 C 
ATOM     31  C   UNL     1       1.566   2.799  21.912  0.00  0.00    +0.000 C 
ATOM     32  C   UNL     1       0.805   2.163  20.740  0.00  0.00    +0.000 C 
ENDBRANCH  23  25
ENDBRANCH   9  23
TORSDOF 4
ENDMDL
MODEL 7
REMARK VINA RESULT:      -7.3      3.605      6.935
REMARK  Name = 
REMARK  4 active torsions:
REMARK  status: ('A' for Active; 'I' for Inactive)
REMARK    1  A    between atoms: O_1  and  C_2
REMARK    2  A    between atoms: C_10  and  N_11
REMARK    3  A    between atoms: N_11  and  C_12
REMARK    4  A    between atoms: C_20  and  C_21
REMARK                            x       y       z     vdW  Elec       q    Type
REMARK                         _______ _______ _______ _____ _____    ______ ____
ROOT
ATOM      1  C   UNL     1      -0.451  10.650  22.624  0.00  0.00    +0.000 A 
ATOM      2  N   UNL     1      -1.198  11.425  23.413  0.00  0.00    +0.000 NA
ATOM      3  C   UNL     1      -2.085  12.216  22.809  0.00  0.00    +0.000 A 
ATOM      4  C   UNL     1      -2.856  13.019  23.637  0.00  0.00    +0.000 A 
ATOM      5  C   UNL     1      -3.845  13.854  23.129  0.00  0.00    +0.000 A 
ATOM      6  C   UNL     1      -4.099  13.862  21.766  0.00  0.00    +0.000 A 
ATOM      7  C   UNL     1      -3.327  13.064  20.919  0.00  0.00    +0.000 A 
ATOM      8  C   UNL     1      -2.259  12.268  21.403  0.00  0.00    +0.000 A 
ATOM      9  C   UNL     1      -1.368  11.499  20.582  0.00  0.00    +0.000 A 
ATOM     10  C   UNL     1      -0.462  10.622  21.234  0.00  0.00    +0.000 A 
ENDROOT
BRANCH  10  11
ATOM     11  C   UNL     1       0.468   9.727  20.517  0.00  0.00    +0.000 A 
ATOM     12  N   UNL     1       1.104   9.947  19.375  0.00  0.00    +0.000 NA
ATOM     13  C   UNL     1       1.758   8.767  19.077  0.00  0.00    +0.000 A 
ATOM     14  C   UNL     1       2.439   8.364  17.918  0.00  0.00    +0.000 A 
ATOM     15  C   UNL     1       3.021   7.087  17.889  0.00  0.00    +0.000 A 
ATOM     16  C   UNL     1       2.995   6.259  19.015  0.00  0.00    +0.000 A 
ATOM     17  C   UNL     1       2.312   6.637  20.173  0.00  0.00    +0.000 A 
ATOM     18  C   UNL     1       1.657   7.869  20.129  0.00  0.00    +0.000 A 
ATOM     19  N   UNL     1       0.751   8.454  20.965  0.00  0.00    +0.000 N 
ATOM     20  H   UNL     1       0.254   7.996  21.717  0.00  0.00    +0.000 HD
ENDBRANCH  10  11
BRANCH   1  21
ATOM     21  O   UNL     1       0.381   9.860  23.363  0.00  0.00    +0.000 OA
ATOM     22  H   UNL     1       1.138  10.469  23.446  0.00  0.00    +0.000 HD
ENDBRANCH   1  21
BRANCH   9  23
ATOM     23  N   UNL     1      -1.292  11.629  19.191  0.00  0.00    +0.000 N 
ATOM     24  H   UNL     1      -0.345  11.857  18.867  0.00  0.00    +0.000 HD
BRANCH  23  25
ATOM     25  C   UNL     1      -2.363  11.876  18.212  0.00  0.00    +0.000 C 
ATOM     26  C   UNL     1      -1.962  11.900  16.703  0.00  0.00    +0.000 C 
ATOM     27  N   UNL     1      -2.769  10.979  15.858  0.00  0.00    +0.000 NA
ATOM     28  C   UNL     1      -2.521   9.606  16.343  0.00  0.00    +0.000 C 
ATOM     29  C   UNL     1      -2.935   9.446  17.814  0.00  0.00    +0.000 C 
ATOM     30  C   UNL     1      -3.461  10.787  18.362  0.00  0.00    +0.000 C 
ATOM     31  C   UNL     1      -4.653  11.203  17.481  0.00  0.00    +0.000 C 
ATOM     32  C   UNL     1      -4.203  11.292  16.015  0.00  0.00    +0.000 C 
ENDBRANCH  23  25
ENDBRANCH   9  23
TORSDOF 4
ENDMDL
MODEL 8
REMARK VINA RESULT:      -7.2      3.856      9.117
REMARK  Name = 
REMARK  4 active torsions:
REMARK  status: ('A' for Active; 'I' for Inactive)
REMARK    1  A    between atoms: O_1  and  C_2
REMARK    2  A    between atoms: C_10  and  N_11
REMARK    3  A    between atoms: N_11  and  C_12
REMARK    4  A    between atoms: C_20  and  C_21
REMARK                            x       y       z     vdW  Elec       q    Type
REMARK                         _______ _______ _______ _____ _____    ______ ____
ROOT
ATOM      1  C   UNL     1       0.696   9.522  22.296  0.00  0.00    +0.000 A 
ATOM      2  N   UNL     1       1.431   8.521  21.808  0.00  0.00    +0.000 NA
ATOM      3  C   UNL     1       1.534   8.447  20.480  0.00  0.00    +0.000 A 
ATOM      4  C   UNL     1       2.298   7.403  19.981  0.00  0.00    +0.000 A 
ATOM      5  C   UNL     1       2.517   7.246  18.616  0.00  0.00    +0.000 A 
ATOM      6  C   UNL     1       1.992   8.173  17.730  0.00  0.00    +0.000 A 
ATOM      7  C   UNL     1       1.215   9.227  18.216  0.00  0.00    +0.000 A 
ATOM      8  C   UNL     1       0.909   9.361  19.593  0.00  0.00    +0.000 A 
ATOM      9  C   UNL     1       0.044  10.360  20.151  0.00  0.00    +0.000 A 
ATOM     10  C   UNL     1      -0.020  10.463  21.566  0.00  0.00    +0.000 A 
ENDROOT
BRANCH  10  11
ATOM     11  C   UNL     1      -0.818  11.483  22.276  0.00  0.00    +0.000 A 
ATOM     12  N   UNL     1      -1.935  11.315  22.970  0.00  0.00    +0.000 NA
ATOM     13  C   UNL     1      -2.342  12.583  23.336  0.00  0.00    +0.000 A 
ATOM     14  C   UNL     1      -3.534  13.027  23.929  0.00  0.00    +0.000 A 
ATOM     15  C   UNL     1      -3.682  14.397  24.197  0.00  0.00    +0.000 A 
ATOM     16  C   UNL     1      -2.639  15.295  23.954  0.00  0.00    +0.000 A 
ATOM     17  C   UNL     1      -1.451  14.874  23.352  0.00  0.00    +0.000 A 
ATOM     18  C   UNL     1      -1.379  13.524  23.005  0.00  0.00    +0.000 A 
ATOM     19  N   UNL     1      -0.491  12.822  22.243  0.00  0.00    +0.000 N 
ATOM     20  H   UNL     1       0.214  13.217  21.636  0.00  0.00    +0.000 HD
ENDBRANCH  10  11
BRANCH   1  21
ATOM     21  O   UNL     1       0.706   9.513  23.661  0.00  0.00    +0.000 OA
ATOM     22  H   UNL     1       1.656   9.681  23.810  0.00  0.00    +0.000 HD
ENDBRANCH   1  21
BRANCH   9  23
ATOM     23  N   UNL     1      -0.793  11.175  19.381  0.00  0.00    +0.000 N 
ATOM     24  H   UNL     1      -0.424  12.126  19.269  0.00  0.00    +0.000 HD
BRANCH  23  25
ATOM     25  C   UNL     1      -2.223  11.019  19.066  0.00  0.00    +0.000 C 
ATOM     26  C   UNL     1      -2.915  12.182  18.287  0.00  0.00    +0.000 C 
ATOM     27  N   UNL     1      -3.619  11.736  17.053  0.00  0.00    +0.000 NA
ATOM     28  C   UNL     1      -2.601  11.163  16.149  0.00  0.00    +0.000 C 
ATOM     29  C   UNL     1      -1.887   9.965  16.792  0.00  0.00    +0.000 C 
ATOM     30  C   UNL     1      -2.427   9.733  18.218  0.00  0.00    +0.000 C 
ATOM     31  C   UNL     1      -3.943   9.490  18.096  0.00  0.00    +0.000 C 
ATOM     32  C   UNL     1      -4.601  10.688  17.396  0.00  0.00    +0.000 C 
ENDBRANCH  23  25
ENDBRANCH   9  23
TORSDOF 4
ENDMDL
MODEL 9
REMARK VINA RESULT:      -7.1      3.496      6.796
REMARK  Name = 
REMARK  4 active torsions:
REMARK  status: ('A' for Active; 'I' for Inactive)
REMARK    1  A    between atoms: O_1  and  C_2
REMARK    2  A    between atoms: C_10  and  N_11
REMARK    3  A    between atoms: N_11  and  C_12
REMARK    4  A    between atoms: C_20  and  C_21
REMARK                            x       y       z     vdW  Elec       q    Type
REMARK                         _______ _______ _______ _____ _____    ______ ____
ROOT
ATOM      1  C   UNL     1      -0.429  10.544  22.527  0.00  0.00    +0.000 A 
ATOM      2  N   UNL     1      -1.200  11.302  23.309  0.00  0.00    +0.000 NA
ATOM      3  C   UNL     1      -2.033  12.144  22.695  0.00  0.00    +0.000 A 
ATOM      4  C   UNL     1      -2.829  12.928  23.515  0.00  0.00    +0.000 A 
ATOM      5  C   UNL     1      -3.768  13.812  22.993  0.00  0.00    +0.000 A 
ATOM      6  C   UNL     1      -3.944  13.887  21.621  0.00  0.00    +0.000 A 
ATOM      7  C   UNL     1      -3.146  13.108  20.781  0.00  0.00    +0.000 A 
ATOM      8  C   UNL     1      -2.126  12.263  21.285  0.00  0.00    +0.000 A 
ATOM      9  C   UNL     1      -1.210  11.508  20.480  0.00  0.00    +0.000 A 
ATOM     10  C   UNL     1      -0.362  10.579  21.139  0.00  0.00    +0.000 A 
ENDROOT
BRANCH  10  11
ATOM     11  C   UNL     1       0.584   9.692  20.433  0.00  0.00    +0.000 A 
ATOM     12  N   UNL     1       1.282   9.943  19.335  0.00  0.00    +0.000 NA
ATOM     13  C   UNL     1       1.926   8.762  19.021  0.00  0.00    +0.000 A 
ATOM     14  C   UNL     1       2.657   8.391  17.883  0.00  0.00    +0.000 A 
ATOM     15  C   UNL     1       3.213   7.103  17.830  0.00  0.00    +0.000 A 
ATOM     16  C   UNL     1       3.112   6.231  18.918  0.00  0.00    +0.000 A 
ATOM     17  C   UNL     1       2.378   6.577  20.054  0.00  0.00    +0.000 A 
ATOM     18  C   UNL     1       1.752   7.825  20.029  0.00  0.00    +0.000 A 
ATOM     19  N   UNL     1       0.817   8.396  20.842  0.00  0.00    +0.000 N 
ATOM     20  H   UNL     1       0.272   7.920  21.547  0.00  0.00    +0.000 HD
ENDBRANCH  10  11
BRANCH   1  21
ATOM     21  O   UNL     1       0.341   9.700  23.273  0.00  0.00    +0.000 OA
ATOM     22  H   UNL     1      -0.301   8.976  23.400  0.00  0.00    +0.000 HD
ENDBRANCH   1  21
BRANCH   9  23
ATOM     23  N   UNL     1      -1.053  11.698  19.103  0.00  0.00    +0.000 N 
ATOM     24  H   UNL     1      -0.861  12.676  18.858  0.00  0.00    +0.000 HD
BRANCH  23  25
ATOM     25  C   UNL     1      -1.492  10.850  17.982  0.00  0.00    +0.000 C 
ATOM     26  C   UNL     1      -2.289   9.554  18.335  0.00  0.00    +0.000 C 
ATOM     27  N   UNL     1      -3.591   9.443  17.622  0.00  0.00    +0.000 NA
ATOM     28  C   UNL     1      -4.424  10.585  18.048  0.00  0.00    +0.000 C 
ATOM     29  C   UNL     1      -3.762  11.927  17.699  0.00  0.00    +0.000 C 
ATOM     30  C   UNL     1      -2.395  11.681  17.030  0.00  0.00    +0.000 C 
ATOM     31  C   UNL     1      -2.651  10.831  15.771  0.00  0.00    +0.000 C 
ATOM     32  C   UNL     1      -3.366   9.530  16.165  0.00  0.00    +0.000 C 
ENDBRANCH  23  25
ENDBRANCH   9  23
TORSDOF 4
ENDMDL
