MODEL 1
REMARK VINA RESULT:      -7.7      0.000      0.000
REMARK  Name = 
REMARK  9 active torsions:
REMARK  status: ('A' for Active; 'I' for Inactive)
REMARK    1  A    between atoms: C_1  and  O_2
REMARK    2  A    between atoms: O_2  and  C_3
REMARK    3  A    between atoms: C_6  and  C_7
REMARK    4  A    between atoms: C_7  and  O_9
REMARK    5  A    between atoms: O_9  and  C_10
REMARK    6  A    between atoms: C_13  and  C_14
REMARK    7  A    between atoms: C_14  and  N_16
REMARK    8  A    between atoms: C_24  and  O_25
REMARK    9  A    between atoms: O_25  and  C_26
REMARK                            x       y       z     vdW  Elec       q    Type
REMARK                         _______ _______ _______ _____ _____    ______ ____
ROOT
ATOM      1  O   UNL     1       3.099   5.963  20.110  0.00  0.00    +0.000 OA
ENDROOT
BRANCH   1   2
ATOM      2  C   UNL     1       2.347   7.073  19.694  0.00  0.00    +0.000 A 
ATOM      3  C   UNL     1       1.582   7.731  20.645  0.00  0.00    +0.000 A 
ATOM      4  C   UNL     1       0.945   8.932  20.310  0.00  0.00    +0.000 A 
ATOM      5  C   UNL     1       1.044   9.459  19.012  0.00  0.00    +0.000 A 
ATOM      6  C   UNL     1       1.815   8.783  18.060  0.00  0.00    +0.000 A 
ATOM      7  C   UNL     1       2.484   7.600  18.406  0.00  0.00    +0.000 A 
BRANCH   5   8
ATOM      8  C   UNL     1       0.456  10.821  18.727  0.00  0.00    +0.000 C 
ATOM      9  S   UNL     1       1.414  12.213  18.825  0.00  0.00    +0.000 S 
BRANCH   8  10
ATOM     10  N   UNL     1      -0.909  10.879  18.450  0.00  0.00    +0.000 N 
ATOM     11  C   UNL     1      -1.602  10.075  17.449  0.00  0.00    +0.000 C 
ATOM     12  C   UNL     1      -2.726  10.986  16.981  0.00  0.00    +0.000 C 
ATOM     13  C   UNL     1      -3.125  11.727  18.250  0.00  0.00    +0.000 C 
ATOM     14  C   UNL     1      -1.825  11.855  19.036  0.00  0.00    +0.000 C 
ENDBRANCH   8  10
ENDBRANCH   5   8
ENDBRANCH   1   2
BRANCH   1  15
ATOM     15  C   UNL     1       2.922   4.780  19.416  0.00  0.00    +0.000 C 
ATOM     16  O   UNL     1       1.958   4.031  19.478  0.00  0.00    +0.000 OA
BRANCH  15  20
ATOM     17  C   UNL     1       6.100   4.391  16.550  0.00  0.00    +0.000 A 
ATOM     18  C   UNL     1       4.758   4.194  16.191  0.00  0.00    +0.000 A 
ATOM     19  C   UNL     1       3.739   4.306  17.138  0.00  0.00    +0.000 A 
ATOM     20  C   UNL     1       4.049   4.565  18.473  0.00  0.00    +0.000 A 
ATOM     21  C   UNL     1       5.393   4.666  18.854  0.00  0.00    +0.000 A 
ATOM     22  C   UNL     1       6.425   4.577  17.904  0.00  0.00    +0.000 A 
BRANCH  17  24
ATOM     23  C   UNL     1       6.648   4.290  14.244  0.00  0.00    +0.000 C 
ATOM     24  O   UNL     1       7.086   4.372  15.602  0.00  0.00    +0.000 OA
ENDBRANCH  17  24
BRANCH  22  25
ATOM     25  O   UNL     1       7.659   4.729  18.481  0.00  0.00    +0.000 OA
ATOM     26  C   UNL     1       7.965   5.937  19.158  0.00  0.00    +0.000 C 
ENDBRANCH  22  25
ENDBRANCH  15  20
ENDBRANCH   1  15
TORSDOF 7
ENDMDL
MODEL 2
REMARK VINA RESULT:      -7.4      1.611      2.406
REMARK  Name = 
REMARK  9 active torsions:
REMARK  status: ('A' for Active; 'I' for Inactive)
REMARK    1  A    between atoms: C_1  and  O_2
REMARK    2  A    between atoms: O_2  and  C_3
REMARK    3  A    between atoms: C_6  and  C_7
REMARK    4  A    between atoms: C_7  and  O_9
REMARK    5  A    between atoms: O_9  and  C_10
REMARK    6  A    between atoms: C_13  and  C_14
REMARK    7  A    between atoms: C_14  and  N_16
REMARK    8  A    between atoms: C_24  and  O_25
REMARK    9  A    between atoms: O_25  and  C_26
REMARK                            x       y       z     vdW  Elec       q    Type
REMARK                         _______ _______ _______ _____ _____    ______ ____
ROOT
ATOM      1  O   UNL     1       3.058   5.914  19.710  0.00  0.00    +0.000 OA
ENDROOT
BRANCH   1   2
ATOM      2  C   UNL     1       2.338   7.092  19.452  0.00  0.00    +0.000 A 
ATOM      3  C   UNL     1       1.715   7.718  20.521  0.00  0.00    +0.000 A 
ATOM      4  C   UNL     1       1.124   8.974  20.338  0.00  0.00    +0.000 A 
ATOM      5  C   UNL     1       1.124   9.591  19.076  0.00  0.00    +0.000 A 
ATOM      6  C   UNL     1       1.753   8.946  18.004  0.00  0.00    +0.000 A 
ATOM      7  C   UNL     1       2.377   7.705  18.197  0.00  0.00    +0.000 A 
BRANCH   5   8
ATOM      8  C   UNL     1       0.597  11.000  18.948  0.00  0.00    +0.000 C 
ATOM      9  S   UNL     1      -1.007  11.283  18.486  0.00  0.00    +0.000 S 
BRANCH   8  10
ATOM     10  N   UNL     1       1.500  12.039  19.163  0.00  0.00    +0.000 N 
ATOM     11  C   UNL     1       1.598  12.835  20.381  0.00  0.00    +0.000 C 
ATOM     12  C   UNL     1       2.051  14.196  19.877  0.00  0.00    +0.000 C 
ATOM     13  C   UNL     1       2.984  13.849  18.726  0.00  0.00    +0.000 C 
ATOM     14  C   UNL     1       2.400  12.569  18.140  0.00  0.00    +0.000 C 
ENDBRANCH   8  10
ENDBRANCH   5   8
ENDBRANCH   1   2
BRANCH   1  15
ATOM     15  C   UNL     1       2.941   4.885  18.794  0.00  0.00    +0.000 C 
ATOM     16  O   UNL     1       1.955   4.195  18.587  0.00  0.00    +0.000 OA
BRANCH  15  20
ATOM     17  C   UNL     1       6.412   4.734  16.263  0.00  0.00    +0.000 A 
ATOM     18  C   UNL     1       5.212   4.103  15.903  0.00  0.00    +0.000 A 
ATOM     19  C   UNL     1       4.099   4.146  16.745  0.00  0.00    +0.000 A 
ATOM     20  C   UNL     1       4.184   4.777  17.986  0.00  0.00    +0.000 A 
ATOM     21  C   UNL     1       5.408   5.323  18.391  0.00  0.00    +0.000 A 
ATOM     22  C   UNL     1       6.528   5.304  17.542  0.00  0.00    +0.000 A 
BRANCH  17  24
ATOM     23  C   UNL     1       7.139   4.813  14.006  0.00  0.00    +0.000 C 
ATOM     24  O   UNL     1       7.470   4.768  15.396  0.00  0.00    +0.000 OA
ENDBRANCH  17  24
BRANCH  22  25
ATOM     25  O   UNL     1       7.611   5.914  18.119  0.00  0.00    +0.000 OA
ATOM     26  C   UNL     1       7.851   5.737  19.506  0.00  0.00    +0.000 C 
ENDBRANCH  22  25
ENDBRANCH  15  20
ENDBRANCH   1  15
TORSDOF 7
ENDMDL
MODEL 3
REMARK VINA RESULT:      -7.4      4.049      8.955
REMARK  Name = 
REMARK  9 active torsions:
REMARK  status: ('A' for Active; 'I' for Inactive)
REMARK    1  A    between atoms: C_1  and  O_2
REMARK    2  A    between atoms: O_2  and  C_3
REMARK    3  A    between atoms: C_6  and  C_7
REMARK    4  A    between atoms: C_7  and  O_9
REMARK    5  A    between atoms: O_9  and  C_10
REMARK    6  A    between atoms: C_13  and  C_14
REMARK    7  A    between atoms: C_14  and  N_16
REMARK    8  A    between atoms: C_24  and  O_25
REMARK    9  A    between atoms: O_25  and  C_26
REMARK                            x       y       z     vdW  Elec       q    Type
REMARK                         _______ _______ _______ _____ _____    ______ ____
ROOT
ATOM      1  O   UNL     1       0.505   9.873  19.953  0.00  0.00    +0.000 OA
ENDROOT
BRANCH   1   2
ATOM      2  C   UNL     1       1.414   8.950  19.414  0.00  0.00    +0.000 A 
ATOM      3  C   UNL     1       1.769   7.859  20.194  0.00  0.00    +0.000 A 
ATOM      4  C   UNL     1       2.546   6.835  19.638  0.00  0.00    +0.000 A 
ATOM      5  C   UNL     1       2.999   6.917  18.310  0.00  0.00    +0.000 A 
ATOM      6  C   UNL     1       2.637   8.025  17.536  0.00  0.00    +0.000 A 
ATOM      7  C   UNL     1       1.828   9.033  18.081  0.00  0.00    +0.000 A 
BRANCH   5   8
ATOM      8  C   UNL     1       3.719   5.735  17.707  0.00  0.00    +0.000 C 
ATOM      9  S   UNL     1       4.967   5.963  16.587  0.00  0.00    +0.000 S 
BRANCH   8  10
ATOM     10  N   UNL     1       3.266   4.466  18.063  0.00  0.00    +0.000 N 
ATOM     11  C   UNL     1       4.043   3.463  18.784  0.00  0.00    +0.000 C 
ATOM     12  C   UNL     1       3.514   2.147  18.238  0.00  0.00    +0.000 C 
ATOM     13  C   UNL     1       2.033   2.429  18.022  0.00  0.00    +0.000 C 
ATOM     14  C   UNL     1       1.982   3.905  17.647  0.00  0.00    +0.000 C 
ENDBRANCH   8  10
ENDBRANCH   5   8
ENDBRANCH   1   2
BRANCH   1  15
ATOM     15  C   UNL     1       0.263  11.024  19.226  0.00  0.00    +0.000 C 
ATOM     16  O   UNL     1       1.079  11.876  18.907  0.00  0.00    +0.000 OA
BRANCH  15  20
ATOM     17  C   UNL     1      -3.794  11.390  17.853  0.00  0.00    +0.000 A 
ATOM     18  C   UNL     1      -3.344  12.055  19.004  0.00  0.00    +0.000 A 
ATOM     19  C   UNL     1      -2.029  11.910  19.447  0.00  0.00    +0.000 A 
ATOM     20  C   UNL     1      -1.153  11.057  18.776  0.00  0.00    +0.000 A 
ATOM     21  C   UNL     1      -1.624  10.318  17.684  0.00  0.00    +0.000 A 
ATOM     22  C   UNL     1      -2.942  10.472  17.217  0.00  0.00    +0.000 A 
BRANCH  17  24
ATOM     23  C   UNL     1      -6.120  10.999  18.106  0.00  0.00    +0.000 C 
ATOM     24  O   UNL     1      -5.056  11.606  17.371  0.00  0.00    +0.000 OA
ENDBRANCH  17  24
BRANCH  22  25
ATOM     25  O   UNL     1      -3.188   9.679  16.127  0.00  0.00    +0.000 OA
ATOM     26  C   UNL     1      -2.979  10.202  14.826  0.00  0.00    +0.000 C 
ENDBRANCH  22  25
ENDBRANCH  15  20
ENDBRANCH   1  15
TORSDOF 7
ENDMDL
MODEL 4
REMARK VINA RESULT:      -7.3      1.859      2.544
REMARK  Name = 
REMARK  9 active torsions:
REMARK  status: ('A' for Active; 'I' for Inactive)
REMARK    1  A    between atoms: C_1  and  O_2
REMARK    2  A    between atoms: O_2  and  C_3
REMARK    3  A    between atoms: C_6  and  C_7
REMARK    4  A    between atoms: C_7  and  O_9
REMARK    5  A    between atoms: O_9  and  C_10
REMARK    6  A    between atoms: C_13  and  C_14
REMARK    7  A    between atoms: C_14  and  N_16
REMARK    8  A    between atoms: C_24  and  O_25
REMARK    9  A    between atoms: O_25  and  C_26
REMARK                            x       y       z     vdW  Elec       q    Type
REMARK                         _______ _______ _______ _____ _____    ______ ____
ROOT
ATOM      1  O   UNL     1       3.000   6.259  19.306  0.00  0.00    +0.000 OA
ENDROOT
BRANCH   1   2
ATOM      2  C   UNL     1       2.316   7.484  19.332  0.00  0.00    +0.000 A 
ATOM      3  C   UNL     1       2.207   8.190  18.143  0.00  0.00    +0.000 A 
ATOM      4  C   UNL     1       1.399   9.333  18.089  0.00  0.00    +0.000 A 
ATOM      5  C   UNL     1       0.728   9.793  19.235  0.00  0.00    +0.000 A 
ATOM      6  C   UNL     1       0.850   9.073  20.429  0.00  0.00    +0.000 A 
ATOM      7  C   UNL     1       1.629   7.908  20.473  0.00  0.00    +0.000 A 
BRANCH   5   8
ATOM      8  C   UNL     1      -0.237  10.948  19.105  0.00  0.00    +0.000 C 
ATOM      9  S   UNL     1      -1.634  10.804  18.161  0.00  0.00    +0.000 S 
BRANCH   8  10
ATOM     10  N   UNL     1       0.110  12.140  19.738  0.00  0.00    +0.000 N 
ATOM     11  C   UNL     1       1.325  12.907  19.486  0.00  0.00    +0.000 C 
ATOM     12  C   UNL     1       1.626  13.544  20.834  0.00  0.00    +0.000 C 
ATOM     13  C   UNL     1       0.242  13.848  21.392  0.00  0.00    +0.000 C 
ATOM     14  C   UNL     1      -0.638  12.729  20.846  0.00  0.00    +0.000 C 
ENDBRANCH   8  10
ENDBRANCH   5   8
ENDBRANCH   1   2
BRANCH   1  15
ATOM     15  C   UNL     1       2.834   5.462  18.189  0.00  0.00    +0.000 C 
ATOM     16  O   UNL     1       1.784   5.004  17.764  0.00  0.00    +0.000 OA
BRANCH  15  20
ATOM     17  C   UNL     1       6.435   4.982  15.891  0.00  0.00    +0.000 A 
ATOM     18  C   UNL     1       5.506   3.940  16.029  0.00  0.00    +0.000 A 
ATOM     19  C   UNL     1       4.351   4.106  16.794  0.00  0.00    +0.000 A 
ATOM     20  C   UNL     1       4.129   5.301  17.478  0.00  0.00    +0.000 A 
ATOM     21  C   UNL     1       5.099   6.309  17.422  0.00  0.00    +0.000 A 
ATOM     22  C   UNL     1       6.256   6.159  16.636  0.00  0.00    +0.000 A 
BRANCH  17  24
ATOM     23  C   UNL     1       7.238   4.797  13.667  0.00  0.00    +0.000 C 
ATOM     24  O   UNL     1       7.518   4.847  15.067  0.00  0.00    +0.000 OA
ENDBRANCH  17  24
BRANCH  22  25
ATOM     25  O   UNL     1       7.058   7.269  16.700  0.00  0.00    +0.000 OA
ATOM     26  C   UNL     1       7.787   7.533  17.888  0.00  0.00    +0.000 C 
ENDBRANCH  22  25
ENDBRANCH  15  20
ENDBRANCH   1  15
TORSDOF 7
ENDMDL
MODEL 5
REMARK VINA RESULT:      -7.3      4.139      8.881
REMARK  Name = 
REMARK  9 active torsions:
REMARK  status: ('A' for Active; 'I' for Inactive)
REMARK    1  A    between atoms: C_1  and  O_2
REMARK    2  A    between atoms: O_2  and  C_3
REMARK    3  A    between atoms: C_6  and  C_7
REMARK    4  A    between atoms: C_7  and  O_9
REMARK    5  A    between atoms: O_9  and  C_10
REMARK    6  A    between atoms: C_13  and  C_14
REMARK    7  A    between atoms: C_14  and  N_16
REMARK    8  A    between atoms: C_24  and  O_25
REMARK    9  A    between atoms: O_25  and  C_26
REMARK                            x       y       z     vdW  Elec       q    Type
REMARK                         _______ _______ _______ _____ _____    ______ ____
ROOT
ATOM      1  O   UNL     1       0.729  10.289  20.045  0.00  0.00    +0.000 OA
ENDROOT
BRANCH   1   2
ATOM      2  C   UNL     1       1.290   9.081  19.601  0.00  0.00    +0.000 A 
ATOM      3  C   UNL     1       1.772   9.030  18.301  0.00  0.00    +0.000 A 
ATOM      4  C   UNL     1       2.481   7.901  17.871  0.00  0.00    +0.000 A 
ATOM      5  C   UNL     1       2.677   6.806  18.729  0.00  0.00    +0.000 A 
ATOM      6  C   UNL     1       2.181   6.869  20.036  0.00  0.00    +0.000 A 
ATOM      7  C   UNL     1       1.505   8.015  20.479  0.00  0.00    +0.000 A 
BRANCH   5   8
ATOM      8  C   UNL     1       3.559   5.667  18.274  0.00  0.00    +0.000 C 
ATOM      9  S   UNL     1       5.146   5.955  17.762  0.00  0.00    +0.000 S 
BRANCH   8  10
ATOM     10  N   UNL     1       2.987   4.397  18.233  0.00  0.00    +0.000 N 
ATOM     11  C   UNL     1       1.665   4.083  17.702  0.00  0.00    +0.000 C 
ATOM     12  C   UNL     1       1.212   2.909  18.555  0.00  0.00    +0.000 C 
ATOM     13  C   UNL     1       2.501   2.135  18.796  0.00  0.00    +0.000 C 
ATOM     14  C   UNL     1       3.582   3.209  18.841  0.00  0.00    +0.000 C 
ENDBRANCH   8  10
ENDBRANCH   5   8
ENDBRANCH   1   2
BRANCH   1  15
ATOM     15  C   UNL     1       0.427  11.239  19.086  0.00  0.00    +0.000 C 
ATOM     16  O   UNL     1       1.206  12.007  18.544  0.00  0.00    +0.000 OA
BRANCH  15  20
ATOM     17  C   UNL     1      -3.711  11.239  17.924  0.00  0.00    +0.000 A 
ATOM     18  C   UNL     1      -3.268  11.922  19.067  0.00  0.00    +0.000 A 
ATOM     19  C   UNL     1      -1.924  11.896  19.441  0.00  0.00    +0.000 A 
ATOM     20  C   UNL     1      -1.007  11.144  18.707  0.00  0.00    +0.000 A 
ATOM     21  C   UNL     1      -1.461  10.383  17.623  0.00  0.00    +0.000 A 
ATOM     22  C   UNL     1      -2.809  10.420  17.225  0.00  0.00    +0.000 A 
BRANCH  17  24
ATOM     23  C   UNL     1      -6.001  10.884  18.432  0.00  0.00    +0.000 C 
ATOM     24  O   UNL     1      -5.011  11.342  17.509  0.00  0.00    +0.000 OA
ENDBRANCH  17  24
BRANCH  22  25
ATOM     25  O   UNL     1      -3.035   9.627  16.130  0.00  0.00    +0.000 OA
ATOM     26  C   UNL     1      -3.004  10.206  14.835  0.00  0.00    +0.000 C 
ENDBRANCH  22  25
ENDBRANCH  15  20
ENDBRANCH   1  15
TORSDOF 7
ENDMDL
MODEL 6
REMARK VINA RESULT:      -7.3      4.166      8.816
REMARK  Name = 
REMARK  9 active torsions:
REMARK  status: ('A' for Active; 'I' for Inactive)
REMARK    1  A    between atoms: C_1  and  O_2
REMARK    2  A    between atoms: O_2  and  C_3
REMARK    3  A    between atoms: C_6  and  C_7
REMARK    4  A    between atoms: C_7  and  O_9
REMARK    5  A    between atoms: O_9  and  C_10
REMARK    6  A    between atoms: C_13  and  C_14
REMARK    7  A    between atoms: C_14  and  N_16
REMARK    8  A    between atoms: C_24  and  O_25
REMARK    9  A    between atoms: O_25  and  C_26
REMARK                            x       y       z     vdW  Elec       q    Type
REMARK                         _______ _______ _______ _____ _____    ______ ____
ROOT
ATOM      1  O   UNL     1       1.056  10.074  18.393  0.00  0.00    +0.000 OA
ENDROOT
BRANCH   1   2
ATOM      2  C   UNL     1       1.814   8.926  18.669  0.00  0.00    +0.000 A 
ATOM      3  C   UNL     1       1.557   8.250  19.852  0.00  0.00    +0.000 A 
ATOM      4  C   UNL     1       2.174   7.015  20.092  0.00  0.00    +0.000 A 
ATOM      5  C   UNL     1       3.078   6.472  19.163  0.00  0.00    +0.000 A 
ATOM      6  C   UNL     1       3.331   7.167  17.975  0.00  0.00    +0.000 A 
ATOM      7  C   UNL     1       2.684   8.385  17.718  0.00  0.00    +0.000 A 
BRANCH   5   8
ATOM      8  C   UNL     1       3.619   5.081  19.394  0.00  0.00    +0.000 C 
ATOM      9  S   UNL     1       5.244   4.724  19.085  0.00  0.00    +0.000 S 
BRANCH   8  10
ATOM     10  N   UNL     1       2.712   4.107  19.805  0.00  0.00    +0.000 N 
ATOM     11  C   UNL     1       1.776   3.403  18.935  0.00  0.00    +0.000 C 
ATOM     12  C   UNL     1       0.586   3.132  19.841  0.00  0.00    +0.000 C 
ATOM     13  C   UNL     1       1.232   2.859  21.192  0.00  0.00    +0.000 C 
ATOM     14  C   UNL     1       2.476   3.740  21.200  0.00  0.00    +0.000 C 
ENDBRANCH   8  10
ENDBRANCH   5   8
ENDBRANCH   1   2
BRANCH   1  15
ATOM     15  C   UNL     1       0.249  10.561  19.404  0.00  0.00    +0.000 C 
ATOM     16  O   UNL     1       0.597  10.883  20.530  0.00  0.00    +0.000 OA
BRANCH  15  20
ATOM     17  C   UNL     1      -3.701  11.364  17.913  0.00  0.00    +0.000 A 
ATOM     18  C   UNL     1      -3.243  11.920  19.117  0.00  0.00    +0.000 A 
ATOM     19  C   UNL     1      -1.964  11.633  19.597  0.00  0.00    +0.000 A 
ATOM     20  C   UNL     1      -1.139  10.746  18.907  0.00  0.00    +0.000 A 
ATOM     21  C   UNL     1      -1.628  10.114  17.756  0.00  0.00    +0.000 A 
ATOM     22  C   UNL     1      -2.907  10.412  17.253  0.00  0.00    +0.000 A 
BRANCH  17  24
ATOM     23  C   UNL     1      -6.059  11.125  18.024  0.00  0.00    +0.000 C 
ATOM     24  O   UNL     1      -4.919  11.719  17.400  0.00  0.00    +0.000 OA
ENDBRANCH  17  24
BRANCH  22  25
ATOM     25  O   UNL     1      -3.177   9.708  16.109  0.00  0.00    +0.000 OA
ATOM     26  C   UNL     1      -2.956  10.319  14.848  0.00  0.00    +0.000 C 
ENDBRANCH  22  25
ENDBRANCH  15  20
ENDBRANCH   1  15
TORSDOF 7
ENDMDL
MODEL 7
REMARK VINA RESULT:      -7.3      1.772      2.401
REMARK  Name = 
REMARK  9 active torsions:
REMARK  status: ('A' for Active; 'I' for Inactive)
REMARK    1  A    between atoms: C_1  and  O_2
REMARK    2  A    between atoms: O_2  and  C_3
REMARK    3  A    between atoms: C_6  and  C_7
REMARK    4  A    between atoms: C_7  and  O_9
REMARK    5  A    between atoms: O_9  and  C_10
REMARK    6  A    between atoms: C_13  and  C_14
REMARK    7  A    between atoms: C_14  and  N_16
REMARK    8  A    between atoms: C_24  and  O_25
REMARK    9  A    between atoms: O_25  and  C_26
REMARK                            x       y       z     vdW  Elec       q    Type
REMARK                         _______ _______ _______ _____ _____    ______ ____
ROOT
ATOM      1  O   UNL     1       3.101   6.468  19.373  0.00  0.00    +0.000 OA
ENDROOT
BRANCH   1   2
ATOM      2  C   UNL     1       2.347   7.649  19.301  0.00  0.00    +0.000 A 
ATOM      3  C   UNL     1       2.216   8.260  18.063  0.00  0.00    +0.000 A 
ATOM      4  C   UNL     1       1.344   9.347  17.917  0.00  0.00    +0.000 A 
ATOM      5  C   UNL     1       0.629   9.847  19.017  0.00  0.00    +0.000 A 
ATOM      6  C   UNL     1       0.774   9.224  20.262  0.00  0.00    +0.000 A 
ATOM      7  C   UNL     1       1.618   8.112  20.400  0.00  0.00    +0.000 A 
BRANCH   5   8
ATOM      8  C   UNL     1      -0.398  10.930  18.793  0.00  0.00    +0.000 C 
ATOM      9  S   UNL     1      -1.923  10.557  18.161  0.00  0.00    +0.000 S 
BRANCH   8  10
ATOM     10  N   UNL     1      -0.011  12.241  19.065  0.00  0.00    +0.000 N 
ATOM     11  C   UNL     1      -0.819  13.232  19.766  0.00  0.00    +0.000 C 
ATOM     12  C   UNL     1      -0.393  14.547  19.132  0.00  0.00    +0.000 C 
ATOM     13  C   UNL     1       1.093  14.342  18.870  0.00  0.00    +0.000 C 
ATOM     14  C   UNL     1       1.220  12.853  18.568  0.00  0.00    +0.000 C 
ENDBRANCH   8  10
ENDBRANCH   5   8
ENDBRANCH   1   2
BRANCH   1  15
ATOM     15  C   UNL     1       2.918   5.536  18.368  0.00  0.00    +0.000 C 
ATOM     16  O   UNL     1       1.869   5.000  18.047  0.00  0.00    +0.000 OA
BRANCH  15  20
ATOM     17  C   UNL     1       6.443   4.908  15.990  0.00  0.00    +0.000 A 
ATOM     18  C   UNL     1       5.499   3.888  16.189  0.00  0.00    +0.000 A 
ATOM     19  C   UNL     1       4.370   4.103  16.980  0.00  0.00    +0.000 A 
ATOM     20  C   UNL     1       4.189   5.325  17.628  0.00  0.00    +0.000 A 
ATOM     21  C   UNL     1       5.177   6.311  17.510  0.00  0.00    +0.000 A 
ATOM     22  C   UNL     1       6.308   6.113  16.699  0.00  0.00    +0.000 A 
BRANCH  17  24
ATOM     23  C   UNL     1       7.228   4.912  13.751  0.00  0.00    +0.000 C 
ATOM     24  O   UNL     1       7.500   4.723  15.141  0.00  0.00    +0.000 OA
ENDBRANCH  17  24
BRANCH  22  25
ATOM     25  O   UNL     1       7.132   7.208  16.702  0.00  0.00    +0.000 OA
ATOM     26  C   UNL     1       7.857   7.528  17.878  0.00  0.00    +0.000 C 
ENDBRANCH  22  25
ENDBRANCH  15  20
ENDBRANCH   1  15
TORSDOF 7
ENDMDL
MODEL 8
REMARK VINA RESULT:      -7.3      1.692      2.220
REMARK  Name = 
REMARK  9 active torsions:
REMARK  status: ('A' for Active; 'I' for Inactive)
REMARK    1  A    between atoms: C_1  and  O_2
REMARK    2  A    between atoms: O_2  and  C_3
REMARK    3  A    between atoms: C_6  and  C_7
REMARK    4  A    between atoms: C_7  and  O_9
REMARK    5  A    between atoms: O_9  and  C_10
REMARK    6  A    between atoms: C_13  and  C_14
REMARK    7  A    between atoms: C_14  and  N_16
REMARK    8  A    between atoms: C_24  and  O_25
REMARK    9  A    between atoms: O_25  and  C_26
REMARK                            x       y       z     vdW  Elec       q    Type
REMARK                         _______ _______ _______ _____ _____    ______ ____
ROOT
ATOM      1  O   UNL     1       3.822   4.918  18.765  0.00  0.00    +0.000 OA
ENDROOT
BRANCH   1   2
ATOM      2  C   UNL     1       2.973   5.993  19.069  0.00  0.00    +0.000 A 
ATOM      3  C   UNL     1       2.299   5.966  20.280  0.00  0.00    +0.000 A 
ATOM      4  C   UNL     1       1.570   7.088  20.692  0.00  0.00    +0.000 A 
ATOM      5  C   UNL     1       1.483   8.228  19.875  0.00  0.00    +0.000 A 
ATOM      6  C   UNL     1       2.164   8.240  18.652  0.00  0.00    +0.000 A 
ATOM      7  C   UNL     1       2.925   7.131  18.258  0.00  0.00    +0.000 A 
BRANCH   5   8
ATOM      8  C   UNL     1       0.800   9.463  20.411  0.00  0.00    +0.000 C 
ATOM      9  S   UNL     1       0.624   9.699  22.078  0.00  0.00    +0.000 S 
BRANCH   8  10
ATOM     10  N   UNL     1       0.272  10.353  19.478  0.00  0.00    +0.000 N 
ATOM     11  C   UNL     1       0.927  11.568  19.005  0.00  0.00    +0.000 C 
ATOM     12  C   UNL     1      -0.234  12.507  18.718  0.00  0.00    +0.000 C 
ATOM     13  C   UNL     1      -1.313  11.573  18.186  0.00  0.00    +0.000 C 
ATOM     14  C   UNL     1      -1.080  10.264  18.932  0.00  0.00    +0.000 C 
ENDBRANCH   8  10
ENDBRANCH   5   8
ENDBRANCH   1   2
BRANCH   1  15
ATOM     15  C   UNL     1       3.655   4.304  17.538  0.00  0.00    +0.000 C 
ATOM     16  O   UNL     1       2.660   3.717  17.140  0.00  0.00    +0.000 OA
BRANCH  15  20
ATOM     17  C   UNL     1       6.936   5.070  14.869  0.00  0.00    +0.000 A 
ATOM     18  C   UNL     1       5.993   4.064  14.605  0.00  0.00    +0.000 A 
ATOM     19  C   UNL     1       4.945   3.816  15.492  0.00  0.00    +0.000 A 
ATOM     20  C   UNL     1       4.849   4.534  16.684  0.00  0.00    +0.000 A 
ATOM     21  C   UNL     1       5.842   5.471  16.996  0.00  0.00    +0.000 A 
ATOM     22  C   UNL     1       6.891   5.744  16.100  0.00  0.00    +0.000 A 
BRANCH  17  24
ATOM     23  C   UNL     1       7.662   4.941  12.614  0.00  0.00    +0.000 C 
ATOM     24  O   UNL     1       7.908   5.372  13.954  0.00  0.00    +0.000 OA
ENDBRANCH  17  24
BRANCH  22  25
ATOM     25  O   UNL     1       7.734   6.709  16.587  0.00  0.00    +0.000 OA
ATOM     26  C   UNL     1       7.278   7.576  17.612  0.00  0.00    +0.000 C 
ENDBRANCH  22  25
ENDBRANCH  15  20
ENDBRANCH   1  15
TORSDOF 7
ENDMDL
MODEL 9
REMARK VINA RESULT:      -7.3      1.251      1.537
REMARK  Name = 
REMARK  9 active torsions:
REMARK  status: ('A' for Active; 'I' for Inactive)
REMARK    1  A    between atoms: C_1  and  O_2
REMARK    2  A    between atoms: O_2  and  C_3
REMARK    3  A    between atoms: C_6  and  C_7
REMARK    4  A    between atoms: C_7  and  O_9
REMARK    5  A    between atoms: O_9  and  C_10
REMARK    6  A    between atoms: C_13  and  C_14
REMARK    7  A    between atoms: C_14  and  N_16
REMARK    8  A    between atoms: C_24  and  O_25
REMARK    9  A    between atoms: O_25  and  C_26
REMARK                            x       y       z     vdW  Elec       q    Type
REMARK                         _______ _______ _______ _____ _____    ______ ____
ROOT
ATOM      1  O   UNL     1       2.691   6.426  19.460  0.00  0.00    +0.000 OA
ENDROOT
BRANCH   1   2
ATOM      2  C   UNL     1       2.056   7.659  19.249  0.00  0.00    +0.000 A 
ATOM      3  C   UNL     1       1.502   8.300  20.347  0.00  0.00    +0.000 A 
ATOM      4  C   UNL     1       1.002   9.601  20.210  0.00  0.00    +0.000 A 
ATOM      5  C   UNL     1       1.023  10.250  18.965  0.00  0.00    +0.000 A 
ATOM      6  C   UNL     1       1.581   9.591  17.863  0.00  0.00    +0.000 A 
ATOM      7  C   UNL     1       2.116   8.303  18.010  0.00  0.00    +0.000 A 
BRANCH   5   8
ATOM      8  C   UNL     1       0.599  11.698  18.886  0.00  0.00    +0.000 C 
ATOM      9  S   UNL     1       1.750  12.938  18.929  0.00  0.00    +0.000 S 
BRANCH   8  10
ATOM     10  N   UNL     1      -0.769  11.958  18.844  0.00  0.00    +0.000 N 
ATOM     11  C   UNL     1      -1.460  12.975  19.629  0.00  0.00    +0.000 C 
ATOM     12  C   UNL     1      -2.836  12.371  19.858  0.00  0.00    +0.000 C 
ATOM     13  C   UNL     1      -3.110  11.626  18.558  0.00  0.00    +0.000 C 
ATOM     14  C   UNL     1      -1.735  11.155  18.097  0.00  0.00    +0.000 C 
ENDBRANCH   8  10
ENDBRANCH   5   8
ENDBRANCH   1   2
BRANCH   1  15
ATOM     15  C   UNL     1       2.580   5.475  18.462  0.00  0.00    +0.000 C 
ATOM     16  O   UNL     1       1.560   4.911  18.096  0.00  0.00    +0.000 OA
BRANCH  15  20
ATOM     17  C   UNL     1       6.234   4.875  16.281  0.00  0.00    +0.000 A 
ATOM     18  C   UNL     1       5.334   3.824  16.510  0.00  0.00    +0.000 A 
ATOM     19  C   UNL     1       4.161   4.031  17.237  0.00  0.00    +0.000 A 
ATOM     20  C   UNL     1       3.891   5.283  17.791  0.00  0.00    +0.000 A 
ATOM     21  C   UNL     1       4.833   6.309  17.647  0.00  0.00    +0.000 A 
ATOM     22  C   UNL     1       6.008   6.116  16.898  0.00  0.00    +0.000 A 
BRANCH  17  24
ATOM     23  C   UNL     1       7.163   4.966  14.100  0.00  0.00    +0.000 C 
ATOM     24  O   UNL     1       7.336   4.690  15.491  0.00  0.00    +0.000 OA
ENDBRANCH  17  24
BRANCH  22  25
ATOM     25  O   UNL     1       6.776   7.251  16.861  0.00  0.00    +0.000 OA
ATOM     26  C   UNL     1       7.787   7.438  17.837  0.00  0.00    +0.000 C 
ENDBRANCH  22  25
ENDBRANCH  15  20
ENDBRANCH   1  15
TORSDOF 7
ENDMDL
