MODEL 1
REMARK VINA RESULT:      -8.0      0.000      0.000
REMARK  Name = 
REMARK  6 active torsions:
REMARK  status: ('A' for Active; 'I' for Inactive)
REMARK    1  A    between atoms: C_1  and  O_2
REMARK    2  A    between atoms: O_2  and  C_3
REMARK    3  A    between atoms: C_7  and  N_8
REMARK    4  A    between atoms: N_11  and  C_12
REMARK    5  A    between atoms: C_12  and  C_13
REMARK    6  A    between atoms: C_12  and  C_14
REMARK                            x       y       z     vdW  Elec       q    Type
REMARK                         _______ _______ _______ _____ _____    ______ ____
ROOT
ATOM      1  N   UNL     1       6.660   4.052  16.264  0.00  0.00    +0.000 N 
ATOM      2  C   UNL     1       5.564   4.445  17.000  0.00  0.00    +0.000 C 
ATOM      3  O   UNL     1       4.609   5.084  16.565  0.00  0.00    +0.000 OA
ATOM      4  N   UNL     1       5.589   4.009  18.310  0.00  0.00    +0.000 N 
ATOM      5  H   UNL     1       7.501   3.822  16.773  0.00  0.00    +0.000 HD
ATOM      6  H   UNL     1       6.486   3.900  18.757  0.00  0.00    +0.000 HD
ENDROOT
BRANCH   1  11
ATOM      7  C   UNL     1       6.078   3.485  12.639  0.00  0.00    +0.000 A 
ATOM      8  C   UNL     1       6.961   4.407  12.072  0.00  0.00    +0.000 A 
ATOM      9  C   UNL     1       7.719   5.244  12.882  0.00  0.00    +0.000 A 
ATOM     10  C   UNL     1       7.611   5.143  14.267  0.00  0.00    +0.000 A 
ATOM     11  C   UNL     1       6.755   4.205  14.858  0.00  0.00    +0.000 A 
ATOM     12  C   UNL     1       5.960   3.399  14.033  0.00  0.00    +0.000 A 
BRANCH   7  14
ATOM     13  C   UNL     1       4.136   3.200  11.296  0.00  0.00    +0.000 C 
ATOM     14  O   UNL     1       5.405   2.726  11.720  0.00  0.00    +0.000 OA
ENDBRANCH   7  14
ENDBRANCH   1  11
BRANCH   4  15
ATOM     15  C   UNL     1       4.401   4.236  19.142  0.00  0.00    +0.000 C 
ATOM     16  C   UNL     1       4.158   5.748  19.287  0.00  0.00    +0.000 C 
BRANCH  15  17
ATOM     17  C   UNL     1       3.153   3.507  18.597  0.00  0.00    +0.000 C 
ATOM     18  C   UNL     1       1.881   4.396  18.554  0.00  0.00    +0.000 C 
ATOM     19  C   UNL     1       0.865   3.607  19.393  0.00  0.00    +0.000 C 
ATOM     20  C   UNL     1       1.306   3.648  20.869  0.00  0.00    +0.000 C 
ATOM     21  C   UNL     1       2.468   2.645  20.911  0.00  0.00    +0.000 C 
ATOM     22  C   UNL     1       2.658   2.285  19.429  0.00  0.00    +0.000 C 
ATOM     23  C   UNL     1       1.193   2.173  18.988  0.00  0.00    +0.000 C 
ENDBRANCH  15  17
ENDBRANCH   4  15
TORSDOF 4
ENDMDL
MODEL 2
REMARK VINA RESULT:      -7.9      0.894      1.720
REMARK  Name = 
REMARK  6 active torsions:
REMARK  status: ('A' for Active; 'I' for Inactive)
REMARK    1  A    between atoms: C_1  and  O_2
REMARK    2  A    between atoms: O_2  and  C_3
REMARK    3  A    between atoms: C_7  and  N_8
REMARK    4  A    between atoms: N_11  and  C_12
REMARK    5  A    between atoms: C_12  and  C_13
REMARK    6  A    between atoms: C_12  and  C_14
REMARK                            x       y       z     vdW  Elec       q    Type
REMARK                         _______ _______ _______ _____ _____    ______ ____
ROOT
ATOM      1  N   UNL     1       6.489   4.218  16.467  0.00  0.00    +0.000 N 
ATOM      2  C   UNL     1       5.302   3.823  17.041  0.00  0.00    +0.000 C 
ATOM      3  O   UNL     1       4.244   3.653  16.439  0.00  0.00    +0.000 OA
ATOM      4  N   UNL     1       5.395   3.570  18.395  0.00  0.00    +0.000 N 
ATOM      5  H   UNL     1       7.185   4.623  17.076  0.00  0.00    +0.000 HD
ATOM      6  H   UNL     1       6.065   4.100  18.931  0.00  0.00    +0.000 HD
ENDROOT
BRANCH   1  11
ATOM      7  C   UNL     1       6.150   3.565  12.825  0.00  0.00    +0.000 A 
ATOM      8  C   UNL     1       7.083   4.461  12.299  0.00  0.00    +0.000 A 
ATOM      9  C   UNL     1       7.796   5.308  13.138  0.00  0.00    +0.000 A 
ATOM     10  C   UNL     1       7.591   5.245  14.514  0.00  0.00    +0.000 A 
ATOM     11  C   UNL     1       6.683   4.333  15.067  0.00  0.00    +0.000 A 
ATOM     12  C   UNL     1       5.936   3.516  14.209  0.00  0.00    +0.000 A 
BRANCH   7  14
ATOM     13  C   UNL     1       4.257   3.220  11.428  0.00  0.00    +0.000 C 
ATOM     14  O   UNL     1       5.532   2.791  11.882  0.00  0.00    +0.000 OA
ENDBRANCH   7  14
ENDBRANCH   1  11
BRANCH   4  15
ATOM     15  C   UNL     1       4.231   2.993  19.078  0.00  0.00    +0.000 C 
ATOM     16  C   UNL     1       4.684   1.820  19.965  0.00  0.00    +0.000 C 
BRANCH  15  17
ATOM     17  C   UNL     1       3.441   4.046  19.885  0.00  0.00    +0.000 C 
ATOM     18  C   UNL     1       2.676   3.456  21.100  0.00  0.00    +0.000 C 
ATOM     19  C   UNL     1       1.222   3.875  20.846  0.00  0.00    +0.000 C 
ATOM     20  C   UNL     1       0.683   3.083  19.639  0.00  0.00    +0.000 C 
ATOM     21  C   UNL     1       1.339   3.787  18.442  0.00  0.00    +0.000 C 
ATOM     22  C   UNL     1       2.299   4.779  19.118  0.00  0.00    +0.000 C 
ATOM     23  C   UNL     1       1.410   5.274  20.267  0.00  0.00    +0.000 C 
ENDBRANCH  15  17
ENDBRANCH   4  15
TORSDOF 4
ENDMDL
MODEL 3
REMARK VINA RESULT:      -7.9      6.467      8.745
REMARK  Name = 
REMARK  6 active torsions:
REMARK  status: ('A' for Active; 'I' for Inactive)
REMARK    1  A    between atoms: C_1  and  O_2
REMARK    2  A    between atoms: O_2  and  C_3
REMARK    3  A    between atoms: C_7  and  N_8
REMARK    4  A    between atoms: N_11  and  C_12
REMARK    5  A    between atoms: C_12  and  C_13
REMARK    6  A    between atoms: C_12  and  C_14
REMARK                            x       y       z     vdW  Elec       q    Type
REMARK                         _______ _______ _______ _____ _____    ______ ____
ROOT
ATOM      1  N   UNL     1       8.018   7.433  18.312  0.00  0.00    +0.000 N 
ATOM      2  C   UNL     1       8.307   8.777  18.256  0.00  0.00    +0.000 C 
ATOM      3  O   UNL     1       7.896   9.556  17.398  0.00  0.00    +0.000 OA
ATOM      4  N   UNL     1       9.085   9.225  19.305  0.00  0.00    +0.000 N 
ATOM      5  H   UNL     1       8.641   6.848  18.849  0.00  0.00    +0.000 HD
ATOM      6  H   UNL     1       9.746   8.581  19.712  0.00  0.00    +0.000 HD
ENDROOT
BRANCH   1  11
ATOM      7  C   UNL     1       6.619   5.209  15.685  0.00  0.00    +0.000 A 
ATOM      8  C   UNL     1       5.269   5.567  15.714  0.00  0.00    +0.000 A 
ATOM      9  C   UNL     1       4.811   6.511  16.625  0.00  0.00    +0.000 A 
ATOM     10  C   UNL     1       5.712   7.117  17.498  0.00  0.00    +0.000 A 
ATOM     11  C   UNL     1       7.075   6.797  17.466  0.00  0.00    +0.000 A 
ATOM     12  C   UNL     1       7.518   5.811  16.576  0.00  0.00    +0.000 A 
BRANCH   7  14
ATOM     13  C   UNL     1       5.894   3.918  13.824  0.00  0.00    +0.000 C 
ATOM     14  O   UNL     1       6.924   4.275  14.733  0.00  0.00    +0.000 OA
ENDBRANCH   7  14
ENDBRANCH   1  11
BRANCH   4  15
ATOM     15  C   UNL     1       9.323  10.667  19.430  0.00  0.00    +0.000 C 
ATOM     16  C   UNL     1       9.250  11.073  20.913  0.00  0.00    +0.000 C 
BRANCH  15  17
ATOM     17  C   UNL     1      10.658  11.102  18.785  0.00  0.00    +0.000 C 
ATOM     18  C   UNL     1      11.606  11.852  19.759  0.00  0.00    +0.000 C 
ATOM     19  C   UNL     1      11.866  13.187  19.047  0.00  0.00    +0.000 C 
ATOM     20  C   UNL     1      10.568  14.018  19.068  0.00  0.00    +0.000 C 
ATOM     21  C   UNL     1       9.709  13.345  17.988  0.00  0.00    +0.000 C 
ATOM     22  C   UNL     1      10.548  12.115  17.606  0.00  0.00    +0.000 C 
ATOM     23  C   UNL     1      11.950  12.739  17.591  0.00  0.00    +0.000 C 
ENDBRANCH  15  17
ENDBRANCH   4  15
TORSDOF 4
ENDMDL
MODEL 4
REMARK VINA RESULT:      -7.9      6.525      9.174
REMARK  Name = 
REMARK  6 active torsions:
REMARK  status: ('A' for Active; 'I' for Inactive)
REMARK    1  A    between atoms: C_1  and  O_2
REMARK    2  A    between atoms: O_2  and  C_3
REMARK    3  A    between atoms: C_7  and  N_8
REMARK    4  A    between atoms: N_11  and  C_12
REMARK    5  A    between atoms: C_12  and  C_13
REMARK    6  A    between atoms: C_12  and  C_14
REMARK                            x       y       z     vdW  Elec       q    Type
REMARK                         _______ _______ _______ _____ _____    ______ ____
ROOT
ATOM      1  N   UNL     1       8.452   7.310  18.861  0.00  0.00    +0.000 N 
ATOM      2  C   UNL     1       8.494   8.665  18.625  0.00  0.00    +0.000 C 
ATOM      3  O   UNL     1       7.812   9.263  17.796  0.00  0.00    +0.000 OA
ATOM      4  N   UNL     1       9.360   9.348  19.457  0.00  0.00    +0.000 N 
ATOM      5  H   UNL     1       9.250   6.894  19.317  0.00  0.00    +0.000 HD
ATOM      6  H   UNL     1      10.182   8.865  19.785  0.00  0.00    +0.000 HD
ENDROOT
BRANCH   1  11
ATOM      7  C   UNL     1       5.879   4.648  18.543  0.00  0.00    +0.000 A 
ATOM      8  C   UNL     1       5.651   4.651  17.165  0.00  0.00    +0.000 A 
ATOM      9  C   UNL     1       6.314   5.555  16.344  0.00  0.00    +0.000 A 
ATOM     10  C   UNL     1       7.227   6.448  16.901  0.00  0.00    +0.000 A 
ATOM     11  C   UNL     1       7.494   6.442  18.276  0.00  0.00    +0.000 A 
ATOM     12  C   UNL     1       6.786   5.559  19.101  0.00  0.00    +0.000 A 
BRANCH   7  14
ATOM     13  C   UNL     1       3.838   4.041  19.602  0.00  0.00    +0.000 C 
ATOM     14  O   UNL     1       5.162   3.700  19.221  0.00  0.00    +0.000 OA
ENDBRANCH   7  14
ENDBRANCH   1  11
BRANCH   4  15
ATOM     15  C   UNL     1       9.369  10.814  19.400  0.00  0.00    +0.000 C 
ATOM     16  C   UNL     1       9.210  11.385  20.820  0.00  0.00    +0.000 C 
BRANCH  15  17
ATOM     17  C   UNL     1      10.630  11.368  18.701  0.00  0.00    +0.000 C 
ATOM     18  C   UNL     1      11.506  12.266  19.616  0.00  0.00    +0.000 C 
ATOM     19  C   UNL     1      11.595  13.588  18.840  0.00  0.00    +0.000 C 
ATOM     20  C   UNL     1      10.211  14.265  18.860  0.00  0.00    +0.000 C 
ATOM     21  C   UNL     1       9.412  13.450  17.834  0.00  0.00    +0.000 C 
ATOM     22  C   UNL     1      10.379  12.307  17.483  0.00  0.00    +0.000 C 
ATOM     23  C   UNL     1      11.698  13.086  17.404  0.00  0.00    +0.000 C 
ENDBRANCH  15  17
ENDBRANCH   4  15
TORSDOF 4
ENDMDL
MODEL 5
REMARK VINA RESULT:      -7.6      6.332      8.867
REMARK  Name = 
REMARK  6 active torsions:
REMARK  status: ('A' for Active; 'I' for Inactive)
REMARK    1  A    between atoms: C_1  and  O_2
REMARK    2  A    between atoms: O_2  and  C_3
REMARK    3  A    between atoms: C_7  and  N_8
REMARK    4  A    between atoms: N_11  and  C_12
REMARK    5  A    between atoms: C_12  and  C_13
REMARK    6  A    between atoms: C_12  and  C_14
REMARK                            x       y       z     vdW  Elec       q    Type
REMARK                         _______ _______ _______ _____ _____    ______ ____
ROOT
ATOM      1  N   UNL     1       8.030   7.272  18.300  0.00  0.00    +0.000 N 
ATOM      2  C   UNL     1       8.242   8.632  18.259  0.00  0.00    +0.000 C 
ATOM      3  O   UNL     1       7.695   9.413  17.484  0.00  0.00    +0.000 OA
ATOM      4  N   UNL     1       9.116   9.088  19.226  0.00  0.00    +0.000 N 
ATOM      5  H   UNL     1       8.742   6.706  18.738  0.00  0.00    +0.000 HD
ATOM      6  H   UNL     1       9.853   8.470  19.529  0.00  0.00    +0.000 HD
ENDROOT
BRANCH   1  11
ATOM      7  C   UNL     1       4.695   5.980  17.294  0.00  0.00    +0.000 A 
ATOM      8  C   UNL     1       5.017   5.261  16.141  0.00  0.00    +0.000 A 
ATOM      9  C   UNL     1       6.324   5.234  15.671  0.00  0.00    +0.000 A 
ATOM     10  C   UNL     1       7.320   5.911  16.370  0.00  0.00    +0.000 A 
ATOM     11  C   UNL     1       7.027   6.613  17.546  0.00  0.00    +0.000 A 
ATOM     12  C   UNL     1       5.699   6.673  17.985  0.00  0.00    +0.000 A 
BRANCH   7  14
ATOM     13  C   UNL     1       2.830   4.616  17.857  0.00  0.00    +0.000 C 
ATOM     14  O   UNL     1       3.373   5.910  17.641  0.00  0.00    +0.000 OA
ENDBRANCH   7  14
ENDBRANCH   1  11
BRANCH   4  15
ATOM     15  C   UNL     1       9.295  10.537  19.375  0.00  0.00    +0.000 C 
ATOM     16  C   UNL     1       9.175  10.919  20.861  0.00  0.00    +0.000 C 
BRANCH  15  17
ATOM     17  C   UNL     1      10.624  11.033  18.765  0.00  0.00    +0.000 C 
ATOM     18  C   UNL     1      11.497  11.852  19.753  0.00  0.00    +0.000 C 
ATOM     19  C   UNL     1      11.707  13.186  19.023  0.00  0.00    +0.000 C 
ATOM     20  C   UNL     1      10.366  13.944  18.985  0.00  0.00    +0.000 C 
ATOM     21  C   UNL     1       9.581  13.205  17.892  0.00  0.00    +0.000 C 
ATOM     22  C   UNL     1      10.499  12.016  17.562  0.00  0.00    +0.000 C 
ATOM     23  C   UNL     1      11.864  12.716  17.580  0.00  0.00    +0.000 C 
ENDBRANCH  15  17
ENDBRANCH   4  15
TORSDOF 4
ENDMDL
MODEL 6
REMARK VINA RESULT:      -7.4      1.343      1.603
REMARK  Name = 
REMARK  6 active torsions:
REMARK  status: ('A' for Active; 'I' for Inactive)
REMARK    1  A    between atoms: C_1  and  O_2
REMARK    2  A    between atoms: O_2  and  C_3
REMARK    3  A    between atoms: C_7  and  N_8
REMARK    4  A    between atoms: N_11  and  C_12
REMARK    5  A    between atoms: C_12  and  C_13
REMARK    6  A    between atoms: C_12  and  C_14
REMARK                            x       y       z     vdW  Elec       q    Type
REMARK                         _______ _______ _______ _____ _____    ______ ____
ROOT
ATOM      1  N   UNL     1       5.064   5.210  15.073  0.00  0.00    +0.000 N 
ATOM      2  C   UNL     1       4.803   4.504  16.226  0.00  0.00    +0.000 C 
ATOM      3  O   UNL     1       5.025   3.307  16.390  0.00  0.00    +0.000 OA
ATOM      4  N   UNL     1       4.297   5.279  17.251  0.00  0.00    +0.000 N 
ATOM      5  H   UNL     1       4.566   6.078  14.940  0.00  0.00    +0.000 HD
ATOM      6  H   UNL     1       3.731   6.077  17.007  0.00  0.00    +0.000 HD
ENDROOT
BRANCH   1  11
ATOM      7  C   UNL     1       5.864   3.086  12.132  0.00  0.00    +0.000 A 
ATOM      8  C   UNL     1       7.155   3.521  11.824  0.00  0.00    +0.000 A 
ATOM      9  C   UNL     1       7.748   4.540  12.559  0.00  0.00    +0.000 A 
ATOM     10  C   UNL     1       7.055   5.114  13.622  0.00  0.00    +0.000 A 
ATOM     11  C   UNL     1       5.772   4.673  13.968  0.00  0.00    +0.000 A 
ATOM     12  C   UNL     1       5.165   3.678  13.192  0.00  0.00    +0.000 A 
BRANCH   7  14
ATOM     13  C   UNL     1       6.299   0.986  11.106  0.00  0.00    +0.000 C 
ATOM     14  O   UNL     1       5.414   2.073  11.330  0.00  0.00    +0.000 OA
ENDBRANCH   7  14
ENDBRANCH   1  11
BRANCH   4  15
ATOM     15  C   UNL     1       4.129   4.663  18.572  0.00  0.00    +0.000 C 
ATOM     16  C   UNL     1       5.128   5.289  19.561  0.00  0.00    +0.000 C 
BRANCH  15  17
ATOM     17  C   UNL     1       2.677   4.762  19.088  0.00  0.00    +0.000 C 
ATOM     18  C   UNL     1       2.574   5.125  20.594  0.00  0.00    +0.000 C 
ATOM     19  C   UNL     1       1.750   3.971  21.184  0.00  0.00    +0.000 C 
ATOM     20  C   UNL     1       2.608   2.691  21.162  0.00  0.00    +0.000 C 
ATOM     21  C   UNL     1       2.566   2.272  19.685  0.00  0.00    +0.000 C 
ATOM     22  C   UNL     1       1.837   3.451  19.020  0.00  0.00    +0.000 C 
ATOM     23  C   UNL     1       0.745   3.717  20.065  0.00  0.00    +0.000 C 
ENDBRANCH  15  17
ENDBRANCH   4  15
TORSDOF 4
ENDMDL
MODEL 7
REMARK VINA RESULT:      -7.4      4.770      8.178
REMARK  Name = 
REMARK  6 active torsions:
REMARK  status: ('A' for Active; 'I' for Inactive)
REMARK    1  A    between atoms: C_1  and  O_2
REMARK    2  A    between atoms: O_2  and  C_3
REMARK    3  A    between atoms: C_7  and  N_8
REMARK    4  A    between atoms: N_11  and  C_12
REMARK    5  A    between atoms: C_12  and  C_13
REMARK    6  A    between atoms: C_12  and  C_14
REMARK                            x       y       z     vdW  Elec       q    Type
REMARK                         _______ _______ _______ _____ _____    ______ ____
ROOT
ATOM      1  N   UNL     1       1.761   7.472  20.698  0.00  0.00    +0.000 N 
ATOM      2  C   UNL     1       2.434   7.058  19.571  0.00  0.00    +0.000 C 
ATOM      3  O   UNL     1       2.438   7.645  18.491  0.00  0.00    +0.000 OA
ATOM      4  N   UNL     1       3.179   5.910  19.757  0.00  0.00    +0.000 N 
ATOM      5  H   UNL     1       1.569   6.776  21.404  0.00  0.00    +0.000 HD
ATOM      6  H   UNL     1       2.846   5.233  20.425  0.00  0.00    +0.000 HD
ENDROOT
BRANCH   1  11
ATOM      7  C   UNL     1      -0.039  10.361  22.186  0.00  0.00    +0.000 A 
ATOM      8  C   UNL     1      -0.270  11.150  21.057  0.00  0.00    +0.000 A 
ATOM      9  C   UNL     1       0.201  10.752  19.813  0.00  0.00    +0.000 A 
ATOM     10  C   UNL     1       0.888   9.547  19.691  0.00  0.00    +0.000 A 
ATOM     11  C   UNL     1       1.104   8.724  20.804  0.00  0.00    +0.000 A 
ATOM     12  C   UNL     1       0.666   9.157  22.061  0.00  0.00    +0.000 A 
BRANCH   7  14
ATOM     13  C   UNL     1      -1.706  11.712  23.211  0.00  0.00    +0.000 C 
ATOM     14  O   UNL     1      -0.567  10.875  23.339  0.00  0.00    +0.000 OA
ENDBRANCH   7  14
ENDBRANCH   1  11
BRANCH   4  15
ATOM     15  C   UNL     1       4.058   5.467  18.669  0.00  0.00    +0.000 C 
ATOM     16  C   UNL     1       5.449   5.132  19.237  0.00  0.00    +0.000 C 
BRANCH  15  17
ATOM     17  C   UNL     1       3.465   4.280  17.878  0.00  0.00    +0.000 C 
ATOM     18  C   UNL     1       1.913   4.276  17.831  0.00  0.00    +0.000 C 
ATOM     19  C   UNL     1       1.542   2.905  18.414  0.00  0.00    +0.000 C 
ATOM     20  C   UNL     1       1.875   2.902  19.918  0.00  0.00    +0.000 C 
ATOM     21  C   UNL     1       3.403   2.753  19.935  0.00  0.00    +0.000 C 
ATOM     22  C   UNL     1       3.769   2.861  18.445  0.00  0.00    +0.000 C 
ATOM     23  C   UNL     1       2.641   2.023  17.829  0.00  0.00    +0.000 C 
ENDBRANCH  15  17
ENDBRANCH   4  15
TORSDOF 4
ENDMDL
MODEL 8
REMARK VINA RESULT:      -7.4      5.784      7.494
REMARK  Name = 
REMARK  6 active torsions:
REMARK  status: ('A' for Active; 'I' for Inactive)
REMARK    1  A    between atoms: C_1  and  O_2
REMARK    2  A    between atoms: O_2  and  C_3
REMARK    3  A    between atoms: C_7  and  N_8
REMARK    4  A    between atoms: N_11  and  C_12
REMARK    5  A    between atoms: C_12  and  C_13
REMARK    6  A    between atoms: C_12  and  C_14
REMARK                            x       y       z     vdW  Elec       q    Type
REMARK                         _______ _______ _______ _____ _____    ______ ____
ROOT
ATOM      1  N   UNL     1       8.969   9.203  18.941  0.00  0.00    +0.000 N 
ATOM      2  C   UNL     1       8.177   8.342  18.215  0.00  0.00    +0.000 C 
ATOM      3  O   UNL     1       7.596   8.624  17.169  0.00  0.00    +0.000 OA
ATOM      4  N   UNL     1       8.115   7.066  18.739  0.00  0.00    +0.000 N 
ATOM      5  H   UNL     1       9.128   8.977  19.912  0.00  0.00    +0.000 HD
ATOM      6  H   UNL     1       8.193   6.960  19.738  0.00  0.00    +0.000 HD
ENDROOT
BRANCH   1  11
ATOM      7  C   UNL     1       8.685  12.719  17.775  0.00  0.00    +0.000 A 
ATOM      8  C   UNL     1      10.022  13.031  17.519  0.00  0.00    +0.000 A 
ATOM      9  C   UNL     1      11.022  12.098  17.766  0.00  0.00    +0.000 A 
ATOM     10  C   UNL     1      10.682  10.838  18.253  0.00  0.00    +0.000 A 
ATOM     11  C   UNL     1       9.345  10.493  18.489  0.00  0.00    +0.000 A 
ATOM     12  C   UNL     1       8.349  11.455  18.280  0.00  0.00    +0.000 A 
BRANCH   7  14
ATOM     13  C   UNL     1       8.088  15.006  18.035  0.00  0.00    +0.000 C 
ATOM     14  O   UNL     1       7.813  13.730  17.477  0.00  0.00    +0.000 OA
ENDBRANCH   7  14
ENDBRANCH   1  11
BRANCH   4  15
ATOM     15  C   UNL     1       7.427   6.027  17.963  0.00  0.00    +0.000 C 
ATOM     16  C   UNL     1       8.130   4.676  18.178  0.00  0.00    +0.000 C 
BRANCH  15  17
ATOM     17  C   UNL     1       5.920   5.946  18.294  0.00  0.00    +0.000 C 
ATOM     18  C   UNL     1       5.425   4.506  18.593  0.00  0.00    +0.000 C 
ATOM     19  C   UNL     1       4.293   4.299  17.577  0.00  0.00    +0.000 C 
ATOM     20  C   UNL     1       4.907   4.202  16.167  0.00  0.00    +0.000 C 
ATOM     21  C   UNL     1       5.248   5.662  15.837  0.00  0.00    +0.000 C 
ATOM     22  C   UNL     1       4.947   6.387  17.159  0.00  0.00    +0.000 C 
ATOM     23  C   UNL     1       3.646   5.681  17.563  0.00  0.00    +0.000 C 
ENDBRANCH  15  17
ENDBRANCH   4  15
TORSDOF 4
ENDMDL
MODEL 9
REMARK VINA RESULT:      -7.2      5.972      7.802
REMARK  Name = 
REMARK  6 active torsions:
REMARK  status: ('A' for Active; 'I' for Inactive)
REMARK    1  A    between atoms: C_1  and  O_2
REMARK    2  A    between atoms: O_2  and  C_3
REMARK    3  A    between atoms: C_7  and  N_8
REMARK    4  A    between atoms: N_11  and  C_12
REMARK    5  A    between atoms: C_12  and  C_13
REMARK    6  A    between atoms: C_12  and  C_14
REMARK                            x       y       z     vdW  Elec       q    Type
REMARK                         _______ _______ _______ _____ _____    ______ ____
ROOT
ATOM      1  N   UNL     1       9.145   9.096  19.335  0.00  0.00    +0.000 N 
ATOM      2  C   UNL     1       8.249   8.426  18.534  0.00  0.00    +0.000 C 
ATOM      3  O   UNL     1       7.528   8.946  17.686  0.00  0.00    +0.000 OA
ATOM      4  N   UNL     1       8.248   7.057  18.722  0.00  0.00    +0.000 N 
ATOM      5  H   UNL     1       9.439   8.637  20.185  0.00  0.00    +0.000 HD
ATOM      6  H   UNL     1       8.467   6.706  19.641  0.00  0.00    +0.000 HD
ENDROOT
BRANCH   1  11
ATOM      7  C   UNL     1      10.501  12.219  17.848  0.00  0.00    +0.000 A 
ATOM      8  C   UNL     1      10.197  13.150  18.843  0.00  0.00    +0.000 A 
ATOM      9  C   UNL     1       9.511  12.759  19.986  0.00  0.00    +0.000 A 
ATOM     10  C   UNL     1       9.145  11.425  20.146  0.00  0.00    +0.000 A 
ATOM     11  C   UNL     1       9.467  10.467  19.175  0.00  0.00    +0.000 A 
ATOM     12  C   UNL     1      10.117  10.880  18.006  0.00  0.00    +0.000 A 
BRANCH   7  14
ATOM     13  C   UNL     1      11.467  14.136  16.825  0.00  0.00    +0.000 C 
ATOM     14  O   UNL     1      11.185  12.745  16.786  0.00  0.00    +0.000 OA
ENDBRANCH   7  14
ENDBRANCH   1  11
BRANCH   4  15
ATOM     15  C   UNL     1       7.445   6.230  17.814  0.00  0.00    +0.000 C 
ATOM     16  C   UNL     1       7.985   4.789  17.820  0.00  0.00    +0.000 C 
BRANCH  15  17
ATOM     17  C   UNL     1       5.939   6.276  18.152  0.00  0.00    +0.000 C 
ATOM     18  C   UNL     1       5.349   4.899  18.559  0.00  0.00    +0.000 C 
ATOM     19  C   UNL     1       4.199   4.694  17.563  0.00  0.00    +0.000 C 
ATOM     20  C   UNL     1       4.796   4.451  16.164  0.00  0.00    +0.000 C 
ATOM     21  C   UNL     1       5.233   5.856  15.725  0.00  0.00    +0.000 C 
ATOM     22  C   UNL     1       4.990   6.696  16.990  0.00  0.00    +0.000 C 
ATOM     23  C   UNL     1       3.647   6.112  17.447  0.00  0.00    +0.000 C 
ENDBRANCH  15  17
ENDBRANCH   4  15
TORSDOF 4
ENDMDL
