MODEL 1
REMARK VINA RESULT:      -8.1      0.000      0.000
REMARK  Name = 
REMARK  3 active torsions:
REMARK  status: ('A' for Active; 'I' for Inactive)
REMARK    1  A    between atoms: C_1  and  C_2
REMARK    2  A    between atoms: N_3  and  C_4
REMARK    3  A    between atoms: N_14  and  C_15
REMARK                            x       y       z     vdW  Elec       q    Type
REMARK                         _______ _______ _______ _____ _____    ______ ____
ROOT
ATOM      1  C   UNL     1       4.186   6.881  17.453  0.00  0.00    +0.000 C 
ATOM      2  C   UNL     1       2.806   7.276  17.923  0.00  0.00    +0.000 C 
ATOM      3  N   UNL     1       1.950   6.498  18.510  0.00  0.00    +0.000 NA
ATOM      4  N   UNL     1       2.486   8.592  17.671  0.00  0.00    +0.000 N 
ATOM      5  H   UNL     1       2.930   9.035  16.875  0.00  0.00    +0.000 HD
ENDROOT
BRANCH   3   6
ATOM      6  C   UNL     1       2.121   5.112  18.876  0.00  0.00    +0.000 C 
ATOM      7  C   UNL     1       3.482   4.908  19.577  0.00  0.00    +0.000 C 
ATOM      8  C   UNL     1       3.665   3.447  19.985  0.00  0.00    +0.000 C 
ATOM      9  C   UNL     1       2.596   3.090  21.022  0.00  0.00    +0.000 C 
ATOM     10  C   UNL     1       1.197   3.298  20.420  0.00  0.00    +0.000 C 
ATOM     11  C   UNL     1       1.042   2.353  19.221  0.00  0.00    +0.000 C 
ATOM     12  C   UNL     1       2.091   2.693  18.147  0.00  0.00    +0.000 C 
ATOM     13  C   UNL     1       3.508   2.561  18.737  0.00  0.00    +0.000 C 
ATOM     14  C   UNL     1       1.871   4.145  17.698  0.00  0.00    +0.000 C 
ATOM     15  C   UNL     1       1.044   4.766  19.952  0.00  0.00    +0.000 C 
ENDBRANCH   3   6
BRANCH   4  16
ATOM     16  C   UNL     1       1.583   9.430  18.457  0.00  0.00    +0.000 C 
ATOM     17  C   UNL     1       1.577   8.996  19.945  0.00  0.00    +0.000 C 
ATOM     18  C   UNL     1       0.635   9.901  20.758  0.00  0.00    +0.000 C 
ATOM     19  C   UNL     1       1.141  11.350  20.681  0.00  0.00    +0.000 C 
ATOM     20  C   UNL     1       1.165  11.818  19.218  0.00  0.00    +0.000 C 
ATOM     21  C   UNL     1      -0.261  11.743  18.646  0.00  0.00    +0.000 C 
ATOM     22  C   UNL     1      -0.773  10.298  18.701  0.00  0.00    +0.000 C 
ATOM     23  C   UNL     1      -0.780   9.810  20.161  0.00  0.00    +0.000 C 
ATOM     24  C   UNL     1       0.157   9.402  17.875  0.00  0.00    +0.000 C 
ATOM     25  C   UNL     1       2.089  10.896  18.400  0.00  0.00    +0.000 C 
ENDBRANCH   4  16
TORSDOF 2
ENDMDL
MODEL 2
REMARK VINA RESULT:      -8.0      0.089      1.512
REMARK  Name = 
REMARK  3 active torsions:
REMARK  status: ('A' for Active; 'I' for Inactive)
REMARK    1  A    between atoms: C_1  and  C_2
REMARK    2  A    between atoms: N_3  and  C_4
REMARK    3  A    between atoms: N_14  and  C_15
REMARK                            x       y       z     vdW  Elec       q    Type
REMARK                         _______ _______ _______ _____ _____    ______ ____
ROOT
ATOM      1  C   UNL     1       4.135   6.885  17.463  0.00  0.00    +0.000 C 
ATOM      2  C   UNL     1       2.763   7.283  17.955  0.00  0.00    +0.000 C 
ATOM      3  N   UNL     1       1.928   6.515  18.584  0.00  0.00    +0.000 NA
ATOM      4  N   UNL     1       2.427   8.589  17.674  0.00  0.00    +0.000 N 
ATOM      5  H   UNL     1       2.848   9.013  16.856  0.00  0.00    +0.000 HD
ENDROOT
BRANCH   3   6
ATOM      6  C   UNL     1       2.119   5.141  18.983  0.00  0.00    +0.000 C 
ATOM      7  C   UNL     1       1.055   4.734  20.026  0.00  0.00    +0.000 C 
ATOM      8  C   UNL     1       1.237   3.276  20.443  0.00  0.00    +0.000 C 
ATOM      9  C   UNL     1       0.996   2.384  19.221  0.00  0.00    +0.000 C 
ATOM     10  C   UNL     1       1.994   2.744  18.108  0.00  0.00    +0.000 C 
ATOM     11  C   UNL     1       3.414   2.478  18.629  0.00  0.00    +0.000 C 
ATOM     12  C   UNL     1       3.700   3.371  19.849  0.00  0.00    +0.000 C 
ATOM     13  C   UNL     1       2.673   3.085  20.962  0.00  0.00    +0.000 C 
ATOM     14  C   UNL     1       3.570   4.839  19.416  0.00  0.00    +0.000 C 
ATOM     15  C   UNL     1       1.845   4.239  17.738  0.00  0.00    +0.000 C 
ENDBRANCH   3   6
BRANCH   4  16
ATOM     16  C   UNL     1       1.536   9.441  18.459  0.00  0.00    +0.000 C 
ATOM     17  C   UNL     1       1.532   9.019  19.950  0.00  0.00    +0.000 C 
ATOM     18  C   UNL     1       0.603   9.939  20.760  0.00  0.00    +0.000 C 
ATOM     19  C   UNL     1       1.123  11.382  20.670  0.00  0.00    +0.000 C 
ATOM     20  C   UNL     1       1.144  11.839  19.204  0.00  0.00    +0.000 C 
ATOM     21  C   UNL     1      -0.284  11.774  18.639  0.00  0.00    +0.000 C 
ATOM     22  C   UNL     1      -0.811  10.334  18.707  0.00  0.00    +0.000 C 
ATOM     23  C   UNL     1      -0.816   9.858  20.171  0.00  0.00    +0.000 C 
ATOM     24  C   UNL     1       0.107   9.423  17.884  0.00  0.00    +0.000 C 
ATOM     25  C   UNL     1       2.055  10.903  18.389  0.00  0.00    +0.000 C 
ENDBRANCH   4  16
TORSDOF 2
ENDMDL
MODEL 3
REMARK VINA RESULT:      -8.0      0.063      1.528
REMARK  Name = 
REMARK  3 active torsions:
REMARK  status: ('A' for Active; 'I' for Inactive)
REMARK    1  A    between atoms: C_1  and  C_2
REMARK    2  A    between atoms: N_3  and  C_4
REMARK    3  A    between atoms: N_14  and  C_15
REMARK                            x       y       z     vdW  Elec       q    Type
REMARK                         _______ _______ _______ _____ _____    ______ ____
ROOT
ATOM      1  C   UNL     1       4.209   6.825  17.453  0.00  0.00    +0.000 C 
ATOM      2  C   UNL     1       2.839   7.251  17.924  0.00  0.00    +0.000 C 
ATOM      3  N   UNL     1       1.969   6.493  18.518  0.00  0.00    +0.000 NA
ATOM      4  N   UNL     1       2.544   8.570  17.664  0.00  0.00    +0.000 N 
ATOM      5  H   UNL     1       2.994   9.000  16.864  0.00  0.00    +0.000 HD
ENDROOT
BRANCH   3   6
ATOM      6  C   UNL     1       2.114   5.106  18.892  0.00  0.00    +0.000 C 
ATOM      7  C   UNL     1       3.474   4.879  19.587  0.00  0.00    +0.000 C 
ATOM      8  C   UNL     1       3.630   3.417  20.004  0.00  0.00    +0.000 C 
ATOM      9  C   UNL     1       2.560   3.089  21.049  0.00  0.00    +0.000 C 
ATOM     10  C   UNL     1       1.162   3.322  20.454  0.00  0.00    +0.000 C 
ATOM     11  C   UNL     1       0.980   2.372  19.262  0.00  0.00    +0.000 C 
ATOM     12  C   UNL     1       2.029   2.684  18.180  0.00  0.00    +0.000 C 
ATOM     13  C   UNL     1       3.447   2.526  18.762  0.00  0.00    +0.000 C 
ATOM     14  C   UNL     1       1.836   4.137  17.722  0.00  0.00    +0.000 C 
ATOM     15  C   UNL     1       1.037   4.790  19.978  0.00  0.00    +0.000 C 
ENDBRANCH   3   6
BRANCH   4  16
ATOM     16  C   UNL     1       1.660   9.431  18.448  0.00  0.00    +0.000 C 
ATOM     17  C   UNL     1       2.137  10.904  18.405  0.00  0.00    +0.000 C 
ATOM     18  C   UNL     1       1.184  11.795  19.220  0.00  0.00    +0.000 C 
ATOM     19  C   UNL     1      -0.221  11.725  18.601  0.00  0.00    +0.000 C 
ATOM     20  C   UNL     1      -0.730  10.276  18.623  0.00  0.00    +0.000 C 
ATOM     21  C   UNL     1      -0.789   9.789  20.080  0.00  0.00    +0.000 C 
ATOM     22  C   UNL     1       0.611   9.837  20.707  0.00  0.00    +0.000 C 
ATOM     23  C   UNL     1       1.141  11.281  20.670  0.00  0.00    +0.000 C 
ATOM     24  C   UNL     1       1.554   8.934  19.903  0.00  0.00    +0.000 C 
ATOM     25  C   UNL     1       0.238   9.381  17.827  0.00  0.00    +0.000 C 
ENDBRANCH   4  16
TORSDOF 2
ENDMDL
MODEL 4
REMARK VINA RESULT:      -8.0      0.090      2.157
REMARK  Name = 
REMARK  3 active torsions:
REMARK  status: ('A' for Active; 'I' for Inactive)
REMARK    1  A    between atoms: C_1  and  C_2
REMARK    2  A    between atoms: N_3  and  C_4
REMARK    3  A    between atoms: N_14  and  C_15
REMARK                            x       y       z     vdW  Elec       q    Type
REMARK                         _______ _______ _______ _____ _____    ______ ____
ROOT
ATOM      1  C   UNL     1       4.141   6.875  17.446  0.00  0.00    +0.000 C 
ATOM      2  C   UNL     1       2.782   7.296  17.953  0.00  0.00    +0.000 C 
ATOM      3  N   UNL     1       1.943   6.544  18.596  0.00  0.00    +0.000 NA
ATOM      4  N   UNL     1       2.462   8.605  17.670  0.00  0.00    +0.000 N 
ATOM      5  H   UNL     1       2.879   9.019  16.844  0.00  0.00    +0.000 HD
ENDROOT
BRANCH   3   6
ATOM      6  C   UNL     1       2.118   5.169  19.000  0.00  0.00    +0.000 C 
ATOM      7  C   UNL     1       1.048   4.777  20.042  0.00  0.00    +0.000 C 
ATOM      8  C   UNL     1       1.214   3.318  20.463  0.00  0.00    +0.000 C 
ATOM      9  C   UNL     1       0.965   2.425  19.244  0.00  0.00    +0.000 C 
ATOM     10  C   UNL     1       1.969   2.771  18.132  0.00  0.00    +0.000 C 
ATOM     11  C   UNL     1       3.384   2.491  18.656  0.00  0.00    +0.000 C 
ATOM     12  C   UNL     1       3.678   3.384  19.874  0.00  0.00    +0.000 C 
ATOM     13  C   UNL     1       2.647   3.113  20.985  0.00  0.00    +0.000 C 
ATOM     14  C   UNL     1       3.566   4.852  19.436  0.00  0.00    +0.000 C 
ATOM     15  C   UNL     1       1.836   4.267  17.757  0.00  0.00    +0.000 C 
ENDBRANCH   3   6
BRANCH   4  16
ATOM     16  C   UNL     1       1.594   9.475  18.462  0.00  0.00    +0.000 C 
ATOM     17  C   UNL     1       2.065  10.949  18.384  0.00  0.00    +0.000 C 
ATOM     18  C   UNL     1       1.129  11.850  19.209  0.00  0.00    +0.000 C 
ATOM     19  C   UNL     1      -0.290  11.766  18.625  0.00  0.00    +0.000 C 
ATOM     20  C   UNL     1      -0.794  10.316  18.682  0.00  0.00    +0.000 C 
ATOM     21  C   UNL     1      -0.815   9.851  20.147  0.00  0.00    +0.000 C 
ATOM     22  C   UNL     1       0.600   9.914  20.739  0.00  0.00    +0.000 C 
ATOM     23  C   UNL     1       1.123  11.359  20.667  0.00  0.00    +0.000 C 
ATOM     24  C   UNL     1       1.525   9.001  19.926  0.00  0.00    +0.000 C 
ATOM     25  C   UNL     1       0.158   9.412  17.877  0.00  0.00    +0.000 C 
ENDBRANCH   4  16
TORSDOF 2
ENDMDL
MODEL 5
REMARK VINA RESULT:      -7.9      0.056      1.543
REMARK  Name = 
REMARK  3 active torsions:
REMARK  status: ('A' for Active; 'I' for Inactive)
REMARK    1  A    between atoms: C_1  and  C_2
REMARK    2  A    between atoms: N_3  and  C_4
REMARK    3  A    between atoms: N_14  and  C_15
REMARK                            x       y       z     vdW  Elec       q    Type
REMARK                         _______ _______ _______ _____ _____    ______ ____
ROOT
ATOM      1  C   UNL     1       4.211   6.865  17.452  0.00  0.00    +0.000 C 
ATOM      2  C   UNL     1       2.834   7.278  17.915  0.00  0.00    +0.000 C 
ATOM      3  N   UNL     1       1.969   6.514  18.509  0.00  0.00    +0.000 NA
ATOM      4  N   UNL     1       2.526   8.593  17.647  0.00  0.00    +0.000 N 
ATOM      5  H   UNL     1       2.976   9.023  16.847  0.00  0.00    +0.000 HD
ENDROOT
BRANCH   3   6
ATOM      6  C   UNL     1       2.127   5.131  18.891  0.00  0.00    +0.000 C 
ATOM      7  C   UNL     1       3.496   4.917  19.573  0.00  0.00    +0.000 C 
ATOM      8  C   UNL     1       3.666   3.459  19.998  0.00  0.00    +0.000 C 
ATOM      9  C   UNL     1       2.609   3.132  21.057  0.00  0.00    +0.000 C 
ATOM     10  C   UNL     1       1.203   3.352  20.475  0.00  0.00    +0.000 C 
ATOM     11  C   UNL     1       1.015   2.392  19.291  0.00  0.00    +0.000 C 
ATOM     12  C   UNL     1       2.051   2.703  18.196  0.00  0.00    +0.000 C 
ATOM     13  C   UNL     1       3.475   2.559  18.764  0.00  0.00    +0.000 C 
ATOM     14  C   UNL     1       1.843   4.152  17.730  0.00  0.00    +0.000 C 
ATOM     15  C   UNL     1       1.063   4.815  19.990  0.00  0.00    +0.000 C 
ENDBRANCH   3   6
BRANCH   4  16
ATOM     16  C   UNL     1       1.629   9.448  18.422  0.00  0.00    +0.000 C 
ATOM     17  C   UNL     1       0.179   9.365  17.883  0.00  0.00    +0.000 C 
ATOM     18  C   UNL     1      -0.751  10.258  18.723  0.00  0.00    +0.000 C 
ATOM     19  C   UNL     1      -0.748   9.759  20.176  0.00  0.00    +0.000 C 
ATOM     20  C   UNL     1       0.676   9.823  20.748  0.00  0.00    +0.000 C 
ATOM     21  C   UNL     1       1.166  11.280  20.706  0.00  0.00    +0.000 C 
ATOM     22  C   UNL     1       1.184  11.787  19.258  0.00  0.00    +0.000 C 
ATOM     23  C   UNL     1      -0.235  11.706  18.668  0.00  0.00    +0.000 C 
ATOM     24  C   UNL     1       2.126  10.907  18.428  0.00  0.00    +0.000 C 
ATOM     25  C   UNL     1       1.612   8.949  19.892  0.00  0.00    +0.000 C 
ENDBRANCH   4  16
TORSDOF 2
ENDMDL
MODEL 6
REMARK VINA RESULT:      -7.8      0.099      1.554
REMARK  Name = 
REMARK  3 active torsions:
REMARK  status: ('A' for Active; 'I' for Inactive)
REMARK    1  A    between atoms: C_1  and  C_2
REMARK    2  A    between atoms: N_3  and  C_4
REMARK    3  A    between atoms: N_14  and  C_15
REMARK                            x       y       z     vdW  Elec       q    Type
REMARK                         _______ _______ _______ _____ _____    ______ ____
ROOT
ATOM      1  C   UNL     1       4.121   6.878  17.486  0.00  0.00    +0.000 C 
ATOM      2  C   UNL     1       2.743   7.291  17.946  0.00  0.00    +0.000 C 
ATOM      3  N   UNL     1       1.875   6.525  18.533  0.00  0.00    +0.000 NA
ATOM      4  N   UNL     1       2.439   8.608  17.684  0.00  0.00    +0.000 N 
ATOM      5  H   UNL     1       2.892   9.042  16.888  0.00  0.00    +0.000 HD
ENDROOT
BRANCH   3   6
ATOM      6  C   UNL     1       2.029   5.140  18.908  0.00  0.00    +0.000 C 
ATOM      7  C   UNL     1       1.937   4.234  17.661  0.00  0.00    +0.000 C 
ATOM      8  C   UNL     1       2.117   2.767  18.044  0.00  0.00    +0.000 C 
ATOM      9  C   UNL     1       3.531   2.576  18.602  0.00  0.00    +0.000 C 
ATOM     10  C   UNL     1       3.729   3.473  19.835  0.00  0.00    +0.000 C 
ATOM     11  C   UNL     1       2.722   3.042  20.911  0.00  0.00    +0.000 C 
ATOM     12  C   UNL     1       1.286   3.236  20.393  0.00  0.00    +0.000 C 
ATOM     13  C   UNL     1       1.073   2.403  19.114  0.00  0.00    +0.000 C 
ATOM     14  C   UNL     1       1.088   4.722  20.059  0.00  0.00    +0.000 C 
ATOM     15  C   UNL     1       3.482   4.951  19.450  0.00  0.00    +0.000 C 
ENDBRANCH   3   6
BRANCH   4  16
ATOM     16  C   UNL     1       1.541   9.461  18.461  0.00  0.00    +0.000 C 
ATOM     17  C   UNL     1       1.529   9.043  19.953  0.00  0.00    +0.000 C 
ATOM     18  C   UNL     1       0.593   9.963  20.754  0.00  0.00    +0.000 C 
ATOM     19  C   UNL     1       1.108  11.407  20.663  0.00  0.00    +0.000 C 
ATOM     20  C   UNL     1       1.137  11.860  19.195  0.00  0.00    +0.000 C 
ATOM     21  C   UNL     1      -0.288  11.788  18.622  0.00  0.00    +0.000 C 
ATOM     22  C   UNL     1      -0.811  10.347  18.692  0.00  0.00    +0.000 C 
ATOM     23  C   UNL     1      -0.823   9.875  20.157  0.00  0.00    +0.000 C 
ATOM     24  C   UNL     1       0.115   9.436  17.877  0.00  0.00    +0.000 C 
ATOM     25  C   UNL     1       2.056  10.923  18.388  0.00  0.00    +0.000 C 
ENDBRANCH   4  16
TORSDOF 2
ENDMDL
MODEL 7
REMARK VINA RESULT:      -7.8      0.106      2.152
REMARK  Name = 
REMARK  3 active torsions:
REMARK  status: ('A' for Active; 'I' for Inactive)
REMARK    1  A    between atoms: C_1  and  C_2
REMARK    2  A    between atoms: N_3  and  C_4
REMARK    3  A    between atoms: N_14  and  C_15
REMARK                            x       y       z     vdW  Elec       q    Type
REMARK                         _______ _______ _______ _____ _____    ______ ____
ROOT
ATOM      1  C   UNL     1       4.145   6.903  17.464  0.00  0.00    +0.000 C 
ATOM      2  C   UNL     1       2.775   7.321  17.941  0.00  0.00    +0.000 C 
ATOM      3  N   UNL     1       1.926   6.569  18.572  0.00  0.00    +0.000 NA
ATOM      4  N   UNL     1       2.454   8.627  17.643  0.00  0.00    +0.000 N 
ATOM      5  H   UNL     1       2.885   9.037  16.824  0.00  0.00    +0.000 HD
ENDROOT
BRANCH   3   6
ATOM      6  C   UNL     1       2.100   5.197  18.989  0.00  0.00    +0.000 C 
ATOM      7  C   UNL     1       1.043   4.822  20.049  0.00  0.00    +0.000 C 
ATOM      8  C   UNL     1       1.206   3.367  20.484  0.00  0.00    +0.000 C 
ATOM      9  C   UNL     1       0.936   2.462  19.278  0.00  0.00    +0.000 C 
ATOM     10  C   UNL     1       1.926   2.791  18.149  0.00  0.00    +0.000 C 
ATOM     11  C   UNL     1       3.347   2.509  18.656  0.00  0.00    +0.000 C 
ATOM     12  C   UNL     1       3.662   3.414  19.860  0.00  0.00    +0.000 C 
ATOM     13  C   UNL     1       2.645   3.160  20.989  0.00  0.00    +0.000 C 
ATOM     14  C   UNL     1       3.551   4.878  19.408  0.00  0.00    +0.000 C 
ATOM     15  C   UNL     1       1.796   4.283  17.760  0.00  0.00    +0.000 C 
ENDBRANCH   3   6
BRANCH   4  16
ATOM     16  C   UNL     1       1.567   9.498  18.412  0.00  0.00    +0.000 C 
ATOM     17  C   UNL     1       0.113   9.415  17.884  0.00  0.00    +0.000 C 
ATOM     18  C   UNL     1      -0.807  10.324  18.716  0.00  0.00    +0.000 C 
ATOM     19  C   UNL     1      -0.797   9.846  20.177  0.00  0.00    +0.000 C 
ATOM     20  C   UNL     1       0.631   9.911  20.738  0.00  0.00    +0.000 C 
ATOM     21  C   UNL     1       1.128  11.364  20.673  0.00  0.00    +0.000 C 
ATOM     22  C   UNL     1       1.139  11.850  19.217  0.00  0.00    +0.000 C 
ATOM     23  C   UNL     1      -0.284  11.769  18.638  0.00  0.00    +0.000 C 
ATOM     24  C   UNL     1       2.071  10.953  18.394  0.00  0.00    +0.000 C 
ATOM     25  C   UNL     1       1.556   9.019  19.889  0.00  0.00    +0.000 C 
ENDBRANCH   4  16
TORSDOF 2
ENDMDL
MODEL 8
REMARK VINA RESULT:      -7.8      0.082      2.186
REMARK  Name = 
REMARK  3 active torsions:
REMARK  status: ('A' for Active; 'I' for Inactive)
REMARK    1  A    between atoms: C_1  and  C_2
REMARK    2  A    between atoms: N_3  and  C_4
REMARK    3  A    between atoms: N_14  and  C_15
REMARK                            x       y       z     vdW  Elec       q    Type
REMARK                         _______ _______ _______ _____ _____    ______ ____
ROOT
ATOM      1  C   UNL     1       4.099   6.800  17.468  0.00  0.00    +0.000 C 
ATOM      2  C   UNL     1       2.740   7.248  17.950  0.00  0.00    +0.000 C 
ATOM      3  N   UNL     1       1.868   6.508  18.563  0.00  0.00    +0.000 NA
ATOM      4  N   UNL     1       2.458   8.568  17.678  0.00  0.00    +0.000 N 
ATOM      5  H   UNL     1       2.904   8.982  16.868  0.00  0.00    +0.000 HD
ENDROOT
BRANCH   3   6
ATOM      6  C   UNL     1       2.000   5.124  18.952  0.00  0.00    +0.000 C 
ATOM      7  C   UNL     1       1.882   4.207  17.715  0.00  0.00    +0.000 C 
ATOM      8  C   UNL     1       2.039   2.740  18.114  0.00  0.00    +0.000 C 
ATOM      9  C   UNL     1       3.453   2.530  18.663  0.00  0.00    +0.000 C 
ATOM     10  C   UNL     1       3.676   3.437  19.885  0.00  0.00    +0.000 C 
ATOM     11  C   UNL     1       2.670   3.035  20.973  0.00  0.00    +0.000 C 
ATOM     12  C   UNL     1       1.234   3.249  20.463  0.00  0.00    +0.000 C 
ATOM     13  C   UNL     1       0.997   2.407  19.195  0.00  0.00    +0.000 C 
ATOM     14  C   UNL     1       1.060   4.735  20.114  0.00  0.00    +0.000 C 
ATOM     15  C   UNL     1       3.453   4.915  19.485  0.00  0.00    +0.000 C 
ENDBRANCH   3   6
BRANCH   4  16
ATOM     16  C   UNL     1       1.594   9.448  18.461  0.00  0.00    +0.000 C 
ATOM     17  C   UNL     1       2.084  10.916  18.390  0.00  0.00    +0.000 C 
ATOM     18  C   UNL     1       1.152  11.828  19.205  0.00  0.00    +0.000 C 
ATOM     19  C   UNL     1      -0.262  11.763  18.607  0.00  0.00    +0.000 C 
ATOM     20  C   UNL     1      -0.785  10.320  18.658  0.00  0.00    +0.000 C 
ATOM     21  C   UNL     1      -0.828   9.854  20.122  0.00  0.00    +0.000 C 
ATOM     22  C   UNL     1       0.581   9.898  20.728  0.00  0.00    +0.000 C 
ATOM     23  C   UNL     1       1.124  11.336  20.663  0.00  0.00    +0.000 C 
ATOM     24  C   UNL     1       1.504   8.974  19.925  0.00  0.00    +0.000 C 
ATOM     25  C   UNL     1       0.163   9.404  17.861  0.00  0.00    +0.000 C 
ENDBRANCH   4  16
TORSDOF 2
ENDMDL
MODEL 9
REMARK VINA RESULT:      -7.7      0.089      2.191
REMARK  Name = 
REMARK  3 active torsions:
REMARK  status: ('A' for Active; 'I' for Inactive)
REMARK    1  A    between atoms: C_1  and  C_2
REMARK    2  A    between atoms: N_3  and  C_4
REMARK    3  A    between atoms: N_14  and  C_15
REMARK                            x       y       z     vdW  Elec       q    Type
REMARK                         _______ _______ _______ _____ _____    ______ ____
ROOT
ATOM      1  C   UNL     1       4.113   6.863  17.483  0.00  0.00    +0.000 C 
ATOM      2  C   UNL     1       2.740   7.301  17.937  0.00  0.00    +0.000 C 
ATOM      3  N   UNL     1       1.863   6.556  18.535  0.00  0.00    +0.000 NA
ATOM      4  N   UNL     1       2.454   8.618  17.654  0.00  0.00    +0.000 N 
ATOM      5  H   UNL     1       2.912   9.033  16.851  0.00  0.00    +0.000 HD
ENDROOT
BRANCH   3   6
ATOM      6  C   UNL     1       1.999   5.175  18.932  0.00  0.00    +0.000 C 
ATOM      7  C   UNL     1       1.878   4.250  17.702  0.00  0.00    +0.000 C 
ATOM      8  C   UNL     1       2.038   2.786  18.108  0.00  0.00    +0.000 C 
ATOM      9  C   UNL     1       3.455   2.582  18.653  0.00  0.00    +0.000 C 
ATOM     10  C   UNL     1       3.681   3.496  19.869  0.00  0.00    +0.000 C 
ATOM     11  C   UNL     1       2.680   3.100  20.963  0.00  0.00    +0.000 C 
ATOM     12  C   UNL     1       1.242   3.308  20.457  0.00  0.00    +0.000 C 
ATOM     13  C   UNL     1       1.001   2.458  19.195  0.00  0.00    +0.000 C 
ATOM     14  C   UNL     1       1.064   4.792  20.100  0.00  0.00    +0.000 C 
ATOM     15  C   UNL     1       3.454   4.972  19.461  0.00  0.00    +0.000 C 
ENDBRANCH   3   6
BRANCH   4  16
ATOM     16  C   UNL     1       1.567   9.494  18.417  0.00  0.00    +0.000 C 
ATOM     17  C   UNL     1       0.113   9.412  17.887  0.00  0.00    +0.000 C 
ATOM     18  C   UNL     1      -0.806  10.327  18.713  0.00  0.00    +0.000 C 
ATOM     19  C   UNL     1      -0.800   9.855  20.176  0.00  0.00    +0.000 C 
ATOM     20  C   UNL     1       0.627   9.919  20.740  0.00  0.00    +0.000 C 
ATOM     21  C   UNL     1       1.128  11.371  20.670  0.00  0.00    +0.000 C 
ATOM     22  C   UNL     1       1.143  11.851  19.212  0.00  0.00    +0.000 C 
ATOM     23  C   UNL     1      -0.279  11.770  18.629  0.00  0.00    +0.000 C 
ATOM     24  C   UNL     1       2.075  10.949  18.394  0.00  0.00    +0.000 C 
ATOM     25  C   UNL     1       1.552   9.022  19.896  0.00  0.00    +0.000 C 
ENDBRANCH   4  16
TORSDOF 2
ENDMDL
