MODEL 1
REMARK VINA RESULT:      -8.8      0.000      0.000
REMARK  Name = 
REMARK  9 active torsions:
REMARK  status: ('A' for Active; 'I' for Inactive)
REMARK    1  A    between atoms: C_1  and  C_2
REMARK    2  A    between atoms: C_2  and  O_3
REMARK    3  A    between atoms: O_3  and  C_4
REMARK    4  A    between atoms: C_7  and  C_9
REMARK    5  A    between atoms: C_9  and  C_22
REMARK    6  A    between atoms: N_10  and  N_11
REMARK    7  A    between atoms: N_11  and  C_12
REMARK    8  A    between atoms: C_16  and  C_17
REMARK    9  A    between atoms: C_22  and  C_23
REMARK                            x       y       z     vdW  Elec       q    Type
REMARK                         _______ _______ _______ _____ _____    ______ ____
ROOT
ATOM      1  C   UNL     1       6.491   4.225  15.873  0.00  0.00    +0.000 C 
ATOM      2  N   UNL     1       5.444   3.517  16.229  0.00  0.00    +0.000 NA
ENDROOT
BRANCH   1   6
ATOM      3  C   UNL     1       6.336   3.394  12.259  0.00  0.00    +0.000 C 
ATOM      4  O   UNL     1       6.695   4.345  11.578  0.00  0.00    +0.000 OA
ATOM      5  N   UNL     1       6.429   3.294  13.615  0.00  0.00    +0.000 N 
ATOM      6  C   UNL     1       6.776   4.369  14.397  0.00  0.00    +0.000 C 
ATOM      7  O   UNL     1       7.291   5.419  14.041  0.00  0.00    +0.000 OA
ATOM      8  H   UNL     1       6.021   2.479  14.052  0.00  0.00    +0.000 HD
BRANCH   3   9
ATOM      9  O   UNL     1       5.731   2.288  11.750  0.00  0.00    +0.000 OA
BRANCH   9  11
ATOM     10  C   UNL     1       6.126  -0.034  11.270  0.00  0.00    +0.000 C 
ATOM     11  C   UNL     1       6.621   1.386  11.060  0.00  0.00    +0.000 C 
ENDBRANCH   9  11
ENDBRANCH   3   9
ENDBRANCH   1   6
BRANCH   1  12
ATOM     12  C   UNL     1       7.424   4.887  16.888  0.00  0.00    +0.000 C 
ATOM     13  C   UNL     1       7.233   6.344  17.192  0.00  0.00    +0.000 C 
ATOM     14  O   UNL     1       8.275   4.204  17.457  0.00  0.00    +0.000 OA
ENDBRANCH   1  12
BRANCH   2  15
ATOM     15  N   UNL     1       5.243   3.403  17.576  0.00  0.00    +0.000 N 
ATOM     16  H   UNL     1       5.793   2.702  18.099  0.00  0.00    +0.000 HD
BRANCH  15  17
ATOM     17  C   UNL     1       3.969   3.577  18.154  0.00  0.00    +0.000 A 
ATOM     18  C   UNL     1       2.914   3.947  17.302  0.00  0.00    +0.000 A 
ATOM     19  C   UNL     1       1.603   4.044  17.765  0.00  0.00    +0.000 A 
ATOM     20  C   UNL     1       1.324   3.770  19.100  0.00  0.00    +0.000 A 
ATOM     21  C   UNL     1       2.353   3.398  19.977  0.00  0.00    +0.000 A 
ATOM     22  C   UNL     1       3.671   3.288  19.488  0.00  0.00    +0.000 A 
BRANCH  21  23
ATOM     23  C   UNL     1       2.058   3.117  21.429  0.00  0.00    +0.000 C 
ATOM     24  F   UNL     1       2.845   2.141  21.966  0.00  0.00    +0.000 F 
ATOM     25  F   UNL     1       2.234   4.212  22.220  0.00  0.00    +0.000 F 
ATOM     26  F   UNL     1       0.774   2.710  21.634  0.00  0.00    +0.000 F 
ENDBRANCH  21  23
ENDBRANCH  15  17
ENDBRANCH   2  15
TORSDOF 7
ENDMDL
MODEL 2
REMARK VINA RESULT:      -8.8      1.490      1.831
REMARK  Name = 
REMARK  9 active torsions:
REMARK  status: ('A' for Active; 'I' for Inactive)
REMARK    1  A    between atoms: C_1  and  C_2
REMARK    2  A    between atoms: C_2  and  O_3
REMARK    3  A    between atoms: O_3  and  C_4
REMARK    4  A    between atoms: C_7  and  C_9
REMARK    5  A    between atoms: C_9  and  C_22
REMARK    6  A    between atoms: N_10  and  N_11
REMARK    7  A    between atoms: N_11  and  C_12
REMARK    8  A    between atoms: C_16  and  C_17
REMARK    9  A    between atoms: C_22  and  C_23
REMARK                            x       y       z     vdW  Elec       q    Type
REMARK                         _______ _______ _______ _____ _____    ______ ____
ROOT
ATOM      1  C   UNL     1       6.176   5.093  15.669  0.00  0.00    +0.000 C 
ATOM      2  N   UNL     1       4.880   4.909  15.780  0.00  0.00    +0.000 NA
ENDROOT
BRANCH   1   6
ATOM      3  C   UNL     1       6.480   3.608  12.281  0.00  0.00    +0.000 C 
ATOM      4  O   UNL     1       7.390   4.135  11.656  0.00  0.00    +0.000 OA
ATOM      5  N   UNL     1       6.202   3.790  13.603  0.00  0.00    +0.000 N 
ATOM      6  C   UNL     1       6.825   4.763  14.346  0.00  0.00    +0.000 C 
ATOM      7  O   UNL     1       7.840   5.384  14.067  0.00  0.00    +0.000 OA
ATOM      8  H   UNL     1       5.370   3.348  13.970  0.00  0.00    +0.000 HD
BRANCH   3   9
ATOM      9  O   UNL     1       5.560   2.780  11.720  0.00  0.00    +0.000 OA
BRANCH   9  11
ATOM     10  C   UNL     1       3.637   3.462  10.450  0.00  0.00    +0.000 C 
ATOM     11  C   UNL     1       4.196   3.233  11.843  0.00  0.00    +0.000 C 
ENDBRANCH   9  11
ENDBRANCH   3   9
ENDBRANCH   1   6
BRANCH   1  12
ATOM     12  C   UNL     1       7.038   5.611  16.823  0.00  0.00    +0.000 C 
ATOM     13  C   UNL     1       7.675   4.612  17.744  0.00  0.00    +0.000 C 
ATOM     14  O   UNL     1       7.220   6.822  16.941  0.00  0.00    +0.000 OA
ENDBRANCH   1  12
BRANCH   2  15
ATOM     15  N   UNL     1       4.348   5.206  17.003  0.00  0.00    +0.000 N 
ATOM     16  H   UNL     1       4.846   5.882  17.606  0.00  0.00    +0.000 HD
BRANCH  15  17
ATOM     17  C   UNL     1       3.682   4.235  17.778  0.00  0.00    +0.000 A 
ATOM     18  C   UNL     1       3.862   2.887  17.426  0.00  0.00    +0.000 A 
ATOM     19  C   UNL     1       3.326   1.855  18.194  0.00  0.00    +0.000 A 
ATOM     20  C   UNL     1       2.594   2.158  19.337  0.00  0.00    +0.000 A 
ATOM     21  C   UNL     1       2.395   3.493  19.718  0.00  0.00    +0.000 A 
ATOM     22  C   UNL     1       2.959   4.524  18.939  0.00  0.00    +0.000 A 
BRANCH  21  23
ATOM     23  C   UNL     1       1.587   3.828  20.946  0.00  0.00    +0.000 C 
ATOM     24  F   UNL     1       0.700   2.854  21.298  0.00  0.00    +0.000 F 
ATOM     25  F   UNL     1       2.365   4.035  22.044  0.00  0.00    +0.000 F 
ATOM     26  F   UNL     1       0.847   4.962  20.793  0.00  0.00    +0.000 F 
ENDBRANCH  21  23
ENDBRANCH  15  17
ENDBRANCH   2  15
TORSDOF 7
ENDMDL
MODEL 3
REMARK VINA RESULT:      -8.7      1.327      1.606
REMARK  Name = 
REMARK  9 active torsions:
REMARK  status: ('A' for Active; 'I' for Inactive)
REMARK    1  A    between atoms: C_1  and  C_2
REMARK    2  A    between atoms: C_2  and  O_3
REMARK    3  A    between atoms: O_3  and  C_4
REMARK    4  A    between atoms: C_7  and  C_9
REMARK    5  A    between atoms: C_9  and  C_22
REMARK    6  A    between atoms: N_10  and  N_11
REMARK    7  A    between atoms: N_11  and  C_12
REMARK    8  A    between atoms: C_16  and  C_17
REMARK    9  A    between atoms: C_22  and  C_23
REMARK                            x       y       z     vdW  Elec       q    Type
REMARK                         _______ _______ _______ _____ _____    ______ ____
ROOT
ATOM      1  C   UNL     1       6.296   5.025  15.930  0.00  0.00    +0.000 C 
ATOM      2  N   UNL     1       4.985   5.012  16.011  0.00  0.00    +0.000 NA
ENDROOT
BRANCH   1   6
ATOM      3  C   UNL     1       6.574   3.710  12.470  0.00  0.00    +0.000 C 
ATOM      4  O   UNL     1       7.437   4.312  11.845  0.00  0.00    +0.000 OA
ATOM      5  N   UNL     1       6.327   3.818  13.806  0.00  0.00    +0.000 N 
ATOM      6  C   UNL     1       6.921   4.788  14.576  0.00  0.00    +0.000 C 
ATOM      7  O   UNL     1       7.895   5.474  14.298  0.00  0.00    +0.000 OA
ATOM      8  H   UNL     1       5.530   3.317  14.175  0.00  0.00    +0.000 HD
BRANCH   3   9
ATOM      9  O   UNL     1       5.682   2.860  11.897  0.00  0.00    +0.000 OA
BRANCH   9  11
ATOM     10  C   UNL     1       3.717   3.357  10.605  0.00  0.00    +0.000 C 
ATOM     11  C   UNL     1       4.306   3.280  12.002  0.00  0.00    +0.000 C 
ENDBRANCH   9  11
ENDBRANCH   3   9
ENDBRANCH   1   6
BRANCH   1  12
ATOM     12  C   UNL     1       7.196   5.255  17.146  0.00  0.00    +0.000 C 
ATOM     13  C   UNL     1       7.524   6.666  17.536  0.00  0.00    +0.000 C 
ATOM     14  O   UNL     1       7.593   4.286  17.792  0.00  0.00    +0.000 OA
ENDBRANCH   1  12
BRANCH   2  15
ATOM     15  N   UNL     1       4.473   5.212  17.262  0.00  0.00    +0.000 N 
ATOM     16  H   UNL     1       5.053   5.710  17.958  0.00  0.00    +0.000 HD
BRANCH  15  17
ATOM     17  C   UNL     1       3.646   4.257  17.887  0.00  0.00    +0.000 A 
ATOM     18  C   UNL     1       3.246   3.146  17.126  0.00  0.00    +0.000 A 
ATOM     19  C   UNL     1       2.513   2.103  17.689  0.00  0.00    +0.000 A 
ATOM     20  C   UNL     1       2.163   2.155  19.034  0.00  0.00    +0.000 A 
ATOM     21  C   UNL     1       2.546   3.250  19.823  0.00  0.00    +0.000 A 
ATOM     22  C   UNL     1       3.303   4.289  19.242  0.00  0.00    +0.000 A 
BRANCH  21  23
ATOM     23  C   UNL     1       2.155   3.321  21.278  0.00  0.00    +0.000 C 
ATOM     24  F   UNL     1       2.534   4.480  21.888  0.00  0.00    +0.000 F 
ATOM     25  F   UNL     1       0.809   3.227  21.463  0.00  0.00    +0.000 F 
ATOM     26  F   UNL     1       2.705   2.318  22.018  0.00  0.00    +0.000 F 
ENDBRANCH  21  23
ENDBRANCH  15  17
ENDBRANCH   2  15
TORSDOF 7
ENDMDL
MODEL 4
REMARK VINA RESULT:      -8.6      1.450      1.850
REMARK  Name = 
REMARK  9 active torsions:
REMARK  status: ('A' for Active; 'I' for Inactive)
REMARK    1  A    between atoms: C_1  and  C_2
REMARK    2  A    between atoms: C_2  and  O_3
REMARK    3  A    between atoms: O_3  and  C_4
REMARK    4  A    between atoms: C_7  and  C_9
REMARK    5  A    between atoms: C_9  and  C_22
REMARK    6  A    between atoms: N_10  and  N_11
REMARK    7  A    between atoms: N_11  and  C_12
REMARK    8  A    between atoms: C_16  and  C_17
REMARK    9  A    between atoms: C_22  and  C_23
REMARK                            x       y       z     vdW  Elec       q    Type
REMARK                         _______ _______ _______ _____ _____    ______ ____
ROOT
ATOM      1  C   UNL     1       6.364   4.794  15.994  0.00  0.00    +0.000 C 
ATOM      2  N   UNL     1       6.012   3.693  16.618  0.00  0.00    +0.000 NA
ENDROOT
BRANCH   1   6
ATOM      3  C   UNL     1       6.499   3.706  12.448  0.00  0.00    +0.000 C 
ATOM      4  O   UNL     1       7.305   4.377  11.818  0.00  0.00    +0.000 OA
ATOM      5  N   UNL     1       6.321   3.722  13.800  0.00  0.00    +0.000 N 
ATOM      6  C   UNL     1       6.922   4.666  14.597  0.00  0.00    +0.000 C 
ATOM      7  O   UNL     1       7.854   5.404  14.313  0.00  0.00    +0.000 OA
ATOM      8  H   UNL     1       5.564   3.169  14.177  0.00  0.00    +0.000 HD
BRANCH   3   9
ATOM      9  O   UNL     1       5.608   2.859  11.870  0.00  0.00    +0.000 OA
BRANCH   9  11
ATOM     10  C   UNL     1       3.676   3.395  10.544  0.00  0.00    +0.000 C 
ATOM     11  C   UNL     1       4.234   3.292  11.952  0.00  0.00    +0.000 C 
ENDBRANCH   9  11
ENDBRANCH   3   9
ENDBRANCH   1   6
BRANCH   1  12
ATOM     12  C   UNL     1       6.241   6.180  16.632  0.00  0.00    +0.000 C 
ATOM     13  C   UNL     1       4.970   6.950  16.429  0.00  0.00    +0.000 C 
ATOM     14  O   UNL     1       7.165   6.607  17.323  0.00  0.00    +0.000 OA
ENDBRANCH   1  12
BRANCH   2  15
ATOM     15  N   UNL     1       5.530   3.866  17.885  0.00  0.00    +0.000 N 
ATOM     16  H   UNL     1       6.183   3.762  18.679  0.00  0.00    +0.000 HD
BRANCH  15  17
ATOM     17  C   UNL     1       4.230   3.459  18.247  0.00  0.00    +0.000 A 
ATOM     18  C   UNL     1       3.615   2.471  17.460  0.00  0.00    +0.000 A 
ATOM     19  C   UNL     1       2.374   1.935  17.799  0.00  0.00    +0.000 A 
ATOM     20  C   UNL     1       1.721   2.385  18.942  0.00  0.00    +0.000 A 
ATOM     21  C   UNL     1       2.305   3.371  19.751  0.00  0.00    +0.000 A 
ATOM     22  C   UNL     1       3.570   3.889  19.402  0.00  0.00    +0.000 A 
BRANCH  21  23
ATOM     23  C   UNL     1       1.594   3.875  20.981  0.00  0.00    +0.000 C 
ATOM     24  F   UNL     1       0.723   4.893  20.728  0.00  0.00    +0.000 F 
ATOM     25  F   UNL     1       0.863   2.905  21.597  0.00  0.00    +0.000 F 
ATOM     26  F   UNL     1       2.454   4.352  21.925  0.00  0.00    +0.000 F 
ENDBRANCH  21  23
ENDBRANCH  15  17
ENDBRANCH   2  15
TORSDOF 7
ENDMDL
MODEL 5
REMARK VINA RESULT:      -8.5      0.890      1.191
REMARK  Name = 
REMARK  9 active torsions:
REMARK  status: ('A' for Active; 'I' for Inactive)
REMARK    1  A    between atoms: C_1  and  C_2
REMARK    2  A    between atoms: C_2  and  O_3
REMARK    3  A    between atoms: O_3  and  C_4
REMARK    4  A    between atoms: C_7  and  C_9
REMARK    5  A    between atoms: C_9  and  C_22
REMARK    6  A    between atoms: N_10  and  N_11
REMARK    7  A    between atoms: N_11  and  C_12
REMARK    8  A    between atoms: C_16  and  C_17
REMARK    9  A    between atoms: C_22  and  C_23
REMARK                            x       y       z     vdW  Elec       q    Type
REMARK                         _______ _______ _______ _____ _____    ______ ____
ROOT
ATOM      1  C   UNL     1       6.227   5.006  15.964  0.00  0.00    +0.000 C 
ATOM      2  N   UNL     1       4.920   4.926  16.069  0.00  0.00    +0.000 NA
ENDROOT
BRANCH   1   6
ATOM      3  C   UNL     1       6.600   3.543  12.573  0.00  0.00    +0.000 C 
ATOM      4  O   UNL     1       7.340   4.230  11.882  0.00  0.00    +0.000 OA
ATOM      5  N   UNL     1       6.379   3.692  13.910  0.00  0.00    +0.000 N 
ATOM      6  C   UNL     1       6.840   4.786  14.601  0.00  0.00    +0.000 C 
ATOM      7  O   UNL     1       7.686   5.594  14.248  0.00  0.00    +0.000 OA
ATOM      8  H   UNL     1       5.681   3.098  14.337  0.00  0.00    +0.000 HD
BRANCH   3   9
ATOM      9  O   UNL     1       5.833   2.533  12.083  0.00  0.00    +0.000 OA
BRANCH   9  11
ATOM     10  C   UNL     1       5.996   0.289  11.240  0.00  0.00    +0.000 C 
ATOM     11  C   UNL     1       6.486   1.717  11.088  0.00  0.00    +0.000 C 
ENDBRANCH   9  11
ENDBRANCH   3   9
ENDBRANCH   1   6
BRANCH   1  12
ATOM     12  C   UNL     1       7.135   5.296  17.161  0.00  0.00    +0.000 C 
ATOM     13  C   UNL     1       7.428   6.726  17.507  0.00  0.00    +0.000 C 
ATOM     14  O   UNL     1       7.566   4.357  17.829  0.00  0.00    +0.000 OA
ENDBRANCH   1  12
BRANCH   2  15
ATOM     15  N   UNL     1       4.420   5.115  17.326  0.00  0.00    +0.000 N 
ATOM     16  H   UNL     1       5.015   5.585  18.028  0.00  0.00    +0.000 HD
BRANCH  15  17
ATOM     17  C   UNL     1       3.574   4.167  17.939  0.00  0.00    +0.000 A 
ATOM     18  C   UNL     1       3.100   3.110  17.144  0.00  0.00    +0.000 A 
ATOM     19  C   UNL     1       2.342   2.074  17.686  0.00  0.00    +0.000 A 
ATOM     20  C   UNL     1       2.043   2.078  19.045  0.00  0.00    +0.000 A 
ATOM     21  C   UNL     1       2.501   3.118  19.867  0.00  0.00    +0.000 A 
ATOM     22  C   UNL     1       3.281   4.150  19.305  0.00  0.00    +0.000 A 
BRANCH  21  23
ATOM     23  C   UNL     1       2.165   3.138  21.337  0.00  0.00    +0.000 C 
ATOM     24  F   UNL     1       0.868   2.812  21.604  0.00  0.00    +0.000 F 
ATOM     25  F   UNL     1       2.923   2.267  22.059  0.00  0.00    +0.000 F 
ATOM     26  F   UNL     1       2.362   4.362  21.903  0.00  0.00    +0.000 F 
ENDBRANCH  21  23
ENDBRANCH  15  17
ENDBRANCH   2  15
TORSDOF 7
ENDMDL
MODEL 6
REMARK VINA RESULT:      -8.5      1.482      1.713
REMARK  Name = 
REMARK  9 active torsions:
REMARK  status: ('A' for Active; 'I' for Inactive)
REMARK    1  A    between atoms: C_1  and  C_2
REMARK    2  A    between atoms: C_2  and  O_3
REMARK    3  A    between atoms: O_3  and  C_4
REMARK    4  A    between atoms: C_7  and  C_9
REMARK    5  A    between atoms: C_9  and  C_22
REMARK    6  A    between atoms: N_10  and  N_11
REMARK    7  A    between atoms: N_11  and  C_12
REMARK    8  A    between atoms: C_16  and  C_17
REMARK    9  A    between atoms: C_22  and  C_23
REMARK                            x       y       z     vdW  Elec       q    Type
REMARK                         _______ _______ _______ _____ _____    ______ ____
ROOT
ATOM      1  C   UNL     1       6.310   4.835  15.967  0.00  0.00    +0.000 C 
ATOM      2  N   UNL     1       5.957   3.753  16.623  0.00  0.00    +0.000 NA
ENDROOT
BRANCH   1   6
ATOM      3  C   UNL     1       6.470   3.704  12.436  0.00  0.00    +0.000 C 
ATOM      4  O   UNL     1       7.322   4.328  11.818  0.00  0.00    +0.000 OA
ATOM      5  N   UNL     1       6.263   3.743  13.783  0.00  0.00    +0.000 N 
ATOM      6  C   UNL     1       6.892   4.664  14.585  0.00  0.00    +0.000 C 
ATOM      7  O   UNL     1       7.865   5.353  14.314  0.00  0.00    +0.000 OA
ATOM      8  H   UNL     1       5.471   3.232  14.148  0.00  0.00    +0.000 HD
BRANCH   3   9
ATOM      9  O   UNL     1       5.550   2.896  11.845  0.00  0.00    +0.000 OA
BRANCH   9  11
ATOM     10  C   UNL     1       3.518   3.062  10.572  0.00  0.00    +0.000 C 
ATOM     11  C   UNL     1       4.199   3.399  11.887  0.00  0.00    +0.000 C 
ENDBRANCH   9  11
ENDBRANCH   3   9
ENDBRANCH   1   6
BRANCH   1  12
ATOM     12  C   UNL     1       6.164   6.241  16.554  0.00  0.00    +0.000 C 
ATOM     13  C   UNL     1       7.345   6.853  17.248  0.00  0.00    +0.000 C 
ATOM     14  O   UNL     1       5.102   6.846  16.408  0.00  0.00    +0.000 OA
ENDBRANCH   1  12
BRANCH   2  15
ATOM     15  N   UNL     1       5.454   3.964  17.875  0.00  0.00    +0.000 N 
ATOM     16  H   UNL     1       6.105   3.947  18.678  0.00  0.00    +0.000 HD
BRANCH  15  17
ATOM     17  C   UNL     1       4.179   3.495  18.252  0.00  0.00    +0.000 A 
ATOM     18  C   UNL     1       3.584   2.510  17.444  0.00  0.00    +0.000 A 
ATOM     19  C   UNL     1       2.373   1.916  17.793  0.00  0.00    +0.000 A 
ATOM     20  C   UNL     1       1.731   2.300  18.965  0.00  0.00    +0.000 A 
ATOM     21  C   UNL     1       2.296   3.279  19.795  0.00  0.00    +0.000 A 
ATOM     22  C   UNL     1       3.531   3.859  19.436  0.00  0.00    +0.000 A 
BRANCH  21  23
ATOM     23  C   UNL     1       1.596   3.712  21.058  0.00  0.00    +0.000 C 
ATOM     24  F   UNL     1       2.423   3.798  22.138  0.00  0.00    +0.000 F 
ATOM     25  F   UNL     1       1.012   4.937  20.939  0.00  0.00    +0.000 F 
ATOM     26  F   UNL     1       0.599   2.858  21.424  0.00  0.00    +0.000 F 
ENDBRANCH  21  23
ENDBRANCH  15  17
ENDBRANCH   2  15
TORSDOF 7
ENDMDL
MODEL 7
REMARK VINA RESULT:      -8.4      1.269      1.665
REMARK  Name = 
REMARK  9 active torsions:
REMARK  status: ('A' for Active; 'I' for Inactive)
REMARK    1  A    between atoms: C_1  and  C_2
REMARK    2  A    between atoms: C_2  and  O_3
REMARK    3  A    between atoms: O_3  and  C_4
REMARK    4  A    between atoms: C_7  and  C_9
REMARK    5  A    between atoms: C_9  and  C_22
REMARK    6  A    between atoms: N_10  and  N_11
REMARK    7  A    between atoms: N_11  and  C_12
REMARK    8  A    between atoms: C_16  and  C_17
REMARK    9  A    between atoms: C_22  and  C_23
REMARK                            x       y       z     vdW  Elec       q    Type
REMARK                         _______ _______ _______ _____ _____    ______ ____
ROOT
ATOM      1  C   UNL     1       6.154   5.078  15.547  0.00  0.00    +0.000 C 
ATOM      2  N   UNL     1       4.861   4.872  15.654  0.00  0.00    +0.000 NA
ENDROOT
BRANCH   1   6
ATOM      3  C   UNL     1       6.610   3.388  12.274  0.00  0.00    +0.000 C 
ATOM      4  O   UNL     1       7.407   4.000  11.576  0.00  0.00    +0.000 OA
ATOM      5  N   UNL     1       6.339   3.631  13.588  0.00  0.00    +0.000 N 
ATOM      6  C   UNL     1       6.815   4.748  14.230  0.00  0.00    +0.000 C 
ATOM      7  O   UNL     1       7.709   5.498  13.866  0.00  0.00    +0.000 OA
ATOM      8  H   UNL     1       5.599   3.094  14.019  0.00  0.00    +0.000 HD
BRANCH   3   9
ATOM      9  O   UNL     1       5.823   2.380  11.814  0.00  0.00    +0.000 OA
BRANCH   9  11
ATOM     10  C   UNL     1       6.154   0.045  11.351  0.00  0.00    +0.000 C 
ATOM     11  C   UNL     1       6.490   1.462  10.923  0.00  0.00    +0.000 C 
ENDBRANCH   9  11
ENDBRANCH   3   9
ENDBRANCH   1   6
BRANCH   1  12
ATOM     12  C   UNL     1       7.002   5.621  16.700  0.00  0.00    +0.000 C 
ATOM     13  C   UNL     1       7.666   4.642  17.623  0.00  0.00    +0.000 C 
ATOM     14  O   UNL     1       7.150   6.837  16.816  0.00  0.00    +0.000 OA
ENDBRANCH   1  12
BRANCH   2  15
ATOM     15  N   UNL     1       4.319   5.169  16.872  0.00  0.00    +0.000 N 
ATOM     16  H   UNL     1       4.812   5.844  17.480  0.00  0.00    +0.000 HD
BRANCH  15  17
ATOM     17  C   UNL     1       3.644   4.199  17.642  0.00  0.00    +0.000 A 
ATOM     18  C   UNL     1       3.989   2.853  17.436  0.00  0.00    +0.000 A 
ATOM     19  C   UNL     1       3.449   1.835  18.220  0.00  0.00    +0.000 A 
ATOM     20  C   UNL     1       2.547   2.150  19.231  0.00  0.00    +0.000 A 
ATOM     21  C   UNL     1       2.181   3.484  19.463  0.00  0.00    +0.000 A 
ATOM     22  C   UNL     1       2.751   4.504  18.672  0.00  0.00    +0.000 A 
BRANCH  21  23
ATOM     23  C   UNL     1       1.191   3.830  20.546  0.00  0.00    +0.000 C 
ATOM     24  F   UNL     1       1.188   5.152  20.879  0.00  0.00    +0.000 F 
ATOM     25  F   UNL     1      -0.092   3.533  20.197  0.00  0.00    +0.000 F 
ATOM     26  F   UNL     1       1.427   3.158  21.707  0.00  0.00    +0.000 F 
ENDBRANCH  21  23
ENDBRANCH  15  17
ENDBRANCH   2  15
TORSDOF 7
ENDMDL
MODEL 8
REMARK VINA RESULT:      -8.3      0.808      1.008
REMARK  Name = 
REMARK  9 active torsions:
REMARK  status: ('A' for Active; 'I' for Inactive)
REMARK    1  A    between atoms: C_1  and  C_2
REMARK    2  A    between atoms: C_2  and  O_3
REMARK    3  A    between atoms: O_3  and  C_4
REMARK    4  A    between atoms: C_7  and  C_9
REMARK    5  A    between atoms: C_9  and  C_22
REMARK    6  A    between atoms: N_10  and  N_11
REMARK    7  A    between atoms: N_11  and  C_12
REMARK    8  A    between atoms: C_16  and  C_17
REMARK    9  A    between atoms: C_22  and  C_23
REMARK                            x       y       z     vdW  Elec       q    Type
REMARK                         _______ _______ _______ _____ _____    ______ ____
ROOT
ATOM      1  C   UNL     1       6.561   4.264  16.068  0.00  0.00    +0.000 C 
ATOM      2  N   UNL     1       5.478   3.602  16.405  0.00  0.00    +0.000 NA
ENDROOT
BRANCH   1   6
ATOM      3  C   UNL     1       6.392   3.474  12.445  0.00  0.00    +0.000 C 
ATOM      4  O   UNL     1       6.836   4.399  11.777  0.00  0.00    +0.000 OA
ATOM      5  N   UNL     1       6.458   3.358  13.802  0.00  0.00    +0.000 N 
ATOM      6  C   UNL     1       6.878   4.396  14.597  0.00  0.00    +0.000 C 
ATOM      7  O   UNL     1       7.480   5.404  14.258  0.00  0.00    +0.000 OA
ATOM      8  H   UNL     1       5.980   2.575  14.227  0.00  0.00    +0.000 HD
BRANCH   3   9
ATOM      9  O   UNL     1       5.709   2.424  11.918  0.00  0.00    +0.000 OA
BRANCH   9  11
ATOM     10  C   UNL     1       3.596   3.428  11.368  0.00  0.00    +0.000 C 
ATOM     11  C   UNL     1       4.846   2.767  10.815  0.00  0.00    +0.000 C 
ENDBRANCH   9  11
ENDBRANCH   3   9
ENDBRANCH   1   6
BRANCH   1  12
ATOM     12  C   UNL     1       7.503   4.886  17.100  0.00  0.00    +0.000 C 
ATOM     13  C   UNL     1       7.350   6.343  17.424  0.00  0.00    +0.000 C 
ATOM     14  O   UNL     1       8.331   4.172  17.665  0.00  0.00    +0.000 OA
ENDBRANCH   1  12
BRANCH   2  15
ATOM     15  N   UNL     1       5.249   3.498  17.748  0.00  0.00    +0.000 N 
ATOM     16  H   UNL     1       5.819   2.832  18.295  0.00  0.00    +0.000 HD
BRANCH  15  17
ATOM     17  C   UNL     1       3.953   3.616  18.291  0.00  0.00    +0.000 A 
ATOM     18  C   UNL     1       2.911   3.969  17.416  0.00  0.00    +0.000 A 
ATOM     19  C   UNL     1       1.585   4.011  17.842  0.00  0.00    +0.000 A 
ATOM     20  C   UNL     1       1.276   3.698  19.162  0.00  0.00    +0.000 A 
ATOM     21  C   UNL     1       2.291   3.341  20.062  0.00  0.00    +0.000 A 
ATOM     22  C   UNL     1       3.626   3.287  19.610  0.00  0.00    +0.000 A 
BRANCH  21  23
ATOM     23  C   UNL     1       1.965   3.018  21.498  0.00  0.00    +0.000 C 
ATOM     24  F   UNL     1       2.656   1.949  21.987  0.00  0.00    +0.000 F 
ATOM     25  F   UNL     1       2.236   4.052  22.342  0.00  0.00    +0.000 F 
ATOM     26  F   UNL     1       0.648   2.721  21.682  0.00  0.00    +0.000 F 
ENDBRANCH  21  23
ENDBRANCH  15  17
ENDBRANCH   2  15
TORSDOF 7
ENDMDL
MODEL 9
REMARK VINA RESULT:      -8.3      2.163      2.549
REMARK  Name = 
REMARK  9 active torsions:
REMARK  status: ('A' for Active; 'I' for Inactive)
REMARK    1  A    between atoms: C_1  and  C_2
REMARK    2  A    between atoms: C_2  and  O_3
REMARK    3  A    between atoms: O_3  and  C_4
REMARK    4  A    between atoms: C_7  and  C_9
REMARK    5  A    between atoms: C_9  and  C_22
REMARK    6  A    between atoms: N_10  and  N_11
REMARK    7  A    between atoms: N_11  and  C_12
REMARK    8  A    between atoms: C_16  and  C_17
REMARK    9  A    between atoms: C_22  and  C_23
REMARK                            x       y       z     vdW  Elec       q    Type
REMARK                         _______ _______ _______ _____ _____    ______ ____
ROOT
ATOM      1  C   UNL     1       5.971   5.765  16.321  0.00  0.00    +0.000 C 
ATOM      2  N   UNL     1       4.676   5.736  16.540  0.00  0.00    +0.000 NA
ENDROOT
BRANCH   1   6
ATOM      3  C   UNL     1       5.812   3.872  13.133  0.00  0.00    +0.000 C 
ATOM      4  O   UNL     1       6.851   3.999  12.500  0.00  0.00    +0.000 OA
ATOM      5  N   UNL     1       5.594   4.289  14.413  0.00  0.00    +0.000 N 
ATOM      6  C   UNL     1       6.491   5.089  15.076  0.00  0.00    +0.000 C 
ATOM      7  O   UNL     1       7.657   5.312  14.781  0.00  0.00    +0.000 OA
ATOM      8  H   UNL     1       4.659   4.186  14.784  0.00  0.00    +0.000 HD
BRANCH   3   9
ATOM      9  O   UNL     1       4.679   3.324  12.620  0.00  0.00    +0.000 OA
BRANCH   9  11
ATOM     10  C   UNL     1       3.449   3.368  10.556  0.00  0.00    +0.000 C 
ATOM     11  C   UNL     1       4.759   2.987  11.220  0.00  0.00    +0.000 C 
ENDBRANCH   9  11
ENDBRANCH   3   9
ENDBRANCH   1   6
BRANCH   1  12
ATOM     12  C   UNL     1       6.955   6.439  17.280  0.00  0.00    +0.000 C 
ATOM     13  C   UNL     1       7.593   5.607  18.353  0.00  0.00    +0.000 C 
ATOM     14  O   UNL     1       7.229   7.628  17.122  0.00  0.00    +0.000 OA
ENDBRANCH   1  12
BRANCH   2  15
ATOM     15  N   UNL     1       4.262   6.347  17.690  0.00  0.00    +0.000 N 
ATOM     16  H   UNL     1       4.937   6.932  18.208  0.00  0.00    +0.000 HD
BRANCH  15  17
ATOM     17  C   UNL     1       3.352   5.729  18.572  0.00  0.00    +0.000 A 
ATOM     18  C   UNL     1       2.820   6.512  19.611  0.00  0.00    +0.000 A 
ATOM     19  C   UNL     1       1.839   6.017  20.468  0.00  0.00    +0.000 A 
ATOM     20  C   UNL     1       1.371   4.718  20.300  0.00  0.00    +0.000 A 
ATOM     21  C   UNL     1       1.880   3.908  19.273  0.00  0.00    +0.000 A 
ATOM     22  C   UNL     1       2.860   4.431  18.404  0.00  0.00    +0.000 A 
BRANCH  21  23
ATOM     23  C   UNL     1       1.390   2.494  19.097  0.00  0.00    +0.000 C 
ATOM     24  F   UNL     1       0.034   2.396  18.995  0.00  0.00    +0.000 F 
ATOM     25  F   UNL     1       1.890   1.902  17.977  0.00  0.00    +0.000 F 
ATOM     26  F   UNL     1       1.740   1.684  20.136  0.00  0.00    +0.000 F 
ENDBRANCH  21  23
ENDBRANCH  15  17
ENDBRANCH   2  15
TORSDOF 7
ENDMDL
