MODEL 1
REMARK VINA RESULT:      -8.2      0.000      0.000
REMARK  Name = 
REMARK  2 active torsions:
REMARK  status: ('A' for Active; 'I' for Inactive)
REMARK    1  A    between atoms: C_1  and  N_2
REMARK    2  A    between atoms: C_4  and  C_5
REMARK                            x       y       z     vdW  Elec       q    Type
REMARK                         _______ _______ _______ _____ _____    ______ ____
ROOT
ATOM      1  C   UNL     1      11.174  15.899  16.868  0.00  0.00    +0.000 C 
ATOM      2  N   UNL     1      10.038  15.772  17.752  0.00  0.00    +0.000 NA
ATOM      3  C   UNL     1       9.105  16.865  17.786  0.00  0.00    +0.000 C 
ATOM      4  C   UNL     1       8.523  16.924  19.197  0.00  0.00    +0.000 C 
ATOM      5  C   UNL     1       9.026  15.707  20.062  0.00  0.00    +0.000 C 
ATOM      6  C   UNL     1       8.094  14.519  20.401  0.00  0.00    +0.000 C 
ATOM      7  C   UNL     1       8.895  13.582  21.368  0.00  0.00    +0.000 C 
ATOM      8  C   UNL     1       8.803  14.242  22.682  0.00  0.00    +0.000 A 
ATOM      9  C   UNL     1       8.556  15.580  22.734  0.00  0.00    +0.000 A 
ATOM     10  N   UNL     1       7.385  15.592  23.541  0.00  0.00    +0.000 N 
ATOM     11  C   UNL     1       7.130  14.269  24.017  0.00  0.00    +0.000 A 
ATOM     12  C   UNL     1       6.001  13.554  24.478  0.00  0.00    +0.000 A 
ATOM     13  C   UNL     1       6.123  12.148  24.599  0.00  0.00    +0.000 A 
ATOM     14  C   UNL     1       7.332  11.478  24.397  0.00  0.00    +0.000 A 
ATOM     15  C   UNL     1       8.461  12.204  24.072  0.00  0.00    +0.000 A 
ATOM     16  C   UNL     1       8.316  13.574  23.804  0.00  0.00    +0.000 A 
ATOM     17  C   UNL     1       9.089  16.427  21.598  0.00  0.00    +0.000 C 
ATOM     18  O   UNL     1       9.456  17.573  21.796  0.00  0.00    +0.000 OA
ATOM     19  C   UNL     1      10.146  15.072  19.043  0.00  0.00    +0.000 C 
ATOM     20  C   UNL     1      11.597  15.005  19.621  0.00  0.00    +0.000 C 
ATOM     21  O   UNL     1      12.277  15.935  20.029  0.00  0.00    +0.000 OA
ATOM     22  N   UNL     1      12.017  13.666  19.593  0.00  0.00    +0.000 N 
ATOM     23  C   UNL     1      11.026  12.815  19.092  0.00  0.00    +0.000 A 
ATOM     24  C   UNL     1      10.999  11.435  19.139  0.00  0.00    +0.000 A 
ATOM     25  C   UNL     1       9.813  10.800  18.737  0.00  0.00    +0.000 A 
ATOM     26  C   UNL     1       8.773  11.540  18.160  0.00  0.00    +0.000 A 
ATOM     27  C   UNL     1       8.892  12.922  18.011  0.00  0.00    +0.000 A 
ATOM     28  C   UNL     1       9.967  13.569  18.633  0.00  0.00    +0.000 A 
ATOM     29  H   UNL     1       6.676  16.314  23.526  0.00  0.00    +0.000 HD
ATOM     30  H   UNL     1      12.914  13.364  19.937  0.00  0.00    +0.000 HD
ENDROOT
BRANCH   4  31
ATOM     31  C   UNL     1       7.036  17.133  19.300  0.00  0.00    +0.000 A 
ATOM     32  C   UNL     1       6.153  16.342  18.557  0.00  0.00    +0.000 A 
ATOM     33  C   UNL     1       4.806  16.293  18.904  0.00  0.00    +0.000 A 
ATOM     34  C   UNL     1       4.331  17.090  19.940  0.00  0.00    +0.000 A 
ATOM     35 CL   UNL     1       2.689  16.951  20.433  0.00  0.00    +0.000 Cl
ATOM     36  C   UNL     1       5.180  17.964  20.615  0.00  0.00    +0.000 A 
ATOM     37  C   UNL     1       6.534  17.985  20.296  0.00  0.00    +0.000 A 
ENDBRANCH   4  31
TORSDOF 1
ENDMDL
MODEL 2
REMARK VINA RESULT:      -8.1      0.823      1.234
REMARK  Name = 
REMARK  2 active torsions:
REMARK  status: ('A' for Active; 'I' for Inactive)
REMARK    1  A    between atoms: C_1  and  N_2
REMARK    2  A    between atoms: C_4  and  C_5
REMARK                            x       y       z     vdW  Elec       q    Type
REMARK                         _______ _______ _______ _____ _____    ______ ____
ROOT
ATOM      1  C   UNL     1      10.779  16.020  16.969  0.00  0.00    +0.000 C 
ATOM      2  N   UNL     1       9.654  15.675  17.809  0.00  0.00    +0.000 NA
ATOM      3  C   UNL     1       8.465  16.473  17.675  0.00  0.00    +0.000 C 
ATOM      4  C   UNL     1       7.784  16.509  19.042  0.00  0.00    +0.000 C 
ATOM      5  C   UNL     1       8.525  15.563  20.062  0.00  0.00    +0.000 C 
ATOM      6  C   UNL     1       7.919  14.206  20.492  0.00  0.00    +0.000 C 
ATOM      7  C   UNL     1       8.865  13.620  21.595  0.00  0.00    +0.000 C 
ATOM      8  C   UNL     1       8.504  14.355  22.819  0.00  0.00    +0.000 A 
ATOM      9  C   UNL     1       7.908  15.574  22.707  0.00  0.00    +0.000 A 
ATOM     10  N   UNL     1       6.718  15.346  23.453  0.00  0.00    +0.000 N 
ATOM     11  C   UNL     1       6.788  14.057  24.065  0.00  0.00    +0.000 A 
ATOM     12  C   UNL     1       5.858  13.111  24.552  0.00  0.00    +0.000 A 
ATOM     13  C   UNL     1       6.339  11.809  24.837  0.00  0.00    +0.000 A 
ATOM     14  C   UNL     1       7.693  11.476  24.768  0.00  0.00    +0.000 A 
ATOM     15  C   UNL     1       8.610  12.446  24.415  0.00  0.00    +0.000 A 
ATOM     16  C   UNL     1       8.128  13.692  23.986  0.00  0.00    +0.000 A 
ATOM     17  C   UNL     1       8.281  16.419  21.509  0.00  0.00    +0.000 C 
ATOM     18  O   UNL     1       8.315  17.635  21.591  0.00  0.00    +0.000 OA
ATOM     19  C   UNL     1       9.847  15.160  19.175  0.00  0.00    +0.000 C 
ATOM     20  C   UNL     1      11.216  15.546  19.822  0.00  0.00    +0.000 C 
ATOM     21  O   UNL     1      11.593  16.660  20.153  0.00  0.00    +0.000 OA
ATOM     22  N   UNL     1      11.976  14.375  19.967  0.00  0.00    +0.000 N 
ATOM     23  C   UNL     1      11.287  13.243  19.521  0.00  0.00    +0.000 A 
ATOM     24  C   UNL     1      11.622  11.918  19.723  0.00  0.00    +0.000 A 
ATOM     25  C   UNL     1      10.681  10.949  19.342  0.00  0.00    +0.000 A 
ATOM     26  C   UNL     1       9.528  11.320  18.638  0.00  0.00    +0.000 A 
ATOM     27  C   UNL     1       9.287  12.661  18.338  0.00  0.00    +0.000 A 
ATOM     28  C   UNL     1      10.103  13.633  18.931  0.00  0.00    +0.000 A 
ATOM     29  H   UNL     1       5.847  15.844  23.324  0.00  0.00    +0.000 HD
ATOM     30  H   UNL     1      12.893  14.363  20.384  0.00  0.00    +0.000 HD
ENDROOT
BRANCH   4  31
ATOM     31  C   UNL     1       6.292  16.315  19.053  0.00  0.00    +0.000 A 
ATOM     32  C   UNL     1       5.468  17.173  19.791  0.00  0.00    +0.000 A 
ATOM     33  C   UNL     1       4.102  17.216  19.531  0.00  0.00    +0.000 A 
ATOM     34  C   UNL     1       3.550  16.351  18.593  0.00  0.00    +0.000 A 
ATOM     35 CL   UNL     1       1.880  16.477  18.200  0.00  0.00    +0.000 Cl
ATOM     36  C   UNL     1       4.344  15.415  17.931  0.00  0.00    +0.000 A 
ATOM     37  C   UNL     1       5.715  15.399  18.161  0.00  0.00    +0.000 A 
ENDBRANCH   4  31
TORSDOF 1
ENDMDL
MODEL 3
REMARK VINA RESULT:      -7.9     10.615     14.123
REMARK  Name = 
REMARK  2 active torsions:
REMARK  status: ('A' for Active; 'I' for Inactive)
REMARK    1  A    between atoms: C_1  and  N_2
REMARK    2  A    between atoms: C_4  and  C_5
REMARK                            x       y       z     vdW  Elec       q    Type
REMARK                         _______ _______ _______ _____ _____    ______ ____
ROOT
ATOM      1  C   UNL     1      -7.875  14.880  24.044  0.00  0.00    +0.000 C 
ATOM      2  N   UNL     1      -7.036  14.928  22.868  0.00  0.00    +0.000 NA
ATOM      3  C   UNL     1      -7.695  14.992  21.593  0.00  0.00    +0.000 C 
ATOM      4  C   UNL     1      -6.804  14.273  20.582  0.00  0.00    +0.000 C 
ATOM      5  C   UNL     1      -5.438  13.848  21.243  0.00  0.00    +0.000 C 
ATOM      6  C   UNL     1      -4.122  14.598  20.928  0.00  0.00    +0.000 C 
ATOM      7  C   UNL     1      -2.975  13.820  21.660  0.00  0.00    +0.000 C 
ATOM      8  C   UNL     1      -2.710  12.656  20.797  0.00  0.00    +0.000 A 
ATOM      9  C   UNL     1      -3.686  12.224  19.950  0.00  0.00    +0.000 A 
ATOM     10  N   UNL     1      -2.995  12.292  18.708  0.00  0.00    +0.000 N 
ATOM     11  C   UNL     1      -1.624  12.617  18.952  0.00  0.00    +0.000 A 
ATOM     12  C   UNL     1      -0.571  13.201  18.212  0.00  0.00    +0.000 A 
ATOM     13  C   UNL     1       0.584  13.605  18.927  0.00  0.00    +0.000 A 
ATOM     14  C   UNL     1       0.757  13.339  20.287  0.00  0.00    +0.000 A 
ATOM     15  C   UNL     1      -0.226  12.651  20.972  0.00  0.00    +0.000 A 
ATOM     16  C   UNL     1      -1.433  12.382  20.309  0.00  0.00    +0.000 A 
ATOM     17  C   UNL     1      -5.120  12.411  20.395  0.00  0.00    +0.000 C 
ATOM     18  O   UNL     1      -5.979  11.605  20.080  0.00  0.00    +0.000 OA
ATOM     19  C   UNL     1      -5.752  14.210  22.813  0.00  0.00    +0.000 C 
ATOM     20  C   UNL     1      -5.645  13.003  23.800  0.00  0.00    +0.000 C 
ATOM     21  O   UNL     1      -6.272  11.955  23.761  0.00  0.00    +0.000 OA
ATOM     22  N   UNL     1      -4.688  13.320  24.777  0.00  0.00    +0.000 N 
ATOM     23  C   UNL     1      -4.117  14.578  24.563  0.00  0.00    +0.000 A 
ATOM     24  C   UNL     1      -2.997  15.110  25.173  0.00  0.00    +0.000 A 
ATOM     25  C   UNL     1      -2.499  16.320  24.664  0.00  0.00    +0.000 A 
ATOM     26  C   UNL     1      -3.216  17.028  23.691  0.00  0.00    +0.000 A 
ATOM     27  C   UNL     1      -4.416  16.518  23.191  0.00  0.00    +0.000 A 
ATOM     28  C   UNL     1      -4.772  15.206  23.525  0.00  0.00    +0.000 A 
ATOM     29  H   UNL     1      -3.433  12.413  17.805  0.00  0.00    +0.000 HD
ATOM     30  H   UNL     1      -4.425  12.687  25.515  0.00  0.00    +0.000 HD
ENDROOT
BRANCH   4  31
ATOM     31  C   UNL     1      -6.617  14.950  19.251  0.00  0.00    +0.000 A 
ATOM     32  C   UNL     1      -6.841  14.250  18.060  0.00  0.00    +0.000 A 
ATOM     33  C   UNL     1      -7.008  14.948  16.867  0.00  0.00    +0.000 A 
ATOM     34  C   UNL     1      -6.877  16.332  16.853  0.00  0.00    +0.000 A 
ATOM     35 CL   UNL     1      -7.185  17.201  15.400  0.00  0.00    +0.000 Cl
ATOM     36  C   UNL     1      -6.545  17.030  18.013  0.00  0.00    +0.000 A 
ATOM     37  C   UNL     1      -6.417  16.338  19.213  0.00  0.00    +0.000 A 
ENDBRANCH   4  31
TORSDOF 1
ENDMDL
MODEL 4
REMARK VINA RESULT:      -7.3     10.609     13.851
REMARK  Name = 
REMARK  2 active torsions:
REMARK  status: ('A' for Active; 'I' for Inactive)
REMARK    1  A    between atoms: C_1  and  N_2
REMARK    2  A    between atoms: C_4  and  C_5
REMARK                            x       y       z     vdW  Elec       q    Type
REMARK                         _______ _______ _______ _____ _____    ______ ____
ROOT
ATOM      1  C   UNL     1      -4.233  15.362  24.461  0.00  0.00    +0.000 C 
ATOM      2  N   UNL     1      -4.470  15.178  23.047  0.00  0.00    +0.000 NA
ATOM      3  C   UNL     1      -5.668  15.754  22.501  0.00  0.00    +0.000 C 
ATOM      4  C   UNL     1      -6.120  14.859  21.348  0.00  0.00    +0.000 C 
ATOM      5  C   UNL     1      -5.062  13.724  21.073  0.00  0.00    +0.000 C 
ATOM      6  C   UNL     1      -4.126  13.775  19.841  0.00  0.00    +0.000 C 
ATOM      7  C   UNL     1      -3.317  12.433  19.836  0.00  0.00    +0.000 C 
ATOM      8  C   UNL     1      -4.256  11.439  19.287  0.00  0.00    +0.000 A 
ATOM      9  C   UNL     1      -5.594  11.676  19.370  0.00  0.00    +0.000 A 
ATOM     10  N   UNL     1      -5.953  11.592  17.995  0.00  0.00    +0.000 N 
ATOM     11  C   UNL     1      -4.819  11.163  17.239  0.00  0.00    +0.000 A 
ATOM     12  C   UNL     1      -4.395  11.267  15.895  0.00  0.00    +0.000 A 
ATOM     13  C   UNL     1      -3.047  10.939  15.608  0.00  0.00    +0.000 A 
ATOM     14  C   UNL     1      -2.180  10.414  16.569  0.00  0.00    +0.000 A 
ATOM     15  C   UNL     1      -2.644  10.195  17.851  0.00  0.00    +0.000 A 
ATOM     16  C   UNL     1      -3.928  10.657  18.180  0.00  0.00    +0.000 A 
ATOM     17  C   UNL     1      -6.083  12.467  20.563  0.00  0.00    +0.000 C 
ATOM     18  O   UNL     1      -7.179  12.244  21.050  0.00  0.00    +0.000 OA
ATOM     19  C   UNL     1      -4.062  13.943  22.357  0.00  0.00    +0.000 C 
ATOM     20  C   UNL     1      -3.912  12.700  23.292  0.00  0.00    +0.000 C 
ATOM     21  O   UNL     1      -4.799  12.112  23.893  0.00  0.00    +0.000 OA
ATOM     22  N   UNL     1      -2.553  12.353  23.344  0.00  0.00    +0.000 N 
ATOM     23  C   UNL     1      -1.767  13.188  22.544  0.00  0.00    +0.000 A 
ATOM     24  C   UNL     1      -0.450  13.003  22.171  0.00  0.00    +0.000 A 
ATOM     25  C   UNL     1       0.078  13.879  21.210  0.00  0.00    +0.000 A 
ATOM     26  C   UNL     1      -0.662  14.989  20.780  0.00  0.00    +0.000 A 
ATOM     27  C   UNL     1      -1.945  15.215  21.279  0.00  0.00    +0.000 A 
ATOM     28  C   UNL     1      -2.548  14.210  22.045  0.00  0.00    +0.000 A 
ATOM     29  H   UNL     1      -6.750  12.051  17.574  0.00  0.00    +0.000 HD
ATOM     30  H   UNL     1      -2.206  11.566  23.867  0.00  0.00    +0.000 HD
ENDROOT
BRANCH   4  31
ATOM     31  C   UNL     1      -6.561  15.557  20.090  0.00  0.00    +0.000 A 
ATOM     32  C   UNL     1      -5.868  16.677  19.618  0.00  0.00    +0.000 A 
ATOM     33  C   UNL     1      -6.049  17.102  18.305  0.00  0.00    +0.000 A 
ATOM     34  C   UNL     1      -6.976  16.456  17.493  0.00  0.00    +0.000 A 
ATOM     35 CL   UNL     1      -7.124  16.917  15.841  0.00  0.00    +0.000 Cl
ATOM     36  C   UNL     1      -7.752  15.409  17.987  0.00  0.00    +0.000 A 
ATOM     37  C   UNL     1      -7.543  14.959  19.286  0.00  0.00    +0.000 A 
ENDBRANCH   4  31
TORSDOF 1
ENDMDL
MODEL 5
REMARK VINA RESULT:      -7.3     10.361     13.585
REMARK  Name = 
REMARK  2 active torsions:
REMARK  status: ('A' for Active; 'I' for Inactive)
REMARK    1  A    between atoms: C_1  and  N_2
REMARK    2  A    between atoms: C_4  and  C_5
REMARK                            x       y       z     vdW  Elec       q    Type
REMARK                         _______ _______ _______ _____ _____    ______ ____
ROOT
ATOM      1  C   UNL     1      -1.921  17.184  24.799  0.00  0.00    +0.000 C 
ATOM      2  N   UNL     1      -2.217  16.852  23.424  0.00  0.00    +0.000 NA
ATOM      3  C   UNL     1      -1.697  17.727  22.410  0.00  0.00    +0.000 C 
ATOM      4  C   UNL     1      -2.683  17.711  21.243  0.00  0.00    +0.000 C 
ATOM      5  C   UNL     1      -3.825  16.654  21.491  0.00  0.00    +0.000 C 
ATOM      6  C   UNL     1      -3.861  15.310  20.725  0.00  0.00    +0.000 C 
ATOM      7  C   UNL     1      -5.191  14.593  21.138  0.00  0.00    +0.000 C 
ATOM      8  C   UNL     1      -6.234  15.262  20.342  0.00  0.00    +0.000 A 
ATOM      9  C   UNL     1      -6.004  16.520  19.875  0.00  0.00    +0.000 A 
ATOM     10  N   UNL     1      -6.199  16.315  18.480  0.00  0.00    +0.000 N 
ATOM     11  C   UNL     1      -6.673  14.984  18.264  0.00  0.00    +0.000 A 
ATOM     12  C   UNL     1      -6.670  14.066  17.190  0.00  0.00    +0.000 A 
ATOM     13  C   UNL     1      -7.007  12.720  17.481  0.00  0.00    +0.000 A 
ATOM     14  C   UNL     1      -7.447  12.310  18.741  0.00  0.00    +0.000 A 
ATOM     15  C   UNL     1      -7.570  13.244  19.751  0.00  0.00    +0.000 A 
ATOM     16  C   UNL     1      -7.097  14.544  19.515  0.00  0.00    +0.000 A 
ATOM     17  C   UNL     1      -5.128  17.421  20.717  0.00  0.00    +0.000 C 
ATOM     18  O   UNL     1      -5.323  18.625  20.751  0.00  0.00    +0.000 OA
ATOM     19  C   UNL     1      -3.498  16.233  23.044  0.00  0.00    +0.000 C 
ATOM     20  C   UNL     1      -4.662  16.488  24.054  0.00  0.00    +0.000 C 
ATOM     21  O   UNL     1      -5.211  17.552  24.301  0.00  0.00    +0.000 OA
ATOM     22  N   UNL     1      -4.991  15.266  24.660  0.00  0.00    +0.000 N 
ATOM     23  C   UNL     1      -4.213  14.212  24.172  0.00  0.00    +0.000 A 
ATOM     24  C   UNL     1      -4.414  12.858  24.362  0.00  0.00    +0.000 A 
ATOM     25  C   UNL     1      -3.610  11.977  23.621  0.00  0.00    +0.000 A 
ATOM     26  C   UNL     1      -2.544  12.465  22.854  0.00  0.00    +0.000 A 
ATOM     27  C   UNL     1      -2.293  13.836  22.790  0.00  0.00    +0.000 A 
ATOM     28  C   UNL     1      -3.241  14.713  23.332  0.00  0.00    +0.000 A 
ATOM     29  H   UNL     1      -5.782  16.872  17.747  0.00  0.00    +0.000 HD
ATOM     30  H   UNL     1      -5.732  15.169  25.336  0.00  0.00    +0.000 HD
ENDROOT
BRANCH   4  31
ATOM     31  C   UNL     1      -2.089  17.609  19.864  0.00  0.00    +0.000 A 
ATOM     32  C   UNL     1      -2.475  18.499  18.856  0.00  0.00    +0.000 A 
ATOM     33  C   UNL     1      -1.693  18.631  17.711  0.00  0.00    +0.000 A 
ATOM     34  C   UNL     1      -0.575  17.822  17.542  0.00  0.00    +0.000 A 
ATOM     35 CL   UNL     1       0.445  18.058  16.177  0.00  0.00    +0.000 Cl
ATOM     36  C   UNL     1      -0.244  16.854  18.489  0.00  0.00    +0.000 A 
ATOM     37  C   UNL     1      -1.001  16.749  19.651  0.00  0.00    +0.000 A 
ENDBRANCH   4  31
TORSDOF 1
ENDMDL
MODEL 6
REMARK VINA RESULT:      -7.2      7.400     11.231
REMARK  Name = 
REMARK  2 active torsions:
REMARK  status: ('A' for Active; 'I' for Inactive)
REMARK    1  A    between atoms: C_1  and  N_2
REMARK    2  A    between atoms: C_4  and  C_5
REMARK                            x       y       z     vdW  Elec       q    Type
REMARK                         _______ _______ _______ _____ _____    ______ ____
ROOT
ATOM      1  C   UNL     1      -4.315  14.147  23.221  0.00  0.00    +0.000 C 
ATOM      2  N   UNL     1      -3.465  13.943  22.070  0.00  0.00    +0.000 NA
ATOM      3  C   UNL     1      -3.602  12.699  21.363  0.00  0.00    +0.000 C 
ATOM      4  C   UNL     1      -2.232  12.349  20.785  0.00  0.00    +0.000 C 
ATOM      5  C   UNL     1      -1.204  13.517  21.035  0.00  0.00    +0.000 C 
ATOM      6  C   UNL     1      -0.754  14.454  19.889  0.00  0.00    +0.000 C 
ATOM      7  C   UNL     1       0.351  15.393  20.484  0.00  0.00    +0.000 C 
ATOM      8  C   UNL     1       1.568  14.563  20.504  0.00  0.00    +0.000 A 
ATOM      9  C   UNL     1       1.444  13.207  20.516  0.00  0.00    +0.000 A 
ATOM     10  N   UNL     1       2.199  12.870  19.358  0.00  0.00    +0.000 N 
ATOM     11  C   UNL     1       2.827  14.049  18.849  0.00  0.00    +0.000 A 
ATOM     12  C   UNL     1       3.331  14.473  17.599  0.00  0.00    +0.000 A 
ATOM     13  C   UNL     1       3.631  15.850  17.448  0.00  0.00    +0.000 A 
ATOM     14  C   UNL     1       3.558  16.755  18.509  0.00  0.00    +0.000 A 
ATOM     15  C   UNL     1       3.188  16.303  19.760  0.00  0.00    +0.000 A 
ATOM     16  C   UNL     1       2.746  14.976  19.883  0.00  0.00    +0.000 A 
ATOM     17  C   UNL     1       0.232  12.630  21.216  0.00  0.00    +0.000 C 
ATOM     18  O   UNL     1       0.299  11.557  21.793  0.00  0.00    +0.000 OA
ATOM     19  C   UNL     1      -2.093  14.478  22.027  0.00  0.00    +0.000 C 
ATOM     20  C   UNL     1      -1.459  14.741  23.430  0.00  0.00    +0.000 C 
ATOM     21  O   UNL     1      -1.144  13.911  24.270  0.00  0.00    +0.000 OA
ATOM     22  N   UNL     1      -1.303  16.127  23.586  0.00  0.00    +0.000 N 
ATOM     23  C   UNL     1      -1.731  16.834  22.458  0.00  0.00    +0.000 A 
ATOM     24  C   UNL     1      -1.514  18.167  22.166  0.00  0.00    +0.000 A 
ATOM     25  C   UNL     1      -1.877  18.614  20.886  0.00  0.00    +0.000 A 
ATOM     26  C   UNL     1      -2.580  17.773  20.014  0.00  0.00    +0.000 A 
ATOM     27  C   UNL     1      -2.895  16.468  20.397  0.00  0.00    +0.000 A 
ATOM     28  C   UNL     1      -2.320  15.960  21.568  0.00  0.00    +0.000 A 
ATOM     29  H   UNL     1       2.069  12.036  18.801  0.00  0.00    +0.000 HD
ATOM     30  H   UNL     1      -0.892  16.546  24.404  0.00  0.00    +0.000 HD
ENDROOT
BRANCH   4  31
ATOM     31  C   UNL     1      -2.210  11.853  19.365  0.00  0.00    +0.000 A 
ATOM     32  C   UNL     1      -1.260  10.911  18.954  0.00  0.00    +0.000 A 
ATOM     33  C   UNL     1      -1.450  10.205  17.770  0.00  0.00    +0.000 A 
ATOM     34  C   UNL     1      -2.545  10.493  16.963  0.00  0.00    +0.000 A 
ATOM     35 CL   UNL     1      -2.833   9.549  15.554  0.00  0.00    +0.000 Cl
ATOM     36  C   UNL     1      -3.439  11.506  17.307  0.00  0.00    +0.000 A 
ATOM     37  C   UNL     1      -3.272  12.185  18.509  0.00  0.00    +0.000 A 
ENDBRANCH   4  31
TORSDOF 1
ENDMDL
MODEL 7
REMARK VINA RESULT:      -6.9      9.859     13.671
REMARK  Name = 
REMARK  2 active torsions:
REMARK  status: ('A' for Active; 'I' for Inactive)
REMARK    1  A    between atoms: C_1  and  N_2
REMARK    2  A    between atoms: C_4  and  C_5
REMARK                            x       y       z     vdW  Elec       q    Type
REMARK                         _______ _______ _______ _____ _____    ______ ____
ROOT
ATOM      1  C   UNL     1      -6.679  12.645  24.200  0.00  0.00    +0.000 C 
ATOM      2  N   UNL     1      -6.105  13.261  23.024  0.00  0.00    +0.000 NA
ATOM      3  C   UNL     1      -6.538  12.767  21.746  0.00  0.00    +0.000 C 
ATOM      4  C   UNL     1      -5.365  12.916  20.779  0.00  0.00    +0.000 C 
ATOM      5  C   UNL     1      -4.166  13.674  21.465  0.00  0.00    +0.000 C 
ATOM      6  C   UNL     1      -3.833  15.144  21.112  0.00  0.00    +0.000 C 
ATOM      7  C   UNL     1      -2.520  15.505  21.888  0.00  0.00    +0.000 C 
ATOM      8  C   UNL     1      -1.441  14.897  21.091  0.00  0.00    +0.000 A 
ATOM      9  C   UNL     1      -1.734  13.853  20.268  0.00  0.00    +0.000 A 
ATOM     10  N   UNL     1      -1.271  14.369  19.026  0.00  0.00    +0.000 N 
ATOM     11  C   UNL     1      -0.609  15.615  19.253  0.00  0.00    +0.000 A 
ATOM     12  C   UNL     1      -0.310  16.763  18.485  0.00  0.00    +0.000 A 
ATOM     13  C   UNL     1       0.130  17.918  19.179  0.00  0.00    +0.000 A 
ATOM     14  C   UNL     1       0.385  17.918  20.552  0.00  0.00    +0.000 A 
ATOM     15  C   UNL     1       0.212  16.752  21.272  0.00  0.00    +0.000 A 
ATOM     16  C   UNL     1      -0.365  15.649  20.623  0.00  0.00    +0.000 A 
ATOM     17  C   UNL     1      -2.849  12.925  20.699  0.00  0.00    +0.000 C 
ATOM     18  O   UNL     1      -2.809  11.737  20.426  0.00  0.00    +0.000 OA
ATOM     19  C   UNL     1      -4.711  13.737  23.012  0.00  0.00    +0.000 C 
ATOM     20  C   UNL     1      -3.785  13.048  24.064  0.00  0.00    +0.000 C 
ATOM     21  O   UNL     1      -3.421  11.881  24.082  0.00  0.00    +0.000 OA
ATOM     22  N   UNL     1      -3.424  14.006  25.024  0.00  0.00    +0.000 N 
ATOM     23  C   UNL     1      -3.970  15.262  24.742  0.00  0.00    +0.000 A 
ATOM     24  C   UNL     1      -3.644  16.473  25.324  0.00  0.00    +0.000 A 
ATOM     25  C   UNL     1      -4.191  17.631  24.750  0.00  0.00    +0.000 A 
ATOM     26  C   UNL     1      -5.154  17.535  23.738  0.00  0.00    +0.000 A 
ATOM     27  C   UNL     1      -5.554  16.284  23.264  0.00  0.00    +0.000 A 
ATOM     28  C   UNL     1      -4.830  15.156  23.670  0.00  0.00    +0.000 A 
ATOM     29  H   UNL     1      -1.615  14.091  18.116  0.00  0.00    +0.000 HD
ATOM     30  H   UNL     1      -2.809  13.807  25.796  0.00  0.00    +0.000 HD
ENDROOT
BRANCH   4  31
ATOM     31  C   UNL     1      -5.687  13.459  19.413  0.00  0.00    +0.000 A 
ATOM     32  C   UNL     1      -5.667  12.623  18.291  0.00  0.00    +0.000 A 
ATOM     33  C   UNL     1      -6.289  13.026  17.113  0.00  0.00    +0.000 A 
ATOM     34  C   UNL     1      -6.862  14.290  17.034  0.00  0.00    +0.000 A 
ATOM     35 CL   UNL     1      -7.719  14.747  15.613  0.00  0.00    +0.000 Cl
ATOM     36  C   UNL     1      -6.792  15.175  18.108  0.00  0.00    +0.000 A 
ATOM     37  C   UNL     1      -6.205  14.758  19.299  0.00  0.00    +0.000 A 
ENDBRANCH   4  31
TORSDOF 1
ENDMDL
MODEL 8
REMARK VINA RESULT:      -6.9      8.314     12.473
REMARK  Name = 
REMARK  2 active torsions:
REMARK  status: ('A' for Active; 'I' for Inactive)
REMARK    1  A    between atoms: C_1  and  N_2
REMARK    2  A    between atoms: C_4  and  C_5
REMARK                            x       y       z     vdW  Elec       q    Type
REMARK                         _______ _______ _______ _____ _____    ______ ____
ROOT
ATOM      1  C   UNL     1      -4.515  12.287  24.536  0.00  0.00    +0.000 C 
ATOM      2  N   UNL     1      -3.588  12.625  23.480  0.00  0.00    +0.000 NA
ATOM      3  C   UNL     1      -2.339  11.914  23.449  0.00  0.00    +0.000 C 
ATOM      4  C   UNL     1      -1.289  12.863  22.874  0.00  0.00    +0.000 C 
ATOM      5  C   UNL     1      -1.953  14.208  22.392  0.00  0.00    +0.000 C 
ATOM      6  C   UNL     1      -2.149  14.518  20.889  0.00  0.00    +0.000 C 
ATOM      7  C   UNL     1      -2.714  15.977  20.801  0.00  0.00    +0.000 C 
ATOM      8  C   UNL     1      -1.535  16.840  20.993  0.00  0.00    +0.000 A 
ATOM      9  C   UNL     1      -0.447  16.340  21.640  0.00  0.00    +0.000 A 
ATOM     10  N   UNL     1       0.556  16.552  20.653  0.00  0.00    +0.000 N 
ATOM     11  C   UNL     1      -0.002  17.296  19.569  0.00  0.00    +0.000 A 
ATOM     12  C   UNL     1       0.293  17.472  18.198  0.00  0.00    +0.000 A 
ATOM     13  C   UNL     1      -0.693  18.093  17.392  0.00  0.00    +0.000 A 
ATOM     14  C   UNL     1      -1.868  18.630  17.922  0.00  0.00    +0.000 A 
ATOM     15  C   UNL     1      -2.087  18.567  19.284  0.00  0.00    +0.000 A 
ATOM     16  C   UNL     1      -1.190  17.823  20.067  0.00  0.00    +0.000 A 
ATOM     17  C   UNL     1      -0.697  15.305  22.715  0.00  0.00    +0.000 C 
ATOM     18  O   UNL     1       0.025  15.239  23.696  0.00  0.00    +0.000 OA
ATOM     19  C   UNL     1      -3.476  14.003  22.972  0.00  0.00    +0.000 C 
ATOM     20  C   UNL     1      -3.951  15.102  23.975  0.00  0.00    +0.000 C 
ATOM     21  O   UNL     1      -3.430  15.414  25.036  0.00  0.00    +0.000 OA
ATOM     22  N   UNL     1      -5.114  15.694  23.458  0.00  0.00    +0.000 N 
ATOM     23  C   UNL     1      -5.472  15.151  22.220  0.00  0.00    +0.000 A 
ATOM     24  C   UNL     1      -6.404  15.639  21.323  0.00  0.00    +0.000 A 
ATOM     25  C   UNL     1      -6.463  15.030  20.060  0.00  0.00    +0.000 A 
ATOM     26  C   UNL     1      -5.719  13.873  19.795  0.00  0.00    +0.000 A 
ATOM     27  C   UNL     1      -4.884  13.334  20.775  0.00  0.00    +0.000 A 
ATOM     28  C   UNL     1      -4.650  14.081  21.935  0.00  0.00    +0.000 A 
ATOM     29  H   UNL     1       1.408  16.014  20.566  0.00  0.00    +0.000 HD
ATOM     30  H   UNL     1      -5.597  16.449  23.916  0.00  0.00    +0.000 HD
ENDROOT
BRANCH   4  31
ATOM     31  C   UNL     1      -0.349  12.283  21.852  0.00  0.00    +0.000 A 
ATOM     32  C   UNL     1      -0.733  11.184  21.075  0.00  0.00    +0.000 A 
ATOM     33  C   UNL     1      -0.026  10.873  19.917  0.00  0.00    +0.000 A 
ATOM     34  C   UNL     1       1.104  11.610  19.579  0.00  0.00    +0.000 A 
ATOM     35 CL   UNL     1       1.914  11.289  18.096  0.00  0.00    +0.000 Cl
ATOM     36  C   UNL     1       1.559  12.637  20.404  0.00  0.00    +0.000 A 
ATOM     37  C   UNL     1       0.831  12.974  21.540  0.00  0.00    +0.000 A 
ENDBRANCH   4  31
TORSDOF 1
ENDMDL
MODEL 9
REMARK VINA RESULT:      -6.8      9.078     12.322
REMARK  Name = 
REMARK  2 active torsions:
REMARK  status: ('A' for Active; 'I' for Inactive)
REMARK    1  A    between atoms: C_1  and  N_2
REMARK    2  A    between atoms: C_4  and  C_5
REMARK                            x       y       z     vdW  Elec       q    Type
REMARK                         _______ _______ _______ _____ _____    ______ ____
ROOT
ATOM      1  C   UNL     1       1.142  15.355  22.042  0.00  0.00    +0.000 C 
ATOM      2  N   UNL     1       0.453  14.143  21.661  0.00  0.00    +0.000 NA
ATOM      3  C   UNL     1       1.253  13.066  21.147  0.00  0.00    +0.000 C 
ATOM      4  C   UNL     1       0.396  12.301  20.140  0.00  0.00    +0.000 C 
ATOM      5  C   UNL     1      -1.079  12.857  20.124  0.00  0.00    +0.000 C 
ATOM      6  C   UNL     1      -2.245  12.071  20.769  0.00  0.00    +0.000 C 
ATOM      7  C   UNL     1      -3.556  12.866  20.445  0.00  0.00    +0.000 C 
ATOM      8  C   UNL     1      -3.869  12.508  19.051  0.00  0.00    +0.000 A 
ATOM      9  C   UNL     1      -2.869  12.065  18.241  0.00  0.00    +0.000 A 
ATOM     10  N   UNL     1      -3.402  10.808  17.841  0.00  0.00    +0.000 N 
ATOM     11  C   UNL     1      -4.739  10.688  18.333  0.00  0.00    +0.000 A 
ATOM     12  C   UNL     1      -5.619   9.624  18.634  0.00  0.00    +0.000 A 
ATOM     13  C   UNL     1      -6.785   9.932  19.378  0.00  0.00    +0.000 A 
ATOM     14  C   UNL     1      -7.142  11.241  19.709  0.00  0.00    +0.000 A 
ATOM     15  C   UNL     1      -6.338  12.285  19.296  0.00  0.00    +0.000 A 
ATOM     16  C   UNL     1      -5.108  11.980  18.693  0.00  0.00    +0.000 A 
ATOM     17  C   UNL     1      -1.481  12.614  18.492  0.00  0.00    +0.000 C 
ATOM     18  O   UNL     1      -0.702  12.781  17.569  0.00  0.00    +0.000 OA
ATOM     19  C   UNL     1      -0.898  14.182  21.077  0.00  0.00    +0.000 C 
ATOM     20  C   UNL     1      -1.268  15.538  20.395  0.00  0.00    +0.000 C 
ATOM     21  O   UNL     1      -0.780  16.017  19.382  0.00  0.00    +0.000 OA
ATOM     22  N   UNL     1      -2.280  16.148  21.153  0.00  0.00    +0.000 N 
ATOM     23  C   UNL     1      -2.658  15.366  22.249  0.00  0.00    +0.000 A 
ATOM     24  C   UNL     1      -3.762  15.533  23.063  0.00  0.00    +0.000 A 
ATOM     25  C   UNL     1      -4.041  14.514  23.988  0.00  0.00    +0.000 A 
ATOM     26  C   UNL     1      -3.135  13.463  24.179  0.00  0.00    +0.000 A 
ATOM     27  C   UNL     1      -1.962  13.398  23.425  0.00  0.00    +0.000 A 
ATOM     28  C   UNL     1      -1.816  14.278  22.345  0.00  0.00    +0.000 A 
ATOM     29  H   UNL     1      -2.854  10.011  17.547  0.00  0.00    +0.000 HD
ATOM     30  H   UNL     1      -2.702  17.026  20.901  0.00  0.00    +0.000 HD
ENDROOT
BRANCH   4  31
ATOM     31  C   UNL     1       0.447  10.799  20.220  0.00  0.00    +0.000 A 
ATOM     32  C   UNL     1       0.966  10.047  19.160  0.00  0.00    +0.000 A 
ATOM     33  C   UNL     1       1.332   8.720  19.365  0.00  0.00    +0.000 A 
ATOM     34  C   UNL     1       1.108   8.126  20.602  0.00  0.00    +0.000 A 
ATOM     35 CL   UNL     1       1.654   6.519  20.883  0.00  0.00    +0.000 Cl
ATOM     36  C   UNL     1       0.490   8.832  21.632  0.00  0.00    +0.000 A 
ATOM     37  C   UNL     1       0.160  10.170  21.441  0.00  0.00    +0.000 A 
ENDBRANCH   4  31
TORSDOF 1
ENDMDL
