MODEL 1
REMARK VINA RESULT:      -7.1      0.000      0.000
REMARK  Name = 
REMARK  13 active torsions:
REMARK  status: ('A' for Active; 'I' for Inactive)
REMARK    1  A    between atoms: C_1  and  C_2
REMARK    2  A    between atoms: C_2  and  C_3
REMARK    3  A    between atoms: C_3  and  C_4
REMARK    4  A    between atoms: C_4  and  C_5
REMARK    5  A    between atoms: C_5  and  C_6
REMARK    6  A    between atoms: C_6  and  C_7
REMARK    7  A    between atoms: C_7  and  C_8
REMARK    8  A    between atoms: C_8  and  C_9
REMARK    9  A    between atoms: C_9  and  C_10
REMARK   10  A    between atoms: C_10  and  C_11
REMARK   11  A    between atoms: C_11  and  C_12
REMARK   12  A    between atoms: C_12  and  N_13
REMARK   13  A    between atoms: C_15  and  C_16
REMARK                            x       y       z     vdW  Elec       q    Type
REMARK                         _______ _______ _______ _____ _____    ______ ____
ROOT
ATOM      1  N   UNL     1       2.995   6.192  18.539  0.00  0.00    +0.000 N 
ATOM      2  C   UNL     1       3.848   6.011  17.463  0.00  0.00    +0.000 A 
ATOM      3  C   UNL     1       4.377   4.851  17.041  0.00  0.00    +0.000 A 
ATOM      4  C   UNL     1       4.015   3.640  17.825  0.00  0.00    +0.000 A 
ATOM      5  O   UNL     1       4.462   2.520  17.551  0.00  0.00    +0.000 OA
ATOM      6  C   UNL     1       3.113   3.798  18.984  0.00  0.00    +0.000 A 
ATOM      7  C   UNL     1       2.820   2.662  19.753  0.00  0.00    +0.000 A 
ATOM      8  C   UNL     1       2.009   2.784  20.867  0.00  0.00    +0.000 A 
ATOM      9  F   UNL     1       1.749   1.707  21.617  0.00  0.00    +0.000 F 
ATOM     10  C   UNL     1       1.464   4.005  21.214  0.00  0.00    +0.000 A 
ATOM     11  C   UNL     1       1.750   5.123  20.436  0.00  0.00    +0.000 A 
ATOM     12  F   UNL     1       1.167   6.266  20.825  0.00  0.00    +0.000 F 
ATOM     13  C   UNL     1       2.608   5.074  19.317  0.00  0.00    +0.000 A 
ENDROOT
BRANCH   3  14
ATOM     14  C   UNL     1       5.297   4.784  15.955  0.00  0.00    +0.000 A 
ATOM     15  C   UNL     1       5.203   4.076  14.766  0.00  0.00    +0.000 A 
ATOM     16  N   UNL     1       6.243   4.231  13.870  0.00  0.00    +0.000 NA
ATOM     17  C   UNL     1       7.133   5.047  14.368  0.00  0.00    +0.000 A 
ATOM     18  N   UNL     1       8.253   5.384  13.721  0.00  0.00    +0.000 N 
ATOM     19  S   UNL     1       6.790   5.657  15.925  0.00  0.00    +0.000 S 
ATOM     20  H   UNL     1       8.338   5.122  12.746  0.00  0.00    +0.000 HD
ATOM     21  H   UNL     1       8.838   6.142  14.044  0.00  0.00    +0.000 HD
ENDBRANCH   3  14
BRANCH   1  22
ATOM     22  C   UNL     1       2.656   7.545  19.010  0.00  0.00    +0.000 C 
BRANCH  22  23
ATOM     23  C   UNL     1       1.852   8.305  17.953  0.00  0.00    +0.000 C 
BRANCH  23  24
ATOM     24  C   UNL     1       1.459   9.684  18.464  0.00  0.00    +0.000 C 
BRANCH  24  25
ATOM     25  C   UNL     1      -0.013   9.948  18.177  0.00  0.00    +0.000 C 
BRANCH  25  26
ATOM     26  C   UNL     1      -0.518  11.103  19.024  0.00  0.00    +0.000 C 
BRANCH  26  27
ATOM     27  C   UNL     1       0.647  11.817  19.688  0.00  0.00    +0.000 C 
BRANCH  27  28
ATOM     28  C   UNL     1       0.132  12.913  20.608  0.00  0.00    +0.000 C 
BRANCH  28  29
ATOM     29  C   UNL     1      -1.183  12.491  21.244  0.00  0.00    +0.000 C 
BRANCH  29  30
ATOM     30  C   UNL     1      -1.002  12.292  22.742  0.00  0.00    +0.000 C 
BRANCH  30  31
ATOM     31  C   UNL     1      -1.298  10.848  23.123  0.00  0.00    +0.000 C 
BRANCH  31  33
ATOM     32  C   UNL     1      -0.439   8.781  22.005  0.00  0.00    +0.000 C 
ATOM     33  C   UNL     1      -0.078   9.965  22.882  0.00  0.00    +0.000 C 
ENDBRANCH  31  33
ENDBRANCH  30  31
ENDBRANCH  29  30
ENDBRANCH  28  29
ENDBRANCH  27  28
ENDBRANCH  26  27
ENDBRANCH  25  26
ENDBRANCH  24  25
ENDBRANCH  23  24
ENDBRANCH  22  23
ENDBRANCH   1  22
TORSDOF 12
ENDMDL
MODEL 2
REMARK VINA RESULT:      -7.0      0.889      1.051
REMARK  Name = 
REMARK  13 active torsions:
REMARK  status: ('A' for Active; 'I' for Inactive)
REMARK    1  A    between atoms: C_1  and  C_2
REMARK    2  A    between atoms: C_2  and  C_3
REMARK    3  A    between atoms: C_3  and  C_4
REMARK    4  A    between atoms: C_4  and  C_5
REMARK    5  A    between atoms: C_5  and  C_6
REMARK    6  A    between atoms: C_6  and  C_7
REMARK    7  A    between atoms: C_7  and  C_8
REMARK    8  A    between atoms: C_8  and  C_9
REMARK    9  A    between atoms: C_9  and  C_10
REMARK   10  A    between atoms: C_10  and  C_11
REMARK   11  A    between atoms: C_11  and  C_12
REMARK   12  A    between atoms: C_12  and  N_13
REMARK   13  A    between atoms: C_15  and  C_16
REMARK                            x       y       z     vdW  Elec       q    Type
REMARK                         _______ _______ _______ _____ _____    ______ ____
ROOT
ATOM      1  N   UNL     1       2.952   6.438  18.579  0.00  0.00    +0.000 N 
ATOM      2  C   UNL     1       3.905   6.319  17.580  0.00  0.00    +0.000 A 
ATOM      3  C   UNL     1       4.520   5.194  17.184  0.00  0.00    +0.000 A 
ATOM      4  C   UNL     1       4.143   3.949  17.907  0.00  0.00    +0.000 A 
ATOM      5  O   UNL     1       4.661   2.857  17.651  0.00  0.00    +0.000 OA
ATOM      6  C   UNL     1       3.135   4.042  18.982  0.00  0.00    +0.000 A 
ATOM      7  C   UNL     1       2.824   2.875  19.698  0.00  0.00    +0.000 A 
ATOM      8  C   UNL     1       1.912   2.936  20.736  0.00  0.00    +0.000 A 
ATOM      9  F   UNL     1       1.633   1.831  21.438  0.00  0.00    +0.000 F 
ATOM     10  C   UNL     1       1.286   4.124  21.058  0.00  0.00    +0.000 A 
ATOM     11  C   UNL     1       1.590   5.272  20.332  0.00  0.00    +0.000 A 
ATOM     12  F   UNL     1       0.925   6.379  20.690  0.00  0.00    +0.000 F 
ATOM     13  C   UNL     1       2.547   5.286  19.294  0.00  0.00    +0.000 A 
ENDROOT
BRANCH   3  14
ATOM     14  C   UNL     1       5.535   5.192  16.184  0.00  0.00    +0.000 A 
ATOM     15  C   UNL     1       6.854   5.613  16.269  0.00  0.00    +0.000 A 
ATOM     16  N   UNL     1       7.628   5.456  15.136  0.00  0.00    +0.000 NA
ATOM     17  C   UNL     1       6.909   4.925  14.184  0.00  0.00    +0.000 A 
ATOM     18  N   UNL     1       7.395   4.658  12.967  0.00  0.00    +0.000 N 
ATOM     19  S   UNL     1       5.280   4.600  14.579  0.00  0.00    +0.000 S 
ATOM     20  H   UNL     1       8.397   4.724  12.830  0.00  0.00    +0.000 HD
ATOM     21  H   UNL     1       6.878   4.095  12.307  0.00  0.00    +0.000 HD
ENDBRANCH   3  14
BRANCH   1  22
ATOM     22  C   UNL     1       2.513   7.764  19.044  0.00  0.00    +0.000 C 
BRANCH  22  23
ATOM     23  C   UNL     1       1.847   8.547  17.912  0.00  0.00    +0.000 C 
BRANCH  23  24
ATOM     24  C   UNL     1       0.940   9.635  18.469  0.00  0.00    +0.000 C 
BRANCH  24  25
ATOM     25  C   UNL     1      -0.418   9.586  17.784  0.00  0.00    +0.000 C 
BRANCH  25  26
ATOM     26  C   UNL     1      -1.333  10.660  18.347  0.00  0.00    +0.000 C 
BRANCH  26  27
ATOM     27  C   UNL     1      -0.515  11.830  18.865  0.00  0.00    +0.000 C 
BRANCH  27  28
ATOM     28  C   UNL     1      -1.339  12.649  19.845  0.00  0.00    +0.000 C 
BRANCH  28  29
ATOM     29  C   UNL     1      -0.546  12.900  21.118  0.00  0.00    +0.000 C 
BRANCH  29  30
ATOM     30  C   UNL     1       0.064  11.600  21.623  0.00  0.00    +0.000 C 
BRANCH  30  31
ATOM     31  C   UNL     1      -0.889  10.908  22.586  0.00  0.00    +0.000 C 
BRANCH  31  33
ATOM     32  C   UNL     1       0.948   9.231  22.320  0.00  0.00    +0.000 C 
ATOM     33  C   UNL     1      -0.268   9.628  23.135  0.00  0.00    +0.000 C 
ENDBRANCH  31  33
ENDBRANCH  30  31
ENDBRANCH  29  30
ENDBRANCH  28  29
ENDBRANCH  27  28
ENDBRANCH  26  27
ENDBRANCH  25  26
ENDBRANCH  24  25
ENDBRANCH  23  24
ENDBRANCH  22  23
ENDBRANCH   1  22
TORSDOF 12
ENDMDL
MODEL 3
REMARK VINA RESULT:      -7.0      0.775      1.574
REMARK  Name = 
REMARK  13 active torsions:
REMARK  status: ('A' for Active; 'I' for Inactive)
REMARK    1  A    between atoms: C_1  and  C_2
REMARK    2  A    between atoms: C_2  and  C_3
REMARK    3  A    between atoms: C_3  and  C_4
REMARK    4  A    between atoms: C_4  and  C_5
REMARK    5  A    between atoms: C_5  and  C_6
REMARK    6  A    between atoms: C_6  and  C_7
REMARK    7  A    between atoms: C_7  and  C_8
REMARK    8  A    between atoms: C_8  and  C_9
REMARK    9  A    between atoms: C_9  and  C_10
REMARK   10  A    between atoms: C_10  and  C_11
REMARK   11  A    between atoms: C_11  and  C_12
REMARK   12  A    between atoms: C_12  and  N_13
REMARK   13  A    between atoms: C_15  and  C_16
REMARK                            x       y       z     vdW  Elec       q    Type
REMARK                         _______ _______ _______ _____ _____    ______ ____
ROOT
ATOM      1  N   UNL     1       3.011   6.236  18.433  0.00  0.00    +0.000 N 
ATOM      2  C   UNL     1       3.869   6.057  17.360  0.00  0.00    +0.000 A 
ATOM      3  C   UNL     1       4.419   4.902  16.953  0.00  0.00    +0.000 A 
ATOM      4  C   UNL     1       4.077   3.694  17.751  0.00  0.00    +0.000 A 
ATOM      5  O   UNL     1       4.545   2.580  17.491  0.00  0.00    +0.000 OA
ATOM      6  C   UNL     1       3.171   3.851  18.906  0.00  0.00    +0.000 A 
ATOM      7  C   UNL     1       2.897   2.719  19.688  0.00  0.00    +0.000 A 
ATOM      8  C   UNL     1       2.082   2.840  20.799  0.00  0.00    +0.000 A 
ATOM      9  F   UNL     1       1.840   1.768  21.563  0.00  0.00    +0.000 F 
ATOM     10  C   UNL     1       1.515   4.055  21.131  0.00  0.00    +0.000 A 
ATOM     11  C   UNL     1       1.782   5.168  20.340  0.00  0.00    +0.000 A 
ATOM     12  F   UNL     1       1.178   6.305  20.714  0.00  0.00    +0.000 F 
ATOM     13  C   UNL     1       2.643   5.121  19.223  0.00  0.00    +0.000 A 
ENDROOT
BRANCH   3  14
ATOM     14  C   UNL     1       5.342   4.838  15.869  0.00  0.00    +0.000 A 
ATOM     15  C   UNL     1       5.213   4.209  14.640  0.00  0.00    +0.000 A 
ATOM     16  N   UNL     1       6.268   4.348  13.760  0.00  0.00    +0.000 NA
ATOM     17  C   UNL     1       7.205   5.072  14.309  0.00  0.00    +0.000 A 
ATOM     18  N   UNL     1       8.351   5.372  13.689  0.00  0.00    +0.000 N 
ATOM     19  S   UNL     1       6.889   5.611  15.898  0.00  0.00    +0.000 S 
ATOM     20  H   UNL     1       8.427   5.163  12.700  0.00  0.00    +0.000 HD
ATOM     21  H   UNL     1       8.981   6.070  14.058  0.00  0.00    +0.000 HD
ENDBRANCH   3  14
BRANCH   1  22
ATOM     22  C   UNL     1       2.647   7.589  18.886  0.00  0.00    +0.000 C 
BRANCH  22  23
ATOM     23  C   UNL     1       1.982   8.381  17.760  0.00  0.00    +0.000 C 
BRANCH  23  24
ATOM     24  C   UNL     1       1.579   9.768  18.241  0.00  0.00    +0.000 C 
BRANCH  24  25
ATOM     25  C   UNL     1       0.068   9.932  18.158  0.00  0.00    +0.000 C 
BRANCH  25  26
ATOM     26  C   UNL     1      -0.464  10.583  19.423  0.00  0.00    +0.000 C 
BRANCH  26  27
ATOM     27  C   UNL     1       0.451  10.279  20.597  0.00  0.00    +0.000 C 
BRANCH  27  28
ATOM     28  C   UNL     1      -0.093   9.103  21.391  0.00  0.00    +0.000 C 
BRANCH  28  29
ATOM     29  C   UNL     1      -0.612   9.574  22.740  0.00  0.00    +0.000 C 
BRANCH  29  30
ATOM     30  C   UNL     1      -0.619  11.095  22.800  0.00  0.00    +0.000 C 
BRANCH  30  31
ATOM     31  C   UNL     1      -2.007  11.603  23.164  0.00  0.00    +0.000 C 
BRANCH  31  33
ATOM     32  C   UNL     1      -3.930  13.032  22.443  0.00  0.00    +0.000 C 
ATOM     33  C   UNL     1      -2.544  12.533  22.081  0.00  0.00    +0.000 C 
ENDBRANCH  31  33
ENDBRANCH  30  31
ENDBRANCH  29  30
ENDBRANCH  28  29
ENDBRANCH  27  28
ENDBRANCH  26  27
ENDBRANCH  25  26
ENDBRANCH  24  25
ENDBRANCH  23  24
ENDBRANCH  22  23
ENDBRANCH   1  22
TORSDOF 12
ENDMDL
MODEL 4
REMARK VINA RESULT:      -7.0      1.742      2.930
REMARK  Name = 
REMARK  13 active torsions:
REMARK  status: ('A' for Active; 'I' for Inactive)
REMARK    1  A    between atoms: C_1  and  C_2
REMARK    2  A    between atoms: C_2  and  C_3
REMARK    3  A    between atoms: C_3  and  C_4
REMARK    4  A    between atoms: C_4  and  C_5
REMARK    5  A    between atoms: C_5  and  C_6
REMARK    6  A    between atoms: C_6  and  C_7
REMARK    7  A    between atoms: C_7  and  C_8
REMARK    8  A    between atoms: C_8  and  C_9
REMARK    9  A    between atoms: C_9  and  C_10
REMARK   10  A    between atoms: C_10  and  C_11
REMARK   11  A    between atoms: C_11  and  C_12
REMARK   12  A    between atoms: C_12  and  N_13
REMARK   13  A    between atoms: C_15  and  C_16
REMARK                            x       y       z     vdW  Elec       q    Type
REMARK                         _______ _______ _______ _____ _____    ______ ____
ROOT
ATOM      1  N   UNL     1       2.961   6.256  18.601  0.00  0.00    +0.000 N 
ATOM      2  C   UNL     1       3.891   6.144  17.579  0.00  0.00    +0.000 A 
ATOM      3  C   UNL     1       4.553   5.036  17.211  0.00  0.00    +0.000 A 
ATOM      4  C   UNL     1       4.263   3.805  17.996  0.00  0.00    +0.000 A 
ATOM      5  O   UNL     1       4.832   2.731  17.770  0.00  0.00    +0.000 OA
ATOM      6  C   UNL     1       3.283   3.891  19.097  0.00  0.00    +0.000 A 
ATOM      7  C   UNL     1       3.055   2.742  19.870  0.00  0.00    +0.000 A 
ATOM      8  C   UNL     1       2.172   2.800  20.932  0.00  0.00    +0.000 A 
ATOM      9  F   UNL     1       1.973   1.713  21.688  0.00  0.00    +0.000 F 
ATOM     10  C   UNL     1       1.493   3.966  21.224  0.00  0.00    +0.000 A 
ATOM     11  C   UNL     1       1.715   5.097  20.442  0.00  0.00    +0.000 A 
ATOM     12  F   UNL     1       1.002   6.182  20.775  0.00  0.00    +0.000 F 
ATOM     13  C   UNL     1       2.639   5.116  19.376  0.00  0.00    +0.000 A 
ENDROOT
BRANCH   3  14
ATOM     14  C   UNL     1       5.538   5.043  16.181  0.00  0.00    +0.000 A 
ATOM     15  C   UNL     1       6.857   5.468  16.230  0.00  0.00    +0.000 A 
ATOM     16  N   UNL     1       7.597   5.321  15.073  0.00  0.00    +0.000 NA
ATOM     17  C   UNL     1       6.852   4.794  14.139  0.00  0.00    +0.000 A 
ATOM     18  N   UNL     1       7.302   4.537  12.907  0.00  0.00    +0.000 N 
ATOM     19  S   UNL     1       5.236   4.461  14.580  0.00  0.00    +0.000 S 
ATOM     20  H   UNL     1       8.298   4.607  12.739  0.00  0.00    +0.000 HD
ATOM     21  H   UNL     1       6.767   3.976  12.258  0.00  0.00    +0.000 HD
ENDBRANCH   3  14
BRANCH   1  22
ATOM     22  C   UNL     1       2.466   7.576  19.025  0.00  0.00    +0.000 C 
BRANCH  22  23
ATOM     23  C   UNL     1       2.530   8.578  17.872  0.00  0.00    +0.000 C 
BRANCH  23  24
ATOM     24  C   UNL     1       1.297   9.470  17.864  0.00  0.00    +0.000 C 
BRANCH  24  25
ATOM     25  C   UNL     1       1.630  10.831  18.459  0.00  0.00    +0.000 C 
BRANCH  25  26
ATOM     26  C   UNL     1       0.512  11.294  19.377  0.00  0.00    +0.000 C 
BRANCH  26  27
ATOM     27  C   UNL     1      -0.556  12.023  18.579  0.00  0.00    +0.000 C 
BRANCH  27  28
ATOM     28  C   UNL     1      -1.929  11.465  18.916  0.00  0.00    +0.000 C 
BRANCH  28  29
ATOM     29  C   UNL     1      -2.087  10.068  18.337  0.00  0.00    +0.000 C 
BRANCH  29  30
ATOM     30  C   UNL     1      -3.422   9.944  17.617  0.00  0.00    +0.000 C 
BRANCH  30  31
ATOM     31  C   UNL     1      -3.749  11.238  16.884  0.00  0.00    +0.000 C 
BRANCH  31  33
ATOM     32  C   UNL     1      -2.865  10.032  14.877  0.00  0.00    +0.000 C 
ATOM     33  C   UNL     1      -3.931  10.982  15.392  0.00  0.00    +0.000 C 
ENDBRANCH  31  33
ENDBRANCH  30  31
ENDBRANCH  29  30
ENDBRANCH  28  29
ENDBRANCH  27  28
ENDBRANCH  26  27
ENDBRANCH  25  26
ENDBRANCH  24  25
ENDBRANCH  23  24
ENDBRANCH  22  23
ENDBRANCH   1  22
TORSDOF 12
ENDMDL
MODEL 5
REMARK VINA RESULT:      -7.0      2.124      2.798
REMARK  Name = 
REMARK  13 active torsions:
REMARK  status: ('A' for Active; 'I' for Inactive)
REMARK    1  A    between atoms: C_1  and  C_2
REMARK    2  A    between atoms: C_2  and  C_3
REMARK    3  A    between atoms: C_3  and  C_4
REMARK    4  A    between atoms: C_4  and  C_5
REMARK    5  A    between atoms: C_5  and  C_6
REMARK    6  A    between atoms: C_6  and  C_7
REMARK    7  A    between atoms: C_7  and  C_8
REMARK    8  A    between atoms: C_8  and  C_9
REMARK    9  A    between atoms: C_9  and  C_10
REMARK   10  A    between atoms: C_10  and  C_11
REMARK   11  A    between atoms: C_11  and  C_12
REMARK   12  A    between atoms: C_12  and  N_13
REMARK   13  A    between atoms: C_15  and  C_16
REMARK                            x       y       z     vdW  Elec       q    Type
REMARK                         _______ _______ _______ _____ _____    ______ ____
ROOT
ATOM      1  N   UNL     1       2.842   6.248  18.546  0.00  0.00    +0.000 N 
ATOM      2  C   UNL     1       3.710   6.065  17.481  0.00  0.00    +0.000 A 
ATOM      3  C   UNL     1       4.318   4.922  17.126  0.00  0.00    +0.000 A 
ATOM      4  C   UNL     1       4.038   3.735  17.978  0.00  0.00    +0.000 A 
ATOM      5  O   UNL     1       4.562   2.636  17.767  0.00  0.00    +0.000 OA
ATOM      6  C   UNL     1       3.123   3.897  19.126  0.00  0.00    +0.000 A 
ATOM      7  C   UNL     1       2.906   2.789  19.959  0.00  0.00    +0.000 A 
ATOM      8  C   UNL     1       2.085   2.918  21.064  0.00  0.00    +0.000 A 
ATOM      9  F   UNL     1       1.897   1.871  21.875  0.00  0.00    +0.000 F 
ATOM     10  C   UNL     1       1.457   4.116  21.341  0.00  0.00    +0.000 A 
ATOM     11  C   UNL     1       1.667   5.206  20.501  0.00  0.00    +0.000 A 
ATOM     12  F   UNL     1       1.005   6.326  20.824  0.00  0.00    +0.000 F 
ATOM     13  C   UNL     1       2.531   5.152  19.386  0.00  0.00    +0.000 A 
ENDROOT
BRANCH   3  14
ATOM     14  C   UNL     1       5.245   4.857  16.045  0.00  0.00    +0.000 A 
ATOM     15  C   UNL     1       5.119   4.224  14.817  0.00  0.00    +0.000 A 
ATOM     16  N   UNL     1       6.177   4.362  13.940  0.00  0.00    +0.000 NA
ATOM     17  C   UNL     1       7.112   5.089  14.489  0.00  0.00    +0.000 A 
ATOM     18  N   UNL     1       8.259   5.389  13.872  0.00  0.00    +0.000 N 
ATOM     19  S   UNL     1       6.791   5.632  16.076  0.00  0.00    +0.000 S 
ATOM     20  H   UNL     1       8.338   5.177  12.884  0.00  0.00    +0.000 HD
ATOM     21  H   UNL     1       8.887   6.088  14.242  0.00  0.00    +0.000 HD
ENDBRANCH   3  14
BRANCH   1  22
ATOM     22  C   UNL     1       2.409   7.599  18.939  0.00  0.00    +0.000 C 
BRANCH  22  23
ATOM     23  C   UNL     1       2.519   8.570  17.762  0.00  0.00    +0.000 C 
BRANCH  23  24
ATOM     24  C   UNL     1       1.748   9.852  18.048  0.00  0.00    +0.000 C 
BRANCH  24  25
ATOM     25  C   UNL     1       0.596   9.568  19.001  0.00  0.00    +0.000 C 
BRANCH  25  26
ATOM     26  C   UNL     1      -0.581  10.479  18.693  0.00  0.00    +0.000 C 
BRANCH  26  27
ATOM     27  C   UNL     1      -1.393   9.917  17.539  0.00  0.00    +0.000 C 
BRANCH  27  28
ATOM     28  C   UNL     1      -2.862  10.269  17.715  0.00  0.00    +0.000 C 
BRANCH  28  29
ATOM     29  C   UNL     1      -3.014  11.415  18.702  0.00  0.00    +0.000 C 
BRANCH  29  30
ATOM     30  C   UNL     1      -4.417  11.998  18.620  0.00  0.00    +0.000 C 
BRANCH  30  31
ATOM     31  C   UNL     1      -5.277  11.174  17.671  0.00  0.00    +0.000 C 
BRANCH  31  33
ATOM     32  C   UNL     1      -6.824  10.247  19.406  0.00  0.00    +0.000 C 
ATOM     33  C   UNL     1      -6.718  11.112  18.164  0.00  0.00    +0.000 C 
ENDBRANCH  31  33
ENDBRANCH  30  31
ENDBRANCH  29  30
ENDBRANCH  28  29
ENDBRANCH  27  28
ENDBRANCH  26  27
ENDBRANCH  25  26
ENDBRANCH  24  25
ENDBRANCH  23  24
ENDBRANCH  22  23
ENDBRANCH   1  22
TORSDOF 12
ENDMDL
MODEL 6
REMARK VINA RESULT:      -6.9      1.230      2.042
REMARK  Name = 
REMARK  13 active torsions:
REMARK  status: ('A' for Active; 'I' for Inactive)
REMARK    1  A    between atoms: C_1  and  C_2
REMARK    2  A    between atoms: C_2  and  C_3
REMARK    3  A    between atoms: C_3  and  C_4
REMARK    4  A    between atoms: C_4  and  C_5
REMARK    5  A    between atoms: C_5  and  C_6
REMARK    6  A    between atoms: C_6  and  C_7
REMARK    7  A    between atoms: C_7  and  C_8
REMARK    8  A    between atoms: C_8  and  C_9
REMARK    9  A    between atoms: C_9  and  C_10
REMARK   10  A    between atoms: C_10  and  C_11
REMARK   11  A    between atoms: C_11  and  C_12
REMARK   12  A    between atoms: C_12  and  N_13
REMARK   13  A    between atoms: C_15  and  C_16
REMARK                            x       y       z     vdW  Elec       q    Type
REMARK                         _______ _______ _______ _____ _____    ______ ____
ROOT
ATOM      1  N   UNL     1       2.943   6.296  18.709  0.00  0.00    +0.000 N 
ATOM      2  C   UNL     1       3.869   6.192  17.684  0.00  0.00    +0.000 A 
ATOM      3  C   UNL     1       4.549   5.093  17.322  0.00  0.00    +0.000 A 
ATOM      4  C   UNL     1       4.286   3.865  18.119  0.00  0.00    +0.000 A 
ATOM      5  O   UNL     1       4.873   2.799  17.899  0.00  0.00    +0.000 OA
ATOM      6  C   UNL     1       3.311   3.943  19.225  0.00  0.00    +0.000 A 
ATOM      7  C   UNL     1       3.108   2.797  20.008  0.00  0.00    +0.000 A 
ATOM      8  C   UNL     1       2.229   2.848  21.075  0.00  0.00    +0.000 A 
ATOM      9  F   UNL     1       2.053   1.764  21.841  0.00  0.00    +0.000 F 
ATOM     10  C   UNL     1       1.530   4.004  21.360  0.00  0.00    +0.000 A 
ATOM     11  C   UNL     1       1.728   5.131  20.567  0.00  0.00    +0.000 A 
ATOM     12  F   UNL     1       0.997   6.207  20.894  0.00  0.00    +0.000 F 
ATOM     13  C   UNL     1       2.645   5.158  19.496  0.00  0.00    +0.000 A 
ENDROOT
BRANCH   3  14
ATOM     14  C   UNL     1       5.529   5.109  16.286  0.00  0.00    +0.000 A 
ATOM     15  C   UNL     1       6.831   5.586  16.316  0.00  0.00    +0.000 A 
ATOM     16  N   UNL     1       7.570   5.434  15.159  0.00  0.00    +0.000 NA
ATOM     17  C   UNL     1       6.842   4.853  14.245  0.00  0.00    +0.000 A 
ATOM     18  N   UNL     1       7.296   4.578  13.018  0.00  0.00    +0.000 N 
ATOM     19  S   UNL     1       5.243   4.471  14.705  0.00  0.00    +0.000 S 
ATOM     20  H   UNL     1       8.289   4.682  12.843  0.00  0.00    +0.000 HD
ATOM     21  H   UNL     1       6.781   3.979  12.389  0.00  0.00    +0.000 HD
ENDBRANCH   3  14
BRANCH   1  22
ATOM     22  C   UNL     1       2.426   7.611  19.124  0.00  0.00    +0.000 C 
BRANCH  22  23
ATOM     23  C   UNL     1       2.425   8.591  17.950  0.00  0.00    +0.000 C 
BRANCH  23  24
ATOM     24  C   UNL     1       1.047   9.213  17.769  0.00  0.00    +0.000 C 
BRANCH  24  25
ATOM     25  C   UNL     1       0.607   9.895  19.056  0.00  0.00    +0.000 C 
BRANCH  25  26
ATOM     26  C   UNL     1       1.332  11.218  19.228  0.00  0.00    +0.000 C 
BRANCH  26  27
ATOM     27  C   UNL     1       0.415  12.241  19.876  0.00  0.00    +0.000 C 
BRANCH  27  28
ATOM     28  C   UNL     1      -0.406  11.584  20.974  0.00  0.00    +0.000 C 
BRANCH  28  29
ATOM     29  C   UNL     1      -1.815  12.155  20.990  0.00  0.00    +0.000 C 
BRANCH  29  30
ATOM     30  C   UNL     1      -2.166  12.731  19.626  0.00  0.00    +0.000 C 
BRANCH  30  31
ATOM     31  C   UNL     1      -3.019  11.746  18.840  0.00  0.00    +0.000 C 
BRANCH  31  33
ATOM     32  C   UNL     1      -2.715   9.925  17.151  0.00  0.00    +0.000 C 
ATOM     33  C   UNL     1      -2.319  11.334  17.549  0.00  0.00    +0.000 C 
ENDBRANCH  31  33
ENDBRANCH  30  31
ENDBRANCH  29  30
ENDBRANCH  28  29
ENDBRANCH  27  28
ENDBRANCH  26  27
ENDBRANCH  25  26
ENDBRANCH  24  25
ENDBRANCH  23  24
ENDBRANCH  22  23
ENDBRANCH   1  22
TORSDOF 12
ENDMDL
MODEL 7
REMARK VINA RESULT:      -6.8      1.051      1.475
REMARK  Name = 
REMARK  13 active torsions:
REMARK  status: ('A' for Active; 'I' for Inactive)
REMARK    1  A    between atoms: C_1  and  C_2
REMARK    2  A    between atoms: C_2  and  C_3
REMARK    3  A    between atoms: C_3  and  C_4
REMARK    4  A    between atoms: C_4  and  C_5
REMARK    5  A    between atoms: C_5  and  C_6
REMARK    6  A    between atoms: C_6  and  C_7
REMARK    7  A    between atoms: C_7  and  C_8
REMARK    8  A    between atoms: C_8  and  C_9
REMARK    9  A    between atoms: C_9  and  C_10
REMARK   10  A    between atoms: C_10  and  C_11
REMARK   11  A    between atoms: C_11  and  C_12
REMARK   12  A    between atoms: C_12  and  N_13
REMARK   13  A    between atoms: C_15  and  C_16
REMARK                            x       y       z     vdW  Elec       q    Type
REMARK                         _______ _______ _______ _____ _____    ______ ____
ROOT
ATOM      1  N   UNL     1       2.969   6.430  18.618  0.00  0.00    +0.000 N 
ATOM      2  C   UNL     1       3.902   6.305  17.602  0.00  0.00    +0.000 A 
ATOM      3  C   UNL     1       4.609   5.208  17.288  0.00  0.00    +0.000 A 
ATOM      4  C   UNL     1       4.369   4.008  18.133  0.00  0.00    +0.000 A 
ATOM      5  O   UNL     1       4.981   2.948  17.959  0.00  0.00    +0.000 OA
ATOM      6  C   UNL     1       3.387   4.108  19.231  0.00  0.00    +0.000 A 
ATOM      7  C   UNL     1       3.206   2.991  20.060  0.00  0.00    +0.000 A 
ATOM      8  C   UNL     1       2.320   3.065  21.120  0.00  0.00    +0.000 A 
ATOM      9  F   UNL     1       2.165   2.010  21.928  0.00  0.00    +0.000 F 
ATOM     10  C   UNL     1       1.594   4.216  21.354  0.00  0.00    +0.000 A 
ATOM     11  C   UNL     1       1.770   5.314  20.517  0.00  0.00    +0.000 A 
ATOM     12  F   UNL     1       1.014   6.385  20.797  0.00  0.00    +0.000 F 
ATOM     13  C   UNL     1       2.693   5.318  19.449  0.00  0.00    +0.000 A 
ENDROOT
BRANCH   3  14
ATOM     14  C   UNL     1       5.593   5.205  16.257  0.00  0.00    +0.000 A 
ATOM     15  C   UNL     1       6.896   5.679  16.284  0.00  0.00    +0.000 A 
ATOM     16  N   UNL     1       7.640   5.506  15.134  0.00  0.00    +0.000 NA
ATOM     17  C   UNL     1       6.915   4.911  14.226  0.00  0.00    +0.000 A 
ATOM     18  N   UNL     1       7.374   4.615  13.006  0.00  0.00    +0.000 N 
ATOM     19  S   UNL     1       5.313   4.540  14.685  0.00  0.00    +0.000 S 
ATOM     20  H   UNL     1       8.368   4.713  12.834  0.00  0.00    +0.000 HD
ATOM     21  H   UNL     1       6.860   4.006  12.385  0.00  0.00    +0.000 HD
ENDBRANCH   3  14
BRANCH   1  22
ATOM     22  C   UNL     1       2.420   7.748  18.977  0.00  0.00    +0.000 C 
BRANCH  22  23
ATOM     23  C   UNL     1       2.003   8.524  17.727  0.00  0.00    +0.000 C 
BRANCH  23  24
ATOM     24  C   UNL     1       1.664   9.966  18.076  0.00  0.00    +0.000 C 
BRANCH  24  25
ATOM     25  C   UNL     1       0.340  10.026  18.825  0.00  0.00    +0.000 C 
BRANCH  25  26
ATOM     26  C   UNL     1      -0.820   9.831  17.864  0.00  0.00    +0.000 C 
BRANCH  26  27
ATOM     27  C   UNL     1      -1.713  11.061  17.860  0.00  0.00    +0.000 C 
BRANCH  27  28
ATOM     28  C   UNL     1      -1.038  12.197  18.611  0.00  0.00    +0.000 C 
BRANCH  28  29
ATOM     29  C   UNL     1      -1.935  12.690  19.736  0.00  0.00    +0.000 C 
BRANCH  29  30
ATOM     30  C   UNL     1      -1.240  12.514  21.079  0.00  0.00    +0.000 C 
BRANCH  30  31
ATOM     31  C   UNL     1      -2.185  12.878  22.215  0.00  0.00    +0.000 C 
BRANCH  31  33
ATOM     32  C   UNL     1      -1.097  10.778  23.032  0.00  0.00    +0.000 C 
ATOM     33  C   UNL     1      -2.218  11.774  23.266  0.00  0.00    +0.000 C 
ENDBRANCH  31  33
ENDBRANCH  30  31
ENDBRANCH  29  30
ENDBRANCH  28  29
ENDBRANCH  27  28
ENDBRANCH  26  27
ENDBRANCH  25  26
ENDBRANCH  24  25
ENDBRANCH  23  24
ENDBRANCH  22  23
ENDBRANCH   1  22
TORSDOF 12
ENDMDL
MODEL 8
REMARK VINA RESULT:      -6.8      2.353      3.233
REMARK  Name = 
REMARK  13 active torsions:
REMARK  status: ('A' for Active; 'I' for Inactive)
REMARK    1  A    between atoms: C_1  and  C_2
REMARK    2  A    between atoms: C_2  and  C_3
REMARK    3  A    between atoms: C_3  and  C_4
REMARK    4  A    between atoms: C_4  and  C_5
REMARK    5  A    between atoms: C_5  and  C_6
REMARK    6  A    between atoms: C_6  and  C_7
REMARK    7  A    between atoms: C_7  and  C_8
REMARK    8  A    between atoms: C_8  and  C_9
REMARK    9  A    between atoms: C_9  and  C_10
REMARK   10  A    between atoms: C_10  and  C_11
REMARK   11  A    between atoms: C_11  and  C_12
REMARK   12  A    between atoms: C_12  and  N_13
REMARK   13  A    between atoms: C_15  and  C_16
REMARK                            x       y       z     vdW  Elec       q    Type
REMARK                         _______ _______ _______ _____ _____    ______ ____
ROOT
ATOM      1  N   UNL     1       3.093   6.321  18.557  0.00  0.00    +0.000 N 
ATOM      2  C   UNL     1       4.019   6.192  17.535  0.00  0.00    +0.000 A 
ATOM      3  C   UNL     1       4.602   5.058  17.114  0.00  0.00    +0.000 A 
ATOM      4  C   UNL     1       4.217   3.815  17.835  0.00  0.00    +0.000 A 
ATOM      5  O   UNL     1       4.707   2.714  17.558  0.00  0.00    +0.000 OA
ATOM      6  C   UNL     1       3.237   3.917  18.935  0.00  0.00    +0.000 A 
ATOM      7  C   UNL     1       2.919   2.751  19.648  0.00  0.00    +0.000 A 
ATOM      8  C   UNL     1       2.034   2.820  20.708  0.00  0.00    +0.000 A 
ATOM      9  F   UNL     1       1.750   1.715  21.407  0.00  0.00    +0.000 F 
ATOM     10  C   UNL     1       1.439   4.018  21.055  0.00  0.00    +0.000 A 
ATOM     11  C   UNL     1       1.750   5.166  20.332  0.00  0.00    +0.000 A 
ATOM     12  F   UNL     1       1.116   6.283  20.715  0.00  0.00    +0.000 F 
ATOM     13  C   UNL     1       2.681   5.170  19.272  0.00  0.00    +0.000 A 
ENDROOT
BRANCH   3  14
ATOM     14  C   UNL     1       5.593   5.045  16.091  0.00  0.00    +0.000 A 
ATOM     15  C   UNL     1       6.916   5.457  16.142  0.00  0.00    +0.000 A 
ATOM     16  N   UNL     1       7.661   5.290  14.992  0.00  0.00    +0.000 NA
ATOM     17  C   UNL     1       6.917   4.760  14.059  0.00  0.00    +0.000 A 
ATOM     18  N   UNL     1       7.372   4.485  12.833  0.00  0.00    +0.000 N 
ATOM     19  S   UNL     1       5.296   4.447  14.495  0.00  0.00    +0.000 S 
ATOM     20  H   UNL     1       8.370   4.543  12.671  0.00  0.00    +0.000 HD
ATOM     21  H   UNL     1       6.836   3.922  12.188  0.00  0.00    +0.000 HD
ENDBRANCH   3  14
BRANCH   1  22
ATOM     22  C   UNL     1       2.692   7.651  19.044  0.00  0.00    +0.000 C 
BRANCH  22  23
ATOM     23  C   UNL     1       1.783   8.351  18.033  0.00  0.00    +0.000 C 
BRANCH  23  24
ATOM     24  C   UNL     1       1.354   9.717  18.550  0.00  0.00    +0.000 C 
BRANCH  24  25
ATOM     25  C   UNL     1       0.051  10.142  17.888  0.00  0.00    +0.000 C 
BRANCH  25  26
ATOM     26  C   UNL     1      -1.071  10.192  18.911  0.00  0.00    +0.000 C 
BRANCH  26  27
ATOM     27  C   UNL     1      -2.393  10.500  18.229  0.00  0.00    +0.000 C 
BRANCH  27  28
ATOM     28  C   UNL     1      -2.213  10.502  16.719  0.00  0.00    +0.000 C 
BRANCH  28  29
ATOM     29  C   UNL     1      -3.531  10.822  16.032  0.00  0.00    +0.000 C 
BRANCH  29  30
ATOM     30  C   UNL     1      -4.667  10.819  17.046  0.00  0.00    +0.000 C 
BRANCH  30  31
ATOM     31  C   UNL     1      -5.390  12.158  17.032  0.00  0.00    +0.000 C 
BRANCH  31  33
ATOM     32  C   UNL     1      -6.868  10.889  18.602  0.00  0.00    +0.000 C 
ATOM     33  C   UNL     1      -6.357  12.262  18.206  0.00  0.00    +0.000 C 
ENDBRANCH  31  33
ENDBRANCH  30  31
ENDBRANCH  29  30
ENDBRANCH  28  29
ENDBRANCH  27  28
ENDBRANCH  26  27
ENDBRANCH  25  26
ENDBRANCH  24  25
ENDBRANCH  23  24
ENDBRANCH  22  23
ENDBRANCH   1  22
TORSDOF 12
ENDMDL
MODEL 9
REMARK VINA RESULT:      -6.8      1.110      1.802
REMARK  Name = 
REMARK  13 active torsions:
REMARK  status: ('A' for Active; 'I' for Inactive)
REMARK    1  A    between atoms: C_1  and  C_2
REMARK    2  A    between atoms: C_2  and  C_3
REMARK    3  A    between atoms: C_3  and  C_4
REMARK    4  A    between atoms: C_4  and  C_5
REMARK    5  A    between atoms: C_5  and  C_6
REMARK    6  A    between atoms: C_6  and  C_7
REMARK    7  A    between atoms: C_7  and  C_8
REMARK    8  A    between atoms: C_8  and  C_9
REMARK    9  A    between atoms: C_9  and  C_10
REMARK   10  A    between atoms: C_10  and  C_11
REMARK   11  A    between atoms: C_11  and  C_12
REMARK   12  A    between atoms: C_12  and  N_13
REMARK   13  A    between atoms: C_15  and  C_16
REMARK                            x       y       z     vdW  Elec       q    Type
REMARK                         _______ _______ _______ _____ _____    ______ ____
ROOT
ATOM      1  N   UNL     1       3.068   6.396  18.450  0.00  0.00    +0.000 N 
ATOM      2  C   UNL     1       3.992   6.238  17.430  0.00  0.00    +0.000 A 
ATOM      3  C   UNL     1       4.576   5.093  17.042  0.00  0.00    +0.000 A 
ATOM      4  C   UNL     1       4.196   3.872  17.802  0.00  0.00    +0.000 A 
ATOM      5  O   UNL     1       4.688   2.764  17.556  0.00  0.00    +0.000 OA
ATOM      6  C   UNL     1       3.220   4.006  18.901  0.00  0.00    +0.000 A 
ATOM      7  C   UNL     1       2.908   2.861  19.650  0.00  0.00    +0.000 A 
ATOM      8  C   UNL     1       2.025   2.961  20.711  0.00  0.00    +0.000 A 
ATOM      9  F   UNL     1       1.746   1.877  21.444  0.00  0.00    +0.000 F 
ATOM     10  C   UNL     1       1.429   4.166  21.023  0.00  0.00    +0.000 A 
ATOM     11  C   UNL     1       1.734   5.293  20.264  0.00  0.00    +0.000 A 
ATOM     12  F   UNL     1       1.098   6.420  20.615  0.00  0.00    +0.000 F 
ATOM     13  C   UNL     1       2.662   5.267  19.201  0.00  0.00    +0.000 A 
ENDROOT
BRANCH   3  14
ATOM     14  C   UNL     1       5.564   5.051  16.015  0.00  0.00    +0.000 A 
ATOM     15  C   UNL     1       6.887   5.465  16.051  0.00  0.00    +0.000 A 
ATOM     16  N   UNL     1       7.628   5.265  14.904  0.00  0.00    +0.000 NA
ATOM     17  C   UNL     1       6.881   4.709  13.989  0.00  0.00    +0.000 A 
ATOM     18  N   UNL     1       7.332   4.400  12.769  0.00  0.00    +0.000 N 
ATOM     19  S   UNL     1       5.261   4.410  14.438  0.00  0.00    +0.000 S 
ATOM     20  H   UNL     1       8.329   4.453  12.602  0.00  0.00    +0.000 HD
ATOM     21  H   UNL     1       6.793   3.819  12.141  0.00  0.00    +0.000 HD
ENDBRANCH   3  14
BRANCH   1  22
ATOM     22  C   UNL     1       2.666   7.739  18.898  0.00  0.00    +0.000 C 
BRANCH  22  23
ATOM     23  C   UNL     1       1.907   8.478  17.794  0.00  0.00    +0.000 C 
BRANCH  23  24
ATOM     24  C   UNL     1       1.485   9.863  18.264  0.00  0.00    +0.000 C 
BRANCH  24  25
ATOM     25  C   UNL     1       0.676   9.756  19.549  0.00  0.00    +0.000 C 
BRANCH  25  26
ATOM     26  C   UNL     1      -0.756  10.202  19.310  0.00  0.00    +0.000 C 
BRANCH  26  27
ATOM     27  C   UNL     1      -1.123  11.329  20.262  0.00  0.00    +0.000 C 
BRANCH  27  28
ATOM     28  C   UNL     1      -0.142  11.371  21.422  0.00  0.00    +0.000 C 
BRANCH  28  29
ATOM     29  C   UNL     1      -0.827  10.934  22.707  0.00  0.00    +0.000 C 
BRANCH  29  30
ATOM     30  C   UNL     1      -1.948  11.901  23.061  0.00  0.00    +0.000 C 
BRANCH  30  31
ATOM     31  C   UNL     1      -1.388  13.298  23.290  0.00  0.00    +0.000 C 
BRANCH  31  33
ATOM     32  C   UNL     1      -3.476  13.703  21.973  0.00  0.00    +0.000 C 
ATOM     33  C   UNL     1      -2.314  14.355  22.699  0.00  0.00    +0.000 C 
ENDBRANCH  31  33
ENDBRANCH  30  31
ENDBRANCH  29  30
ENDBRANCH  28  29
ENDBRANCH  27  28
ENDBRANCH  26  27
ENDBRANCH  25  26
ENDBRANCH  24  25
ENDBRANCH  23  24
ENDBRANCH  22  23
ENDBRANCH   1  22
TORSDOF 12
ENDMDL
