MODEL 1
REMARK VINA RESULT:      -7.3      0.000      0.000
REMARK  Name = 
REMARK  6 active torsions:
REMARK  status: ('A' for Active; 'I' for Inactive)
REMARK    1  A    between atoms: C_1  and  C_2
REMARK    2  A    between atoms: C_4  and  C_5
REMARK    3  A    between atoms: N_6  and  N_7
REMARK    4  A    between atoms: N_10  and  C_11
REMARK    5  A    between atoms: C_14  and  C_15
REMARK    6  A    between atoms: N_16  and  C_17
REMARK                            x       y       z     vdW  Elec       q    Type
REMARK                         _______ _______ _______ _____ _____    ______ ____
ROOT
ATOM      1  C   UNL     1       3.016   3.959  20.405  0.00  0.00    +0.000 C 
ATOM      2  C   UNL     1       2.599   5.342  20.035  0.00  0.00    +0.000 A 
ATOM      3  C   UNL     1       1.792   6.168  20.795  0.00  0.00    +0.000 A 
ATOM      4  C   UNL     1       1.737   7.434  20.182  0.00  0.00    +0.000 A 
ATOM      5  C   UNL     1       2.489   7.349  19.010  0.00  0.00    +0.000 A 
ATOM      6  C   UNL     1       2.636   8.406  17.959  0.00  0.00    +0.000 C 
ATOM      7  N   UNL     1       3.048   6.066  18.924  0.00  0.00    +0.000 N 
ENDROOT
BRANCH   7   8
ATOM      8  C   UNL     1       3.921   5.588  17.885  0.00  0.00    +0.000 A 
ATOM      9  C   UNL     1       5.125   6.249  17.599  0.00  0.00    +0.000 A 
ATOM     10  C   UNL     1       5.962   5.808  16.567  0.00  0.00    +0.000 A 
ATOM     11  C   UNL     1       5.620   4.677  15.836  0.00  0.00    +0.000 A 
ATOM     12 CL   UNL     1       6.656   4.122  14.581  0.00  0.00    +0.000 Cl
ATOM     13  C   UNL     1       4.442   3.994  16.120  0.00  0.00    +0.000 A 
ATOM     14  C   UNL     1       3.588   4.456  17.129  0.00  0.00    +0.000 A 
ENDBRANCH   7   8
BRANCH   4  15
ATOM     15  C   UNL     1       1.049   8.625  20.629  0.00  0.00    +0.000 C 
ATOM     16  N   UNL     1       0.106   8.588  21.521  0.00  0.00    +0.000 NA
BRANCH  16  17
ATOM     17  N   UNL     1      -0.331   9.851  21.785  0.00  0.00    +0.000 N 
ATOM     18  C   UNL     1      -0.795  10.155  23.148  0.00  0.00    +0.000 C 
ATOM     19  C   UNL     1      -1.645  11.447  23.127  0.00  0.00    +0.000 C 
ATOM     20  N   UNL     1      -0.917  12.609  22.577  0.00  0.00    +0.000 NA
ATOM     21  C   UNL     1      -1.805  13.763  22.446  0.00  0.00    +0.000 C 
ATOM     22  C   UNL     1      -0.325  12.268  21.270  0.00  0.00    +0.000 C 
ATOM     23  C   UNL     1       0.509  10.975  21.317  0.00  0.00    +0.000 C 
ENDBRANCH  16  17
ENDBRANCH   4  15
TORSDOF 3
ENDMDL
MODEL 2
REMARK VINA RESULT:      -7.2      0.183      1.015
REMARK  Name = 
REMARK  6 active torsions:
REMARK  status: ('A' for Active; 'I' for Inactive)
REMARK    1  A    between atoms: C_1  and  C_2
REMARK    2  A    between atoms: C_4  and  C_5
REMARK    3  A    between atoms: N_6  and  N_7
REMARK    4  A    between atoms: N_10  and  C_11
REMARK    5  A    between atoms: C_14  and  C_15
REMARK    6  A    between atoms: N_16  and  C_17
REMARK                            x       y       z     vdW  Elec       q    Type
REMARK                         _______ _______ _______ _____ _____    ______ ____
ROOT
ATOM      1  C   UNL     1       2.920   4.084  20.462  0.00  0.00    +0.000 C 
ATOM      2  C   UNL     1       2.515   5.466  20.076  0.00  0.00    +0.000 A 
ATOM      3  C   UNL     1       1.729   6.314  20.836  0.00  0.00    +0.000 A 
ATOM      4  C   UNL     1       1.680   7.571  20.204  0.00  0.00    +0.000 A 
ATOM      5  C   UNL     1       2.412   7.457  19.021  0.00  0.00    +0.000 A 
ATOM      6  C   UNL     1       2.557   8.495  17.951  0.00  0.00    +0.000 C 
ATOM      7  N   UNL     1       2.954   6.166  18.948  0.00  0.00    +0.000 N 
ENDROOT
BRANCH   7   8
ATOM      8  C   UNL     1       3.805   5.661  17.903  0.00  0.00    +0.000 A 
ATOM      9  C   UNL     1       3.539   4.424  17.296  0.00  0.00    +0.000 A 
ATOM     10  C   UNL     1       4.381   3.912  16.302  0.00  0.00    +0.000 A 
ATOM     11  C   UNL     1       5.478   4.653  15.878  0.00  0.00    +0.000 A 
ATOM     12 CL   UNL     1       6.504   4.035  14.644  0.00  0.00    +0.000 Cl
ATOM     13  C   UNL     1       5.746   5.892  16.450  0.00  0.00    +0.000 A 
ATOM     14  C   UNL     1       4.922   6.387  17.470  0.00  0.00    +0.000 A 
ENDBRANCH   7   8
BRANCH   4  15
ATOM     15  C   UNL     1       1.014   8.777  20.641  0.00  0.00    +0.000 C 
ATOM     16  N   UNL     1       0.013   8.756  21.469  0.00  0.00    +0.000 NA
BRANCH  16  17
ATOM     17  N   UNL     1      -0.388  10.028  21.743  0.00  0.00    +0.000 N 
ATOM     18  C   UNL     1      -0.851  10.332  23.106  0.00  0.00    +0.000 C 
ATOM     19  C   UNL     1      -1.662  11.648  23.094  0.00  0.00    +0.000 C 
ATOM     20  N   UNL     1      -0.896  12.794  22.560  0.00  0.00    +0.000 NA
ATOM     21  C   UNL     1      -1.749  13.975  22.436  0.00  0.00    +0.000 C 
ATOM     22  C   UNL     1      -0.307  12.449  21.253  0.00  0.00    +0.000 C 
ATOM     23  C   UNL     1       0.488  11.132  21.291  0.00  0.00    +0.000 C 
ENDBRANCH  16  17
ENDBRANCH   4  15
TORSDOF 3
ENDMDL
MODEL 3
REMARK VINA RESULT:      -7.1      0.608      1.157
REMARK  Name = 
REMARK  6 active torsions:
REMARK  status: ('A' for Active; 'I' for Inactive)
REMARK    1  A    between atoms: C_1  and  C_2
REMARK    2  A    between atoms: C_4  and  C_5
REMARK    3  A    between atoms: N_6  and  N_7
REMARK    4  A    between atoms: N_10  and  C_11
REMARK    5  A    between atoms: C_14  and  C_15
REMARK    6  A    between atoms: N_16  and  C_17
REMARK                            x       y       z     vdW  Elec       q    Type
REMARK                         _______ _______ _______ _____ _____    ______ ____
ROOT
ATOM      1  C   UNL     1       3.375   3.662  20.296  0.00  0.00    +0.000 C 
ATOM      2  C   UNL     1       2.862   5.029  19.995  0.00  0.00    +0.000 A 
ATOM      3  C   UNL     1       2.003   5.759  20.795  0.00  0.00    +0.000 A 
ATOM      4  C   UNL     1       1.858   7.047  20.244  0.00  0.00    +0.000 A 
ATOM      5  C   UNL     1       2.609   7.071  19.068  0.00  0.00    +0.000 A 
ATOM      6  C   UNL     1       2.678   8.185  18.070  0.00  0.00    +0.000 C 
ATOM      7  N   UNL     1       3.255   5.835  18.920  0.00  0.00    +0.000 N 
ENDROOT
BRANCH   7   8
ATOM      8  C   UNL     1       4.154   5.470  17.858  0.00  0.00    +0.000 A 
ATOM      9  C   UNL     1       5.341   6.187  17.643  0.00  0.00    +0.000 A 
ATOM     10  C   UNL     1       6.203   5.858  16.591  0.00  0.00    +0.000 A 
ATOM     11  C   UNL     1       5.905   4.779  15.767  0.00  0.00    +0.000 A 
ATOM     12 CL   UNL     1       6.973   4.359  14.485  0.00  0.00    +0.000 Cl
ATOM     13  C   UNL     1       4.746   4.040  15.977  0.00  0.00    +0.000 A 
ATOM     14  C   UNL     1       3.866   4.394  17.008  0.00  0.00    +0.000 A 
ENDBRANCH   7   8
BRANCH   4  15
ATOM     15  C   UNL     1       1.091   8.165  20.748  0.00  0.00    +0.000 C 
ATOM     16  N   UNL     1       1.542   8.951  21.679  0.00  0.00    +0.000 NA
BRANCH  16  17
ATOM     17  N   UNL     1       0.638   9.940  21.926  0.00  0.00    +0.000 N 
ATOM     18  C   UNL     1       0.212  10.788  20.801  0.00  0.00    +0.000 C 
ATOM     19  C   UNL     1      -0.430  12.084  21.348  0.00  0.00    +0.000 C 
ATOM     20  N   UNL     1      -1.577  11.828  22.244  0.00  0.00    +0.000 NA
ATOM     21  C   UNL     1      -2.054  13.073  22.844  0.00  0.00    +0.000 C 
ATOM     22  C   UNL     1      -1.198  10.867  23.296  0.00  0.00    +0.000 C 
ATOM     23  C   UNL     1      -0.556   9.590  22.725  0.00  0.00    +0.000 C 
ENDBRANCH  16  17
ENDBRANCH   4  15
TORSDOF 3
ENDMDL
MODEL 4
REMARK VINA RESULT:      -7.1      0.892      1.396
REMARK  Name = 
REMARK  6 active torsions:
REMARK  status: ('A' for Active; 'I' for Inactive)
REMARK    1  A    between atoms: C_1  and  C_2
REMARK    2  A    between atoms: C_4  and  C_5
REMARK    3  A    between atoms: N_6  and  N_7
REMARK    4  A    between atoms: N_10  and  C_11
REMARK    5  A    between atoms: C_14  and  C_15
REMARK    6  A    between atoms: N_16  and  C_17
REMARK                            x       y       z     vdW  Elec       q    Type
REMARK                         _______ _______ _______ _____ _____    ______ ____
ROOT
ATOM      1  C   UNL     1       4.042   3.717  19.789  0.00  0.00    +0.000 C 
ATOM      2  C   UNL     1       3.427   5.045  19.506  0.00  0.00    +0.000 A 
ATOM      3  C   UNL     1       2.513   5.696  20.314  0.00  0.00    +0.000 A 
ATOM      4  C   UNL     1       2.272   6.977  19.782  0.00  0.00    +0.000 A 
ATOM      5  C   UNL     1       3.021   7.075  18.609  0.00  0.00    +0.000 A 
ATOM      6  C   UNL     1       3.007   8.206  17.628  0.00  0.00    +0.000 C 
ATOM      7  N   UNL     1       3.760   5.895  18.445  0.00  0.00    +0.000 N 
ENDROOT
BRANCH   7   8
ATOM      8  C   UNL     1       4.686   5.615  17.380  0.00  0.00    +0.000 A 
ATOM      9  C   UNL     1       4.352   4.717  16.355  0.00  0.00    +0.000 A 
ATOM     10  C   UNL     1       5.262   4.415  15.335  0.00  0.00    +0.000 A 
ATOM     11  C   UNL     1       6.503   5.041  15.310  0.00  0.00    +0.000 A 
ATOM     12 CL   UNL     1       7.615   4.687  14.047  0.00  0.00    +0.000 Cl
ATOM     13  C   UNL     1       6.844   5.952  16.303  0.00  0.00    +0.000 A 
ATOM     14  C   UNL     1       5.947   6.226  17.343  0.00  0.00    +0.000 A 
ENDBRANCH   7   8
BRANCH   4  15
ATOM     15  C   UNL     1       1.422   8.025  20.301  0.00  0.00    +0.000 C 
ATOM     16  N   UNL     1       0.984   8.022  21.524  0.00  0.00    +0.000 NA
BRANCH  16  17
ATOM     17  N   UNL     1       0.249   9.145  21.755  0.00  0.00    +0.000 N 
ATOM     18  C   UNL     1       0.053   9.573  23.149  0.00  0.00    +0.000 C 
ATOM     19  C   UNL     1      -1.140  10.555  23.224  0.00  0.00    +0.000 C 
ATOM     20  N   UNL     1      -0.969  11.740  22.357  0.00  0.00    +0.000 NA
ATOM     21  C   UNL     1      -2.180  12.559  22.355  0.00  0.00    +0.000 C 
ATOM     22  C   UNL     1      -0.632  11.322  20.984  0.00  0.00    +0.000 C 
ATOM     23  C   UNL     1       0.553  10.340  20.938  0.00  0.00    +0.000 C 
ENDBRANCH  16  17
ENDBRANCH   4  15
TORSDOF 3
ENDMDL
MODEL 5
REMARK VINA RESULT:      -7.0      7.892     10.674
REMARK  Name = 
REMARK  6 active torsions:
REMARK  status: ('A' for Active; 'I' for Inactive)
REMARK    1  A    between atoms: C_1  and  C_2
REMARK    2  A    between atoms: C_4  and  C_5
REMARK    3  A    between atoms: N_6  and  N_7
REMARK    4  A    between atoms: N_10  and  C_11
REMARK    5  A    between atoms: C_14  and  C_15
REMARK    6  A    between atoms: N_16  and  C_17
REMARK                            x       y       z     vdW  Elec       q    Type
REMARK                         _______ _______ _______ _____ _____    ______ ____
ROOT
ATOM      1  C   UNL     1      12.143  12.535  19.778  0.00  0.00    +0.000 C 
ATOM      2  C   UNL     1      10.924  12.018  19.094  0.00  0.00    +0.000 A 
ATOM      3  C   UNL     1      10.460  10.717  19.154  0.00  0.00    +0.000 A 
ATOM      4  C   UNL     1       9.217  10.650  18.495  0.00  0.00    +0.000 A 
ATOM      5  C   UNL     1       8.957  11.925  17.993  0.00  0.00    +0.000 A 
ATOM      6  C   UNL     1       7.809  12.329  17.120  0.00  0.00    +0.000 C 
ATOM      7  N   UNL     1       9.994  12.785  18.382  0.00  0.00    +0.000 N 
ENDROOT
BRANCH   7   8
ATOM      8  C   UNL     1      10.081  14.193  18.099  0.00  0.00    +0.000 A 
ATOM      9  C   UNL     1      10.871  14.664  17.039  0.00  0.00    +0.000 A 
ATOM     10  C   UNL     1      10.986  16.035  16.779  0.00  0.00    +0.000 A 
ATOM     11  C   UNL     1      10.279  16.946  17.555  0.00  0.00    +0.000 A 
ATOM     12 CL   UNL     1      10.402  18.629  17.226  0.00  0.00    +0.000 Cl
ATOM     13  C   UNL     1       9.471  16.498  18.595  0.00  0.00    +0.000 A 
ATOM     14  C   UNL     1       9.385  15.128  18.876  0.00  0.00    +0.000 A 
ENDBRANCH   7   8
BRANCH   4  15
ATOM     15  C   UNL     1       8.341   9.511  18.333  0.00  0.00    +0.000 C 
ATOM     16  N   UNL     1       8.751   8.290  18.503  0.00  0.00    +0.000 NA
BRANCH  16  17
ATOM     17  N   UNL     1       7.712   7.425  18.333  0.00  0.00    +0.000 N 
ATOM     18  C   UNL     1       7.171   7.249  16.977  0.00  0.00    +0.000 C 
ATOM     19  C   UNL     1       5.764   6.612  17.063  0.00  0.00    +0.000 C 
ATOM     20  N   UNL     1       5.758   5.318  17.776  0.00  0.00    +0.000 NA
ATOM     21  C   UNL     1       4.391   4.831  17.955  0.00  0.00    +0.000 C 
ATOM     22  C   UNL     1       6.427   5.452  19.083  0.00  0.00    +0.000 C 
ATOM     23  C   UNL     1       7.822   6.095  18.969  0.00  0.00    +0.000 C 
ENDBRANCH  16  17
ENDBRANCH   4  15
TORSDOF 3
ENDMDL
MODEL 6
REMARK VINA RESULT:      -7.0      1.198      1.584
REMARK  Name = 
REMARK  6 active torsions:
REMARK  status: ('A' for Active; 'I' for Inactive)
REMARK    1  A    between atoms: C_1  and  C_2
REMARK    2  A    between atoms: C_4  and  C_5
REMARK    3  A    between atoms: N_6  and  N_7
REMARK    4  A    between atoms: N_10  and  C_11
REMARK    5  A    between atoms: C_14  and  C_15
REMARK    6  A    between atoms: N_16  and  C_17
REMARK                            x       y       z     vdW  Elec       q    Type
REMARK                         _______ _______ _______ _____ _____    ______ ____
ROOT
ATOM      1  C   UNL     1       4.212   3.066  19.279  0.00  0.00    +0.000 C 
ATOM      2  C   UNL     1       3.658   4.447  19.192  0.00  0.00    +0.000 A 
ATOM      3  C   UNL     1       2.834   5.042  20.130  0.00  0.00    +0.000 A 
ATOM      4  C   UNL     1       2.633   6.388  19.766  0.00  0.00    +0.000 A 
ATOM      5  C   UNL     1       3.313   6.587  18.564  0.00  0.00    +0.000 A 
ATOM      6  C   UNL     1       3.303   7.825  17.722  0.00  0.00    +0.000 C 
ATOM      7  N   UNL     1       3.972   5.399  18.215  0.00  0.00    +0.000 N 
ENDROOT
BRANCH   7   8
ATOM      8  C   UNL     1       4.813   5.201  17.065  0.00  0.00    +0.000 A 
ATOM      9  C   UNL     1       6.064   5.830  16.974  0.00  0.00    +0.000 A 
ATOM     10  C   UNL     1       6.873   5.668  15.844  0.00  0.00    +0.000 A 
ATOM     11  C   UNL     1       6.454   4.842  14.808  0.00  0.00    +0.000 A 
ATOM     12 CL   UNL     1       7.454   4.626  13.425  0.00  0.00    +0.000 Cl
ATOM     13  C   UNL     1       5.228   4.191  14.888  0.00  0.00    +0.000 A 
ATOM     14  C   UNL     1       4.403   4.382  16.005  0.00  0.00    +0.000 A 
ENDBRANCH   7   8
BRANCH   4  15
ATOM     15  C   UNL     1       1.878   7.408  20.458  0.00  0.00    +0.000 C 
ATOM     16  N   UNL     1       1.446   8.477  19.859  0.00  0.00    +0.000 NA
BRANCH  16  17
ATOM     17  N   UNL     1       0.729   9.238  20.732  0.00  0.00    +0.000 N 
ATOM     18  C   UNL     1       0.961   9.048  22.173  0.00  0.00    +0.000 C 
ATOM     19  C   UNL     1      -0.223   9.643  22.969  0.00  0.00    +0.000 C 
ATOM     20  N   UNL     1      -0.449  11.076  22.685  0.00  0.00    +0.000 NA
ATOM     21  C   UNL     1      -1.662  11.550  23.348  0.00  0.00    +0.000 C 
ATOM     22  C   UNL     1      -0.542  11.298  21.230  0.00  0.00    +0.000 C 
ATOM     23  C   UNL     1       0.645  10.690  20.461  0.00  0.00    +0.000 C 
ENDBRANCH  16  17
ENDBRANCH   4  15
TORSDOF 3
ENDMDL
MODEL 7
REMARK VINA RESULT:      -6.9      0.641      1.513
REMARK  Name = 
REMARK  6 active torsions:
REMARK  status: ('A' for Active; 'I' for Inactive)
REMARK    1  A    between atoms: C_1  and  C_2
REMARK    2  A    between atoms: C_4  and  C_5
REMARK    3  A    between atoms: N_6  and  N_7
REMARK    4  A    between atoms: N_10  and  C_11
REMARK    5  A    between atoms: C_14  and  C_15
REMARK    6  A    between atoms: N_16  and  C_17
REMARK                            x       y       z     vdW  Elec       q    Type
REMARK                         _______ _______ _______ _____ _____    ______ ____
ROOT
ATOM      1  C   UNL     1       3.131   3.712  20.459  0.00  0.00    +0.000 C 
ATOM      2  C   UNL     1       2.661   5.089  20.139  0.00  0.00    +0.000 A 
ATOM      3  C   UNL     1       1.753   5.821  20.882  0.00  0.00    +0.000 A 
ATOM      4  C   UNL     1       1.668   7.118  20.341  0.00  0.00    +0.000 A 
ATOM      5  C   UNL     1       2.506   7.146  19.225  0.00  0.00    +0.000 A 
ATOM      6  C   UNL     1       2.666   8.272  18.251  0.00  0.00    +0.000 C 
ATOM      7  N   UNL     1       3.145   5.904  19.109  0.00  0.00    +0.000 N 
ENDROOT
BRANCH   7   8
ATOM      8  C   UNL     1       4.117   5.539  18.113  0.00  0.00    +0.000 A 
ATOM      9  C   UNL     1       3.756   4.741  17.016  0.00  0.00    +0.000 A 
ATOM     10  C   UNL     1       4.705   4.356  16.062  0.00  0.00    +0.000 A 
ATOM     11  C   UNL     1       6.018   4.799  16.175  0.00  0.00    +0.000 A 
ATOM     12 CL   UNL     1       7.181   4.343  14.994  0.00  0.00    +0.000 Cl
ATOM     13  C   UNL     1       6.390   5.609  17.242  0.00  0.00    +0.000 A 
ATOM     14  C   UNL     1       5.448   5.965  18.216  0.00  0.00    +0.000 A 
ENDBRANCH   7   8
BRANCH   4  15
ATOM     15  C   UNL     1       0.880   8.240  20.801  0.00  0.00    +0.000 C 
ATOM     16  N   UNL     1       1.300   9.049  21.728  0.00  0.00    +0.000 NA
BRANCH  16  17
ATOM     17  N   UNL     1       0.384  10.036  21.930  0.00  0.00    +0.000 N 
ATOM     18  C   UNL     1      -0.177  10.716  20.752  0.00  0.00    +0.000 C 
ATOM     19  C   UNL     1      -0.818  12.054  21.185  0.00  0.00    +0.000 C 
ATOM     20  N   UNL     1      -1.869  11.886  22.212  0.00  0.00    +0.000 NA
ATOM     21  C   UNL     1      -2.339  13.185  22.689  0.00  0.00    +0.000 C 
ATOM     22  C   UNL     1      -1.358  11.082  23.337  0.00  0.00    +0.000 C 
ATOM     23  C   UNL     1      -0.718   9.760  22.877  0.00  0.00    +0.000 C 
ENDBRANCH  16  17
ENDBRANCH   4  15
TORSDOF 3
ENDMDL
MODEL 8
REMARK VINA RESULT:      -6.9      1.301      1.813
REMARK  Name = 
REMARK  6 active torsions:
REMARK  status: ('A' for Active; 'I' for Inactive)
REMARK    1  A    between atoms: C_1  and  C_2
REMARK    2  A    between atoms: C_4  and  C_5
REMARK    3  A    between atoms: N_6  and  N_7
REMARK    4  A    between atoms: N_10  and  C_11
REMARK    5  A    between atoms: C_14  and  C_15
REMARK    6  A    between atoms: N_16  and  C_17
REMARK                            x       y       z     vdW  Elec       q    Type
REMARK                         _______ _______ _______ _____ _____    ______ ____
ROOT
ATOM      1  C   UNL     1       2.354   4.769  20.969  0.00  0.00    +0.000 C 
ATOM      2  C   UNL     1       2.065   6.101  20.364  0.00  0.00    +0.000 A 
ATOM      3  C   UNL     1       1.338   7.114  20.962  0.00  0.00    +0.000 A 
ATOM      4  C   UNL     1       1.400   8.257  20.143  0.00  0.00    +0.000 A 
ATOM      5  C   UNL     1       2.138   7.905  19.012  0.00  0.00    +0.000 A 
ATOM      6  C   UNL     1       2.381   8.750  17.800  0.00  0.00    +0.000 C 
ATOM      7  N   UNL     1       2.577   6.581  19.154  0.00  0.00    +0.000 N 
ENDROOT
BRANCH   7   8
ATOM      8  C   UNL     1       3.401   5.856  18.223  0.00  0.00    +0.000 A 
ATOM      9  C   UNL     1       2.955   4.652  17.656  0.00  0.00    +0.000 A 
ATOM     10  C   UNL     1       3.765   3.926  16.776  0.00  0.00    +0.000 A 
ATOM     11  C   UNL     1       5.016   4.418  16.423  0.00  0.00    +0.000 A 
ATOM     12 CL   UNL     1       6.005   3.537  15.327  0.00  0.00    +0.000 Cl
ATOM     13  C   UNL     1       5.467   5.621  16.955  0.00  0.00    +0.000 A 
ATOM     14  C   UNL     1       4.670   6.329  17.864  0.00  0.00    +0.000 A 
ENDBRANCH   7   8
BRANCH   4  15
ATOM     15  C   UNL     1       0.825   9.564  20.371  0.00  0.00    +0.000 C 
ATOM     16  N   UNL     1      -0.453   9.784  20.289  0.00  0.00    +0.000 NA
BRANCH  16  17
ATOM     17  N   UNL     1      -0.719  11.085  20.596  0.00  0.00    +0.000 N 
ATOM     18  C   UNL     1       0.382  11.916  21.109  0.00  0.00    +0.000 C 
ATOM     19  C   UNL     1      -0.201  13.169  21.804  0.00  0.00    +0.000 C 
ATOM     20  N   UNL     1      -1.063  13.975  20.915  0.00  0.00    +0.000 NA
ATOM     21  C   UNL     1      -1.700  15.062  21.657  0.00  0.00    +0.000 C 
ATOM     22  C   UNL     1      -2.085  13.120  20.283  0.00  0.00    +0.000 C 
ATOM     23  C   UNL     1      -1.480  11.877  19.606  0.00  0.00    +0.000 C 
ENDBRANCH  16  17
ENDBRANCH   4  15
TORSDOF 3
ENDMDL
MODEL 9
REMARK VINA RESULT:      -6.9      3.645      8.288
REMARK  Name = 
REMARK  6 active torsions:
REMARK  status: ('A' for Active; 'I' for Inactive)
REMARK    1  A    between atoms: C_1  and  C_2
REMARK    2  A    between atoms: C_4  and  C_5
REMARK    3  A    between atoms: N_6  and  N_7
REMARK    4  A    between atoms: N_10  and  C_11
REMARK    5  A    between atoms: C_14  and  C_15
REMARK    6  A    between atoms: N_16  and  C_17
REMARK                            x       y       z     vdW  Elec       q    Type
REMARK                         _______ _______ _______ _____ _____    ______ ____
ROOT
ATOM      1  C   UNL     1      -0.448  10.660  22.703  0.00  0.00    +0.000 C 
ATOM      2  C   UNL     1       0.306   9.903  21.664  0.00  0.00    +0.000 A 
ATOM      3  C   UNL     1       0.665   8.570  21.744  0.00  0.00    +0.000 A 
ATOM      4  C   UNL     1       1.242   8.183  20.519  0.00  0.00    +0.000 A 
ATOM      5  C   UNL     1       1.271   9.320  19.709  0.00  0.00    +0.000 A 
ATOM      6  C   UNL     1       1.896   9.440  18.354  0.00  0.00    +0.000 C 
ATOM      7  N   UNL     1       0.669  10.381  20.400  0.00  0.00    +0.000 N 
ENDROOT
BRANCH   7   8
ATOM      8  C   UNL     1       0.466  11.714  19.897  0.00  0.00    +0.000 A 
ATOM      9  C   UNL     1       1.364  12.745  20.211  0.00  0.00    +0.000 A 
ATOM     10  C   UNL     1       1.154  14.050  19.752  0.00  0.00    +0.000 A 
ATOM     11  C   UNL     1       0.061  14.329  18.940  0.00  0.00    +0.000 A 
ATOM     12 CL   UNL     1      -0.190  15.927  18.359  0.00  0.00    +0.000 Cl
ATOM     13  C   UNL     1      -0.829  13.316  18.598  0.00  0.00    +0.000 A 
ATOM     14  C   UNL     1      -0.637  12.017  19.087  0.00  0.00    +0.000 A 
ENDBRANCH   7   8
BRANCH   4  15
ATOM     15  C   UNL     1       1.733   6.883  20.121  0.00  0.00    +0.000 C 
ATOM     16  N   UNL     1       1.603   5.832  20.875  0.00  0.00    +0.000 NA
BRANCH  16  17
ATOM     17  N   UNL     1       2.110   4.740  20.238  0.00  0.00    +0.000 N 
ATOM     18  C   UNL     1       1.165   3.796  19.620  0.00  0.00    +0.000 C 
ATOM     19  C   UNL     1       1.879   2.448  19.364  0.00  0.00    +0.000 C 
ATOM     20  N   UNL     1       3.079   2.582  18.512  0.00  0.00    +0.000 NA
ATOM     21  C   UNL     1       3.793   1.310  18.419  0.00  0.00    +0.000 C 
ATOM     22  C   UNL     1       3.969   3.630  19.046  0.00  0.00    +0.000 C 
ATOM     23  C   UNL     1       3.232   4.958  19.300  0.00  0.00    +0.000 C 
ENDBRANCH  16  17
ENDBRANCH   4  15
TORSDOF 3
ENDMDL
