MODEL 1
REMARK VINA RESULT:      -8.1      0.000      0.000
REMARK  Name = 
REMARK  9 active torsions:
REMARK  status: ('A' for Active; 'I' for Inactive)
REMARK    1  A    between atoms: C_2  and  O_3
REMARK    2  A    between atoms: C_2  and  C_4
REMARK    3  A    between atoms: C_4  and  S_5
REMARK    4  A    between atoms: S_5  and  C_6
REMARK    5  A    between atoms: C_8  and  C_9
REMARK    6  A    between atoms: C_9  and  N_10
REMARK    7  A    between atoms: N_10  and  S_11
REMARK    8  A    between atoms: S_11  and  C_14
REMARK    9  A    between atoms: C_26  and  O_27
REMARK                            x       y       z     vdW  Elec       q    Type
REMARK                         _______ _______ _______ _____ _____    ______ ____
ROOT
ATOM      1  C   UNL     1       4.484   5.700  17.402  0.00  0.00    +0.000 A 
ATOM      2  C   UNL     1       3.782   6.763  17.977  0.00  0.00    +0.000 A 
ATOM      3  C   UNL     1       2.695   6.541  18.847  0.00  0.00    +0.000 A 
ATOM      4  C   UNL     1       2.303   5.205  19.161  0.00  0.00    +0.000 A 
ATOM      5  C   UNL     1       1.234   4.901  20.046  0.00  0.00    +0.000 A 
ATOM      6  C   UNL     1       0.878   3.596  20.377  0.00  0.00    +0.000 A 
ATOM      7  C   UNL     1       1.573   2.539  19.827  0.00  0.00    +0.000 A 
ATOM      8  C   UNL     1       2.625   2.793  18.948  0.00  0.00    +0.000 A 
ATOM      9  C   UNL     1       3.018   4.111  18.590  0.00  0.00    +0.000 A 
ATOM     10  C   UNL     1       4.103   4.387  17.714  0.00  0.00    +0.000 A 
ENDROOT
BRANCH  10  11
ATOM     11  O   UNL     1       4.857   3.379  17.156  0.00  0.00    +0.000 OA
ATOM     12  H   UNL     1       4.293   2.745  16.693  0.00  0.00    +0.000 HD
ENDBRANCH  10  11
BRANCH   1  13
ATOM     13  S   UNL     1       5.898   6.106  16.364  0.00  0.00    +0.000 S 
BRANCH  13  14
ATOM     14  C   UNL     1       7.153   6.540  17.628  0.00  0.00    +0.000 C 
BRANCH  14  16
ATOM     15  O   UNL     1       7.371   5.552  19.823  0.00  0.00    +0.000 OA
ATOM     16  C   UNL     1       7.386   5.408  18.606  0.00  0.00    +0.000 C 
BRANCH  16  17
ATOM     17  O   UNL     1       7.710   4.225  18.033  0.00  0.00    +0.000 OA
ATOM     18  H   UNL     1       7.757   4.318  17.056  0.00  0.00    +0.000 HD
ENDBRANCH  16  17
ENDBRANCH  14  16
ENDBRANCH  13  14
ENDBRANCH   1  13
BRANCH   3  19
ATOM     19  C   UNL     1       2.047   7.767  19.474  0.00  0.00    +0.000 C 
BRANCH  19  20
ATOM     20  N   UNL     1       1.501   8.707  18.493  0.00  0.00    +0.000 NA
ATOM     21  H   UNL     1       0.771   8.362  17.868  0.00  0.00    +0.000 HD
BRANCH  20  22
ATOM     22  S   UNL     1       1.122  10.249  19.073  0.00  0.00    +0.000 S 
ATOM     23  O   UNL     1       1.079  10.150  20.512  0.00  0.00    +0.000 OA
ATOM     24  O   UNL     1       1.982  11.202  18.402  0.00  0.00    +0.000 OA
BRANCH  22  25
ATOM     25  C   UNL     1      -0.540  10.477  18.500  0.00  0.00    +0.000 A 
ATOM     26  C   UNL     1      -1.342  11.439  19.120  0.00  0.00    +0.000 A 
ATOM     27  C   UNL     1      -2.652  11.626  18.679  0.00  0.00    +0.000 A 
ATOM     28  C   UNL     1      -3.149  10.862  17.621  0.00  0.00    +0.000 A 
ATOM     29  C   UNL     1      -2.337   9.915  16.993  0.00  0.00    +0.000 A 
ATOM     30  C   UNL     1      -1.026   9.721  17.429  0.00  0.00    +0.000 A 
ENDBRANCH  22  25
ENDBRANCH  20  22
ENDBRANCH  19  20
ENDBRANCH   3  19
TORSDOF 9
ENDMDL
MODEL 2
REMARK VINA RESULT:      -8.0      1.210      1.361
REMARK  Name = 
REMARK  9 active torsions:
REMARK  status: ('A' for Active; 'I' for Inactive)
REMARK    1  A    between atoms: C_2  and  O_3
REMARK    2  A    between atoms: C_2  and  C_4
REMARK    3  A    between atoms: C_4  and  S_5
REMARK    4  A    between atoms: S_5  and  C_6
REMARK    5  A    between atoms: C_8  and  C_9
REMARK    6  A    between atoms: C_9  and  N_10
REMARK    7  A    between atoms: N_10  and  S_11
REMARK    8  A    between atoms: S_11  and  C_14
REMARK    9  A    between atoms: C_26  and  O_27
REMARK                            x       y       z     vdW  Elec       q    Type
REMARK                         _______ _______ _______ _____ _____    ______ ____
ROOT
ATOM      1  C   UNL     1       4.012   5.965  17.513  0.00  0.00    +0.000 A 
ATOM      2  C   UNL     1       3.419   6.764  18.495  0.00  0.00    +0.000 A 
ATOM      3  C   UNL     1       2.450   6.246  19.378  0.00  0.00    +0.000 A 
ATOM      4  C   UNL     1       2.066   4.875  19.281  0.00  0.00    +0.000 A 
ATOM      5  C   UNL     1       1.114   4.276  20.148  0.00  0.00    +0.000 A 
ATOM      6  C   UNL     1       0.769   2.928  20.073  0.00  0.00    +0.000 A 
ATOM      7  C   UNL     1       1.359   2.126  19.118  0.00  0.00    +0.000 A 
ATOM      8  C   UNL     1       2.293   2.676  18.242  0.00  0.00    +0.000 A 
ATOM      9  C   UNL     1       2.671   4.045  18.291  0.00  0.00    +0.000 A 
ATOM     10  C   UNL     1       3.640   4.615  17.421  0.00  0.00    +0.000 A 
ENDROOT
BRANCH  10  11
ATOM     11  O   UNL     1       4.287   3.863  16.467  0.00  0.00    +0.000 OA
ATOM     12  H   UNL     1       3.672   3.583  15.775  0.00  0.00    +0.000 HD
ENDBRANCH  10  11
BRANCH   1  13
ATOM     13  S   UNL     1       5.289   6.717  16.491  0.00  0.00    +0.000 S 
BRANCH  13  14
ATOM     14  C   UNL     1       6.770   6.488  17.549  0.00  0.00    +0.000 C 
BRANCH  14  16
ATOM     15  O   UNL     1       7.806   4.469  18.381  0.00  0.00    +0.000 OA
ATOM     16  C   UNL     1       7.336   5.090  17.433  0.00  0.00    +0.000 C 
BRANCH  16  17
ATOM     17  O   UNL     1       7.376   4.599  16.171  0.00  0.00    +0.000 OA
ATOM     18  H   UNL     1       6.928   3.725  16.129  0.00  0.00    +0.000 HD
ENDBRANCH  16  17
ENDBRANCH  14  16
ENDBRANCH  13  14
ENDBRANCH   1  13
BRANCH   3  19
ATOM     19  C   UNL     1       1.921   7.183  20.455  0.00  0.00    +0.000 C 
BRANCH  19  20
ATOM     20  N   UNL     1       1.492   8.484  19.939  0.00  0.00    +0.000 NA
ATOM     21  H   UNL     1       1.193   8.528  18.964  0.00  0.00    +0.000 HD
BRANCH  20  22
ATOM     22  S   UNL     1       0.446   9.368  20.931  0.00  0.00    +0.000 S 
ATOM     23  O   UNL     1      -0.418   8.410  21.577  0.00  0.00    +0.000 OA
ATOM     24  O   UNL     1       1.242  10.309  21.692  0.00  0.00    +0.000 OA
BRANCH  22  25
ATOM     25  C   UNL     1      -0.531  10.266  19.756  0.00  0.00    +0.000 A 
ATOM     26  C   UNL     1      -1.163  11.445  20.162  0.00  0.00    +0.000 A 
ATOM     27  C   UNL     1      -1.935  12.158  19.247  0.00  0.00    +0.000 A 
ATOM     28  C   UNL     1      -2.066  11.699  17.935  0.00  0.00    +0.000 A 
ATOM     29  C   UNL     1      -1.418  10.531  17.529  0.00  0.00    +0.000 A 
ATOM     30  C   UNL     1      -0.643   9.810  18.439  0.00  0.00    +0.000 A 
ENDBRANCH  22  25
ENDBRANCH  20  22
ENDBRANCH  19  20
ENDBRANCH   3  19
TORSDOF 9
ENDMDL
MODEL 3
REMARK VINA RESULT:      -8.0      0.281      1.138
REMARK  Name = 
REMARK  9 active torsions:
REMARK  status: ('A' for Active; 'I' for Inactive)
REMARK    1  A    between atoms: C_2  and  O_3
REMARK    2  A    between atoms: C_2  and  C_4
REMARK    3  A    between atoms: C_4  and  S_5
REMARK    4  A    between atoms: S_5  and  C_6
REMARK    5  A    between atoms: C_8  and  C_9
REMARK    6  A    between atoms: C_9  and  N_10
REMARK    7  A    between atoms: N_10  and  S_11
REMARK    8  A    between atoms: S_11  and  C_14
REMARK    9  A    between atoms: C_26  and  O_27
REMARK                            x       y       z     vdW  Elec       q    Type
REMARK                         _______ _______ _______ _____ _____    ______ ____
ROOT
ATOM      1  C   UNL     1       4.408   5.637  17.450  0.00  0.00    +0.000 A 
ATOM      2  C   UNL     1       3.703   6.709  18.004  0.00  0.00    +0.000 A 
ATOM      3  C   UNL     1       2.678   6.505  18.949  0.00  0.00    +0.000 A 
ATOM      4  C   UNL     1       2.351   5.178  19.363  0.00  0.00    +0.000 A 
ATOM      5  C   UNL     1       1.347   4.894  20.327  0.00  0.00    +0.000 A 
ATOM      6  C   UNL     1       1.057   3.601  20.754  0.00  0.00    +0.000 A 
ATOM      7  C   UNL     1       1.756   2.535  20.225  0.00  0.00    +0.000 A 
ATOM      8  C   UNL     1       2.745   2.770  19.271  0.00  0.00    +0.000 A 
ATOM      9  C   UNL     1       3.070   4.075  18.814  0.00  0.00    +0.000 A 
ATOM     10  C   UNL     1       4.092   4.333  17.860  0.00  0.00    +0.000 A 
ENDROOT
BRANCH  10  11
ATOM     11  O   UNL     1       4.847   3.318  17.316  0.00  0.00    +0.000 OA
ATOM     12  H   UNL     1       5.297   3.616  16.514  0.00  0.00    +0.000 HD
ENDBRANCH  10  11
BRANCH   1  13
ATOM     13  S   UNL     1       5.744   6.024  16.307  0.00  0.00    +0.000 S 
BRANCH  13  14
ATOM     14  C   UNL     1       6.999   6.718  17.450  0.00  0.00    +0.000 C 
BRANCH  14  16
ATOM     15  O   UNL     1       7.623   4.456  18.031  0.00  0.00    +0.000 OA
ATOM     16  C   UNL     1       7.625   5.648  18.318  0.00  0.00    +0.000 C 
BRANCH  16  17
ATOM     17  O   UNL     1       8.113   6.094  19.500  0.00  0.00    +0.000 OA
ATOM     18  H   UNL     1       8.693   5.416  19.910  0.00  0.00    +0.000 HD
ENDBRANCH  16  17
ENDBRANCH  14  16
ENDBRANCH  13  14
ENDBRANCH   1  13
BRANCH   3  19
ATOM     19  C   UNL     1       2.024   7.745  19.543  0.00  0.00    +0.000 C 
BRANCH  19  20
ATOM     20  N   UNL     1       1.441   8.636  18.538  0.00  0.00    +0.000 NA
ATOM     21  H   UNL     1       0.671   8.271  17.976  0.00  0.00    +0.000 HD
BRANCH  20  22
ATOM     22  S   UNL     1       1.121  10.218  19.044  0.00  0.00    +0.000 S 
ATOM     23  O   UNL     1       1.098  10.192  20.487  0.00  0.00    +0.000 OA
ATOM     24  O   UNL     1       2.000  11.106  18.313  0.00  0.00    +0.000 OA
BRANCH  22  25
ATOM     25  C   UNL     1      -0.542  10.471  18.486  0.00  0.00    +0.000 A 
ATOM     26  C   UNL     1      -1.018   9.710  17.414  0.00  0.00    +0.000 A 
ATOM     27  C   UNL     1      -2.324   9.902  16.965  0.00  0.00    +0.000 A 
ATOM     28  C   UNL     1      -3.148  10.840  17.590  0.00  0.00    +0.000 A 
ATOM     29  C   UNL     1      -2.674  11.583  18.673  0.00  0.00    +0.000 A 
ATOM     30  C   UNL     1      -1.368  11.399  19.128  0.00  0.00    +0.000 A 
ENDBRANCH  22  25
ENDBRANCH  20  22
ENDBRANCH  19  20
ENDBRANCH   3  19
TORSDOF 9
ENDMDL
MODEL 4
REMARK VINA RESULT:      -8.0      2.546      4.520
REMARK  Name = 
REMARK  9 active torsions:
REMARK  status: ('A' for Active; 'I' for Inactive)
REMARK    1  A    between atoms: C_2  and  O_3
REMARK    2  A    between atoms: C_2  and  C_4
REMARK    3  A    between atoms: C_4  and  S_5
REMARK    4  A    between atoms: S_5  and  C_6
REMARK    5  A    between atoms: C_8  and  C_9
REMARK    6  A    between atoms: C_9  and  N_10
REMARK    7  A    between atoms: N_10  and  S_11
REMARK    8  A    between atoms: S_11  and  C_14
REMARK    9  A    between atoms: C_26  and  O_27
REMARK                            x       y       z     vdW  Elec       q    Type
REMARK                         _______ _______ _______ _____ _____    ______ ____
ROOT
ATOM      1  C   UNL     1       3.279   4.589  19.626  0.00  0.00    +0.000 A 
ATOM      2  C   UNL     1       2.820   5.884  19.373  0.00  0.00    +0.000 A 
ATOM      3  C   UNL     1       3.271   6.620  18.258  0.00  0.00    +0.000 A 
ATOM      4  C   UNL     1       4.210   6.032  17.357  0.00  0.00    +0.000 A 
ATOM      5  C   UNL     1       4.694   6.701  16.201  0.00  0.00    +0.000 A 
ATOM      6  C   UNL     1       5.582   6.110  15.305  0.00  0.00    +0.000 A 
ATOM      7  C   UNL     1       6.032   4.826  15.537  0.00  0.00    +0.000 A 
ATOM      8  C   UNL     1       5.587   4.138  16.665  0.00  0.00    +0.000 A 
ATOM      9  C   UNL     1       4.679   4.707  17.598  0.00  0.00    +0.000 A 
ATOM     10  C   UNL     1       4.198   4.009  18.739  0.00  0.00    +0.000 A 
ENDROOT
BRANCH  10  11
ATOM     11  O   UNL     1       4.582   2.715  19.011  0.00  0.00    +0.000 OA
ATOM     12  H   UNL     1       5.222   2.693  19.735  0.00  0.00    +0.000 HD
ENDBRANCH  10  11
BRANCH   1  13
ATOM     13  S   UNL     1       2.578   3.722  21.040  0.00  0.00    +0.000 S 
BRANCH  13  14
ATOM     14  C   UNL     1       0.978   3.151  20.347  0.00  0.00    +0.000 C 
BRANCH  14  16
ATOM     15  O   UNL     1       0.672   3.153  17.950  0.00  0.00    +0.000 OA
ATOM     16  C   UNL     1       1.133   2.604  18.944  0.00  0.00    +0.000 C 
BRANCH  16  17
ATOM     17  O   UNL     1       1.744   1.398  18.873  0.00  0.00    +0.000 OA
ATOM     18  H   UNL     1       2.215   1.302  18.015  0.00  0.00    +0.000 HD
ENDBRANCH  16  17
ENDBRANCH  14  16
ENDBRANCH  13  14
ENDBRANCH   1  13
BRANCH   3  19
ATOM     19  C   UNL     1       2.652   7.993  18.035  0.00  0.00    +0.000 C 
BRANCH  19  20
ATOM     20  N   UNL     1       1.790   8.430  19.134  0.00  0.00    +0.000 NA
ATOM     21  H   UNL     1       2.174   8.386  20.079  0.00  0.00    +0.000 HD
BRANCH  20  22
ATOM     22  S   UNL     1       0.953   9.879  18.889  0.00  0.00    +0.000 S 
ATOM     23  O   UNL     1       1.950  10.899  18.667  0.00  0.00    +0.000 OA
ATOM     24  O   UNL     1      -0.103   9.628  17.932  0.00  0.00    +0.000 OA
BRANCH  22  25
ATOM     25  C   UNL     1       0.226  10.176  20.478  0.00  0.00    +0.000 A 
ATOM     26  C   UNL     1       0.165   9.127  21.400  0.00  0.00    +0.000 A 
ATOM     27  C   UNL     1      -0.406   9.349  22.653  0.00  0.00    +0.000 A 
ATOM     28  C   UNL     1      -0.902  10.612  22.981  0.00  0.00    +0.000 A 
ATOM     29  C   UNL     1      -0.820  11.662  22.064  0.00  0.00    +0.000 A 
ATOM     30  C   UNL     1      -0.252  11.449  20.808  0.00  0.00    +0.000 A 
ENDBRANCH  22  25
ENDBRANCH  20  22
ENDBRANCH  19  20
ENDBRANCH   3  19
TORSDOF 9
ENDMDL
MODEL 5
REMARK VINA RESULT:      -7.9      1.655      2.210
REMARK  Name = 
REMARK  9 active torsions:
REMARK  status: ('A' for Active; 'I' for Inactive)
REMARK    1  A    between atoms: C_2  and  O_3
REMARK    2  A    between atoms: C_2  and  C_4
REMARK    3  A    between atoms: C_4  and  S_5
REMARK    4  A    between atoms: S_5  and  C_6
REMARK    5  A    between atoms: C_8  and  C_9
REMARK    6  A    between atoms: C_9  and  N_10
REMARK    7  A    between atoms: N_10  and  S_11
REMARK    8  A    between atoms: S_11  and  C_14
REMARK    9  A    between atoms: C_26  and  O_27
REMARK                            x       y       z     vdW  Elec       q    Type
REMARK                         _______ _______ _______ _____ _____    ______ ____
ROOT
ATOM      1  C   UNL     1       4.012   5.925  17.653  0.00  0.00    +0.000 A 
ATOM      2  C   UNL     1       3.371   6.582  18.707  0.00  0.00    +0.000 A 
ATOM      3  C   UNL     1       2.380   5.942  19.479  0.00  0.00    +0.000 A 
ATOM      4  C   UNL     1       2.023   4.590  19.192  0.00  0.00    +0.000 A 
ATOM      5  C   UNL     1       1.052   3.871  19.938  0.00  0.00    +0.000 A 
ATOM      6  C   UNL     1       0.733   2.541  19.677  0.00  0.00    +0.000 A 
ATOM      7  C   UNL     1       1.370   1.877  18.648  0.00  0.00    +0.000 A 
ATOM      8  C   UNL     1       2.325   2.548  17.886  0.00  0.00    +0.000 A 
ATOM      9  C   UNL     1       2.678   3.903  18.126  0.00  0.00    +0.000 A 
ATOM     10  C   UNL     1       3.667   4.594  17.374  0.00  0.00    +0.000 A 
ENDROOT
BRANCH  10  11
ATOM     11  O   UNL     1       4.360   3.980  16.355  0.00  0.00    +0.000 OA
ATOM     12  H   UNL     1       4.083   3.059  16.257  0.00  0.00    +0.000 HD
ENDBRANCH  10  11
BRANCH   1  13
ATOM     13  S   UNL     1       5.311   6.819  16.785  0.00  0.00    +0.000 S 
BRANCH  13  14
ATOM     14  C   UNL     1       6.788   6.328  17.756  0.00  0.00    +0.000 C 
BRANCH  14  16
ATOM     15  O   UNL     1       7.413   4.710  16.073  0.00  0.00    +0.000 OA
ATOM     16  C   UNL     1       7.387   5.032  17.256  0.00  0.00    +0.000 C 
BRANCH  16  17
ATOM     17  O   UNL     1       7.815   4.195  18.230  0.00  0.00    +0.000 OA
ATOM     18  H   UNL     1       7.482   3.284  18.072  0.00  0.00    +0.000 HD
ENDBRANCH  16  17
ENDBRANCH  14  16
ENDBRANCH  13  14
ENDBRANCH   1  13
BRANCH   3  19
ATOM     19  C   UNL     1       1.798   6.725  20.648  0.00  0.00    +0.000 C 
BRANCH  19  20
ATOM     20  N   UNL     1       1.853   8.176  20.465  0.00  0.00    +0.000 NA
ATOM     21  H   UNL     1       1.873   8.528  19.507  0.00  0.00    +0.000 HD
BRANCH  20  22
ATOM     22  S   UNL     1       0.796   9.086  21.421  0.00  0.00    +0.000 S 
ATOM     23  O   UNL     1      -0.392   8.285  21.599  0.00  0.00    +0.000 OA
ATOM     24  O   UNL     1       1.544   9.598  22.550  0.00  0.00    +0.000 OA
BRANCH  22  25
ATOM     25  C   UNL     1       0.377  10.436  20.352  0.00  0.00    +0.000 A 
ATOM     26  C   UNL     1      -0.566  10.230  19.341  0.00  0.00    +0.000 A 
ATOM     27  C   UNL     1      -0.902  11.285  18.493  0.00  0.00    +0.000 A 
ATOM     28  C   UNL     1      -0.306  12.536  18.663  0.00  0.00    +0.000 A 
ATOM     29  C   UNL     1       0.621  12.742  19.687  0.00  0.00    +0.000 A 
ATOM     30  C   UNL     1       0.964  11.692  20.540  0.00  0.00    +0.000 A 
ENDBRANCH  22  25
ENDBRANCH  20  22
ENDBRANCH  19  20
ENDBRANCH   3  19
TORSDOF 9
ENDMDL
MODEL 6
REMARK VINA RESULT:      -7.9      1.593      2.139
REMARK  Name = 
REMARK  9 active torsions:
REMARK  status: ('A' for Active; 'I' for Inactive)
REMARK    1  A    between atoms: C_2  and  O_3
REMARK    2  A    between atoms: C_2  and  C_4
REMARK    3  A    between atoms: C_4  and  S_5
REMARK    4  A    between atoms: S_5  and  C_6
REMARK    5  A    between atoms: C_8  and  C_9
REMARK    6  A    between atoms: C_9  and  N_10
REMARK    7  A    between atoms: N_10  and  S_11
REMARK    8  A    between atoms: S_11  and  C_14
REMARK    9  A    between atoms: C_26  and  O_27
REMARK                            x       y       z     vdW  Elec       q    Type
REMARK                         _______ _______ _______ _____ _____    ______ ____
ROOT
ATOM      1  C   UNL     1       4.551   5.786  17.726  0.00  0.00    +0.000 A 
ATOM      2  C   UNL     1       3.735   6.829  18.174  0.00  0.00    +0.000 A 
ATOM      3  C   UNL     1       2.643   6.592  19.034  0.00  0.00    +0.000 A 
ATOM      4  C   UNL     1       2.362   5.262  19.469  0.00  0.00    +0.000 A 
ATOM      5  C   UNL     1       1.295   4.947  20.351  0.00  0.00    +0.000 A 
ATOM      6  C   UNL     1       1.046   3.652  20.802  0.00  0.00    +0.000 A 
ATOM      7  C   UNL     1       1.853   2.616  20.377  0.00  0.00    +0.000 A 
ATOM      8  C   UNL     1       2.907   2.881  19.505  0.00  0.00    +0.000 A 
ATOM      9  C   UNL     1       3.193   4.189  19.028  0.00  0.00    +0.000 A 
ATOM     10  C   UNL     1       4.278   4.479  18.157  0.00  0.00    +0.000 A 
ENDROOT
BRANCH  10  11
ATOM     11  O   UNL     1       5.139   3.497  17.722  0.00  0.00    +0.000 OA
ATOM     12  H   UNL     1       5.595   3.084  18.467  0.00  0.00    +0.000 HD
ENDBRANCH  10  11
BRANCH   1  13
ATOM     13  S   UNL     1       5.957   6.220  16.690  0.00  0.00    +0.000 S 
BRANCH  13  14
ATOM     14  C   UNL     1       7.201   6.683  17.956  0.00  0.00    +0.000 C 
BRANCH  14  16
ATOM     15  O   UNL     1       7.954   4.390  18.090  0.00  0.00    +0.000 OA
ATOM     16  C   UNL     1       7.783   5.469  18.647  0.00  0.00    +0.000 C 
BRANCH  16  17
ATOM     17  O   UNL     1       8.016   5.631  19.972  0.00  0.00    +0.000 OA
ATOM     18  H   UNL     1       7.171   5.766  20.455  0.00  0.00    +0.000 HD
ENDBRANCH  16  17
ENDBRANCH  14  16
ENDBRANCH  13  14
ENDBRANCH   1  13
BRANCH   3  19
ATOM     19  C   UNL     1       1.865   7.807  19.519  0.00  0.00    +0.000 C 
BRANCH  19  20
ATOM     20  N   UNL     1       1.954   8.019  20.965  0.00  0.00    +0.000 NA
ATOM     21  H   UNL     1       2.849   8.335  21.340  0.00  0.00    +0.000 HD
BRANCH  20  22
ATOM     22  S   UNL     1       0.671   8.864  21.672  0.00  0.00    +0.000 S 
ATOM     23  O   UNL     1      -0.467   7.976  21.655  0.00  0.00    +0.000 OA
ATOM     24  O   UNL     1       1.152   9.458  22.901  0.00  0.00    +0.000 OA
BRANCH  22  25
ATOM     25  C   UNL     1       0.364  10.152  20.494  0.00  0.00    +0.000 A 
ATOM     26  C   UNL     1      -0.677   9.994  19.575  0.00  0.00    +0.000 A 
ATOM     27  C   UNL     1      -0.926  11.000  18.643  0.00  0.00    +0.000 A 
ATOM     28  C   UNL     1      -0.145  12.158  18.638  0.00  0.00    +0.000 A 
ATOM     29  C   UNL     1       0.880  12.320  19.571  0.00  0.00    +0.000 A 
ATOM     30  C   UNL     1       1.138  11.317  20.507  0.00  0.00    +0.000 A 
ENDBRANCH  22  25
ENDBRANCH  20  22
ENDBRANCH  19  20
ENDBRANCH   3  19
TORSDOF 9
ENDMDL
MODEL 7
REMARK VINA RESULT:      -7.9      2.547      4.433
REMARK  Name = 
REMARK  9 active torsions:
REMARK  status: ('A' for Active; 'I' for Inactive)
REMARK    1  A    between atoms: C_2  and  O_3
REMARK    2  A    between atoms: C_2  and  C_4
REMARK    3  A    between atoms: C_4  and  S_5
REMARK    4  A    between atoms: S_5  and  C_6
REMARK    5  A    between atoms: C_8  and  C_9
REMARK    6  A    between atoms: C_9  and  N_10
REMARK    7  A    between atoms: N_10  and  S_11
REMARK    8  A    between atoms: S_11  and  C_14
REMARK    9  A    between atoms: C_26  and  O_27
REMARK                            x       y       z     vdW  Elec       q    Type
REMARK                         _______ _______ _______ _____ _____    ______ ____
ROOT
ATOM      1  C   UNL     1       2.693   4.053  18.457  0.00  0.00    +0.000 A 
ATOM      2  C   UNL     1       2.220   5.354  18.268  0.00  0.00    +0.000 A 
ATOM      3  C   UNL     1       3.090   6.412  17.936  0.00  0.00    +0.000 A 
ATOM      4  C   UNL     1       4.485   6.156  17.777  0.00  0.00    +0.000 A 
ATOM      5  C   UNL     1       5.420   7.165  17.422  0.00  0.00    +0.000 A 
ATOM      6  C   UNL     1       6.775   6.903  17.233  0.00  0.00    +0.000 A 
ATOM      7  C   UNL     1       7.252   5.619  17.403  0.00  0.00    +0.000 A 
ATOM      8  C   UNL     1       6.369   4.602  17.759  0.00  0.00    +0.000 A 
ATOM      9  C   UNL     1       4.980   4.831  17.957  0.00  0.00    +0.000 A 
ATOM     10  C   UNL     1       4.063   3.799  18.297  0.00  0.00    +0.000 A 
ENDROOT
BRANCH  10  11
ATOM     11  O   UNL     1       4.469   2.492  18.451  0.00  0.00    +0.000 OA
ATOM     12  H   UNL     1       4.210   1.960  17.686  0.00  0.00    +0.000 HD
ENDBRANCH  10  11
BRANCH   1  13
ATOM     13  S   UNL     1       1.478   2.771  18.808  0.00  0.00    +0.000 S 
BRANCH  13  14
ATOM     14  C   UNL     1       0.949   3.239  20.501  0.00  0.00    +0.000 C 
BRANCH  14  16
ATOM     15  O   UNL     1       2.720   2.532  21.985  0.00  0.00    +0.000 OA
ATOM     16  C   UNL     1       2.129   3.448  21.425  0.00  0.00    +0.000 C 
BRANCH  16  17
ATOM     17  O   UNL     1       2.432   4.746  21.668  0.00  0.00    +0.000 OA
ATOM     18  H   UNL     1       3.042   5.091  20.980  0.00  0.00    +0.000 HD
ENDBRANCH  16  17
ENDBRANCH  14  16
ENDBRANCH  13  14
ENDBRANCH   1  13
BRANCH   3  19
ATOM     19  C   UNL     1       2.460   7.775  17.681  0.00  0.00    +0.000 C 
BRANCH  19  20
ATOM     20  N   UNL     1       2.108   8.493  18.906  0.00  0.00    +0.000 NA
ATOM     21  H   UNL     1       2.859   8.688  19.570  0.00  0.00    +0.000 HD
BRANCH  20  22
ATOM     22  S   UNL     1       1.108   9.844  18.713  0.00  0.00    +0.000 S 
ATOM     23  O   UNL     1       1.979  10.970  18.470  0.00  0.00    +0.000 OA
ATOM     24  O   UNL     1       0.051   9.488  17.791  0.00  0.00    +0.000 OA
BRANCH  22  25
ATOM     25  C   UNL     1       0.413  10.042  20.331  0.00  0.00    +0.000 A 
ATOM     26  C   UNL     1       0.490   8.979  21.235  0.00  0.00    +0.000 A 
ATOM     27  C   UNL     1      -0.055   9.123  22.510  0.00  0.00    +0.000 A 
ATOM     28  C   UNL     1      -0.663  10.324  22.879  0.00  0.00    +0.000 A 
ATOM     29  C   UNL     1      -0.719  11.391  21.980  0.00  0.00    +0.000 A 
ATOM     30  C   UNL     1      -0.178  11.255  20.701  0.00  0.00    +0.000 A 
ENDBRANCH  22  25
ENDBRANCH  20  22
ENDBRANCH  19  20
ENDBRANCH   3  19
TORSDOF 9
ENDMDL
MODEL 8
REMARK VINA RESULT:      -7.8      1.786      2.425
REMARK  Name = 
REMARK  9 active torsions:
REMARK  status: ('A' for Active; 'I' for Inactive)
REMARK    1  A    between atoms: C_2  and  O_3
REMARK    2  A    between atoms: C_2  and  C_4
REMARK    3  A    between atoms: C_4  and  S_5
REMARK    4  A    between atoms: S_5  and  C_6
REMARK    5  A    between atoms: C_8  and  C_9
REMARK    6  A    between atoms: C_9  and  N_10
REMARK    7  A    between atoms: N_10  and  S_11
REMARK    8  A    between atoms: S_11  and  C_14
REMARK    9  A    between atoms: C_26  and  O_27
REMARK                            x       y       z     vdW  Elec       q    Type
REMARK                         _______ _______ _______ _____ _____    ______ ____
ROOT
ATOM      1  C   UNL     1       4.960   5.542  16.991  0.00  0.00    +0.000 A 
ATOM      2  C   UNL     1       4.021   6.450  17.487  0.00  0.00    +0.000 A 
ATOM      3  C   UNL     1       2.803   6.017  18.049  0.00  0.00    +0.000 A 
ATOM      4  C   UNL     1       2.517   4.621  18.125  0.00  0.00    +0.000 A 
ATOM      5  C   UNL     1       1.323   4.106  18.696  0.00  0.00    +0.000 A 
ATOM      6  C   UNL     1       1.064   2.742  18.802  0.00  0.00    +0.000 A 
ATOM      7  C   UNL     1       1.990   1.834  18.328  0.00  0.00    +0.000 A 
ATOM      8  C   UNL     1       3.172   2.297  17.753  0.00  0.00    +0.000 A 
ATOM      9  C   UNL     1       3.471   3.681  17.632  0.00  0.00    +0.000 A 
ATOM     10  C   UNL     1       4.683   4.169  17.071  0.00  0.00    +0.000 A 
ENDROOT
BRANCH  10  11
ATOM     11  O   UNL     1       5.660   3.316  16.608  0.00  0.00    +0.000 OA
ATOM     12  H   UNL     1       5.355   2.836  15.827  0.00  0.00    +0.000 HD
ENDBRANCH  10  11
BRANCH   1  13
ATOM     13  S   UNL     1       6.510   6.209  16.364  0.00  0.00    +0.000 S 
BRANCH  13  14
ATOM     14  C   UNL     1       7.376   6.623  17.926  0.00  0.00    +0.000 C 
BRANCH  14  16
ATOM     15  O   UNL     1       7.472   5.422  20.021  0.00  0.00    +0.000 OA
ATOM     16  C   UNL     1       7.578   5.404  18.800  0.00  0.00    +0.000 C 
BRANCH  16  17
ATOM     17  O   UNL     1       7.985   4.295  18.137  0.00  0.00    +0.000 OA
ATOM     18  H   UNL     1       8.595   4.537  17.406  0.00  0.00    +0.000 HD
ENDBRANCH  16  17
ENDBRANCH  14  16
ENDBRANCH  13  14
ENDBRANCH   1  13
BRANCH   3  19
ATOM     19  C   UNL     1       1.885   7.086  18.625  0.00  0.00    +0.000 C 
BRANCH  19  20
ATOM     20  N   UNL     1       2.463   8.431  18.596  0.00  0.00    +0.000 NA
ATOM     21  H   UNL     1       3.279   8.579  18.000  0.00  0.00    +0.000 HD
BRANCH  20  22
ATOM     22  S   UNL     1       1.365   9.708  18.443  0.00  0.00    +0.000 S 
ATOM     23  O   UNL     1       2.143  10.889  18.153  0.00  0.00    +0.000 OA
ATOM     24  O   UNL     1       0.292   9.272  17.575  0.00  0.00    +0.000 OA
BRANCH  22  25
ATOM     25  C   UNL     1       0.735   9.872  20.092  0.00  0.00    +0.000 A 
ATOM     26  C   UNL     1       1.200   9.002  21.083  0.00  0.00    +0.000 A 
ATOM     27  C   UNL     1       0.711   9.121  22.383  0.00  0.00    +0.000 A 
ATOM     28  C   UNL     1      -0.229  10.107  22.689  0.00  0.00    +0.000 A 
ATOM     29  C   UNL     1      -0.675  10.986  21.700  0.00  0.00    +0.000 A 
ATOM     30  C   UNL     1      -0.191  10.874  20.396  0.00  0.00    +0.000 A 
ENDBRANCH  22  25
ENDBRANCH  20  22
ENDBRANCH  19  20
ENDBRANCH   3  19
TORSDOF 9
ENDMDL
MODEL 9
REMARK VINA RESULT:      -7.8      2.554      4.499
REMARK  Name = 
REMARK  9 active torsions:
REMARK  status: ('A' for Active; 'I' for Inactive)
REMARK    1  A    between atoms: C_2  and  O_3
REMARK    2  A    between atoms: C_2  and  C_4
REMARK    3  A    between atoms: C_4  and  S_5
REMARK    4  A    between atoms: S_5  and  C_6
REMARK    5  A    between atoms: C_8  and  C_9
REMARK    6  A    between atoms: C_9  and  N_10
REMARK    7  A    between atoms: N_10  and  S_11
REMARK    8  A    between atoms: S_11  and  C_14
REMARK    9  A    between atoms: C_26  and  O_27
REMARK                            x       y       z     vdW  Elec       q    Type
REMARK                         _______ _______ _______ _____ _____    ______ ____
ROOT
ATOM      1  C   UNL     1       2.770   4.181  18.059  0.00  0.00    +0.000 A 
ATOM      2  C   UNL     1       2.432   5.537  18.092  0.00  0.00    +0.000 A 
ATOM      3  C   UNL     1       3.399   6.542  17.892  0.00  0.00    +0.000 A 
ATOM      4  C   UNL     1       4.756   6.177  17.640  0.00  0.00    +0.000 A 
ATOM      5  C   UNL     1       5.783   7.131  17.408  0.00  0.00    +0.000 A 
ATOM      6  C   UNL     1       7.098   6.768  17.127  0.00  0.00    +0.000 A 
ATOM      7  C   UNL     1       7.442   5.433  17.078  0.00  0.00    +0.000 A 
ATOM      8  C   UNL     1       6.466   4.465  17.309  0.00  0.00    +0.000 A 
ATOM      9  C   UNL     1       5.114   4.797  17.594  0.00  0.00    +0.000 A 
ATOM     10  C   UNL     1       4.103   3.821  17.807  0.00  0.00    +0.000 A 
ENDROOT
BRANCH  10  11
ATOM     11  O   UNL     1       4.373   2.473  17.742  0.00  0.00    +0.000 OA
ATOM     12  H   UNL     1       3.637   1.994  17.338  0.00  0.00    +0.000 HD
ENDBRANCH  10  11
BRANCH   1  13
ATOM     13  S   UNL     1       1.437   2.988  18.257  0.00  0.00    +0.000 S 
BRANCH  13  14
ATOM     14  C   UNL     1       1.830   2.287  19.905  0.00  0.00    +0.000 C 
BRANCH  14  16
ATOM     15  O   UNL     1       2.042   3.201  22.133  0.00  0.00    +0.000 OA
ATOM     16  C   UNL     1       1.530   3.265  21.021  0.00  0.00    +0.000 C 
BRANCH  16  17
ATOM     17  O   UNL     1       0.569   4.175  20.731  0.00  0.00    +0.000 OA
ATOM     18  H   UNL     1       0.888   5.084  20.922  0.00  0.00    +0.000 HD
ENDBRANCH  16  17
ENDBRANCH  14  16
ENDBRANCH  13  14
ENDBRANCH   1  13
BRANCH   3  19
ATOM     19  C   UNL     1       2.910   7.984  17.875  0.00  0.00    +0.000 C 
BRANCH  19  20
ATOM     20  N   UNL     1       1.880   8.263  18.878  0.00  0.00    +0.000 NA
ATOM     21  H   UNL     1       2.112   8.075  19.854  0.00  0.00    +0.000 HD
BRANCH  20  22
ATOM     22  S   UNL     1       1.074   9.741  18.722  0.00  0.00    +0.000 S 
ATOM     23  O   UNL     1       2.089  10.743  18.499  0.00  0.00    +0.000 OA
ATOM     24  O   UNL     1      -0.026   9.554  17.799  0.00  0.00    +0.000 OA
BRANCH  22  25
ATOM     25  C   UNL     1       0.418   9.994  20.349  0.00  0.00    +0.000 A 
ATOM     26  C   UNL     1      -0.423  11.088  20.576  0.00  0.00    +0.000 A 
ATOM     27  C   UNL     1      -0.943  11.297  21.853  0.00  0.00    +0.000 A 
ATOM     28  C   UNL     1      -0.631  10.415  22.889  0.00  0.00    +0.000 A 
ATOM     29  C   UNL     1       0.194   9.314  22.652  0.00  0.00    +0.000 A 
ATOM     30  C   UNL     1       0.720   9.097  21.378  0.00  0.00    +0.000 A 
ENDBRANCH  22  25
ENDBRANCH  20  22
ENDBRANCH  19  20
ENDBRANCH   3  19
TORSDOF 9
ENDMDL
