MODEL 1
REMARK VINA RESULT:      -8.5      0.000      0.000
REMARK  Name = 
REMARK  5 active torsions:
REMARK  status: ('A' for Active; 'I' for Inactive)
REMARK    1  A    between atoms: C_1  and  C_2
REMARK    2  A    between atoms: C_5  and  N_6
REMARK    3  A    between atoms: C_7  and  C_9
REMARK    4  A    between atoms: C_13  and  C_14
REMARK    5  A    between atoms: C_26  and  C_27
REMARK                            x       y       z     vdW  Elec       q    Type
REMARK                         _______ _______ _______ _____ _____    ______ ____
ROOT
ATOM      1  C   UNL     1      -0.936  11.600  20.738  0.00  0.00    +0.000 A 
ATOM      2  N   UNL     1      -1.070  12.719  21.539  0.00  0.00    +0.000 NA
ATOM      3  C   UNL     1      -0.877  12.268  22.782  0.00  0.00    +0.000 A 
ATOM      4  N   UNL     1      -0.560  10.943  22.780  0.00  0.00    +0.000 N 
ATOM      5  C   UNL     1      -0.499  10.511  21.467  0.00  0.00    +0.000 A 
ATOM      6  H   UNL     1      -0.371  10.369  23.590  0.00  0.00    +0.000 HD
ENDROOT
BRANCH   5   7
ATOM      7  C   UNL     1      -0.026   9.179  21.118  0.00  0.00    +0.000 C 
ATOM      8  O   UNL     1      -0.691   8.202  21.453  0.00  0.00    +0.000 OA
ATOM      9  N   UNL     1       1.176   9.101  20.460  0.00  0.00    +0.000 N 
ATOM     10  C   UNL     1       1.735   7.874  20.213  0.00  0.00    +0.000 A 
ATOM     11  N   UNL     1       2.223   7.484  19.059  0.00  0.00    +0.000 NA
ATOM     12  C   UNL     1       2.255   6.121  19.171  0.00  0.00    +0.000 A 
ATOM     13  C   UNL     1       2.418   5.141  18.184  0.00  0.00    +0.000 A 
ATOM     14  C   UNL     1       1.522   4.095  18.430  0.00  0.00    +0.000 A 
ATOM     15  C   UNL     1       1.372   3.595  19.727  0.00  0.00    +0.000 A 
ATOM     16  C   UNL     1       1.757   4.373  20.821  0.00  0.00    +0.000 A 
ATOM     17  C   UNL     1       1.978   5.706  20.475  0.00  0.00    +0.000 A 
ATOM     18  N   UNL     1       1.847   6.883  21.155  0.00  0.00    +0.000 N 
ATOM     19  H   UNL     1       1.348   9.794  19.737  0.00  0.00    +0.000 HD
ATOM     20  H   UNL     1       1.614   6.987  22.132  0.00  0.00    +0.000 HD
ENDBRANCH   5   7
BRANCH   1  22
ATOM     21  N   UNL     1      -2.167  10.618  18.912  0.00  0.00    +0.000 N 
ATOM     22  C   UNL     1      -1.274  11.586  19.318  0.00  0.00    +0.000 C 
ATOM     23  O   UNL     1      -0.778  12.445  18.593  0.00  0.00    +0.000 OA
ATOM     24  H   UNL     1      -2.540  10.031  19.648  0.00  0.00    +0.000 HD
BRANCH  21  29
ATOM     25  C   UNL     1      -4.122  10.122  13.518  0.00  0.00    +0.000 C 
ATOM     26  C   UNL     1      -3.623  10.264  14.924  0.00  0.00    +0.000 A 
ATOM     27  C   UNL     1      -2.419   9.684  15.295  0.00  0.00    +0.000 A 
ATOM     28  C   UNL     1      -1.971   9.793  16.610  0.00  0.00    +0.000 A 
ATOM     29  C   UNL     1      -2.684  10.501  17.593  0.00  0.00    +0.000 A 
ATOM     30  C   UNL     1      -3.907  11.091  17.227  0.00  0.00    +0.000 A 
ATOM     31  C   UNL     1      -4.784  11.887  18.154  0.00  0.00    +0.000 C 
ATOM     32  C   UNL     1      -4.358  10.961  15.890  0.00  0.00    +0.000 A 
ENDBRANCH  21  29
ENDBRANCH   1  22
TORSDOF 3
ENDMDL
MODEL 2
REMARK VINA RESULT:      -8.5      3.574      8.385
REMARK  Name = 
REMARK  5 active torsions:
REMARK  status: ('A' for Active; 'I' for Inactive)
REMARK    1  A    between atoms: C_1  and  C_2
REMARK    2  A    between atoms: C_5  and  N_6
REMARK    3  A    between atoms: C_7  and  C_9
REMARK    4  A    between atoms: C_13  and  C_14
REMARK    5  A    between atoms: C_26  and  C_27
REMARK                            x       y       z     vdW  Elec       q    Type
REMARK                         _______ _______ _______ _____ _____    ______ ____
ROOT
ATOM      1  C   UNL     1       3.577   3.364  20.042  0.00  0.00    +0.000 A 
ATOM      2  N   UNL     1       3.566   2.152  20.706  0.00  0.00    +0.000 NA
ATOM      3  C   UNL     1       2.670   2.312  21.684  0.00  0.00    +0.000 A 
ATOM      4  N   UNL     1       2.078   3.536  21.612  0.00  0.00    +0.000 N 
ATOM      5  C   UNL     1       2.577   4.198  20.504  0.00  0.00    +0.000 A 
ATOM      6  H   UNL     1       1.371   3.900  22.237  0.00  0.00    +0.000 HD
ENDROOT
BRANCH   5   7
ATOM      7  C   UNL     1       2.027   5.470  20.057  0.00  0.00    +0.000 C 
ATOM      8  O   UNL     1       1.589   5.564  18.914  0.00  0.00    +0.000 OA
ATOM      9  N   UNL     1       2.071   6.512  20.951  0.00  0.00    +0.000 N 
ATOM     10  C   UNL     1       1.683   7.763  20.551  0.00  0.00    +0.000 A 
ATOM     11  N   UNL     1       0.869   8.551  21.216  0.00  0.00    +0.000 NA
ATOM     12  C   UNL     1       0.451   9.447  20.270  0.00  0.00    +0.000 A 
ATOM     13  C   UNL     1      -0.616  10.353  20.299  0.00  0.00    +0.000 A 
ATOM     14  C   UNL     1      -1.263  10.333  19.059  0.00  0.00    +0.000 A 
ATOM     15  C   UNL     1      -0.511  10.357  17.880  0.00  0.00    +0.000 A 
ATOM     16  C   UNL     1       0.832   9.974  17.903  0.00  0.00    +0.000 A 
ATOM     17  C   UNL     1       1.178   9.320  19.085  0.00  0.00    +0.000 A 
ATOM     18  N   UNL     1       2.096   8.355  19.385  0.00  0.00    +0.000 N 
ATOM     19  H   UNL     1       1.853   6.293  21.919  0.00  0.00    +0.000 HD
ATOM     20  H   UNL     1       2.788   7.970  18.756  0.00  0.00    +0.000 HD
ENDBRANCH   5   7
BRANCH   1  22
ATOM     21  N   UNL     1       4.098   3.827  17.733  0.00  0.00    +0.000 N 
ATOM     22  C   UNL     1       4.565   3.713  19.026  0.00  0.00    +0.000 C 
ATOM     23  O   UNL     1       5.723   3.913  19.384  0.00  0.00    +0.000 OA
ATOM     24  H   UNL     1       3.101   3.699  17.616  0.00  0.00    +0.000 HD
BRANCH  21  29
ATOM     25  C   UNL     1       7.367   5.381  13.255  0.00  0.00    +0.000 C 
ATOM     26  C   UNL     1       6.518   4.991  14.427  0.00  0.00    +0.000 A 
ATOM     27  C   UNL     1       6.335   3.652  14.736  0.00  0.00    +0.000 A 
ATOM     28  C   UNL     1       5.522   3.292  15.809  0.00  0.00    +0.000 A 
ATOM     29  C   UNL     1       4.887   4.242  16.626  0.00  0.00    +0.000 A 
ATOM     30  C   UNL     1       5.066   5.603  16.319  0.00  0.00    +0.000 A 
ATOM     31  C   UNL     1       4.464   6.741  17.098  0.00  0.00    +0.000 C 
ATOM     32  C   UNL     1       5.883   5.956  15.218  0.00  0.00    +0.000 A 
ENDBRANCH  21  29
ENDBRANCH   1  22
TORSDOF 3
ENDMDL
MODEL 3
REMARK VINA RESULT:      -8.1      3.757      8.743
REMARK  Name = 
REMARK  5 active torsions:
REMARK  status: ('A' for Active; 'I' for Inactive)
REMARK    1  A    between atoms: C_1  and  C_2
REMARK    2  A    between atoms: C_5  and  N_6
REMARK    3  A    between atoms: C_7  and  C_9
REMARK    4  A    between atoms: C_13  and  C_14
REMARK    5  A    between atoms: C_26  and  C_27
REMARK                            x       y       z     vdW  Elec       q    Type
REMARK                         _______ _______ _______ _____ _____    ______ ____
ROOT
ATOM      1  C   UNL     1       3.257   3.030  19.726  0.00  0.00    +0.000 A 
ATOM      2  N   UNL     1       3.344   1.904  20.522  0.00  0.00    +0.000 NA
ATOM      3  C   UNL     1       2.863   2.292  21.707  0.00  0.00    +0.000 A 
ATOM      4  N   UNL     1       2.419   3.579  21.660  0.00  0.00    +0.000 N 
ATOM      5  C   UNL     1       2.575   4.046  20.367  0.00  0.00    +0.000 A 
ATOM      6  H   UNL     1       2.016   4.104  22.424  0.00  0.00    +0.000 HD
ENDROOT
BRANCH   5   7
ATOM      7  C   UNL     1       2.048   5.337  19.949  0.00  0.00    +0.000 C 
ATOM      8  O   UNL     1       1.578   5.455  18.820  0.00  0.00    +0.000 OA
ATOM      9  N   UNL     1       2.148   6.368  20.850  0.00  0.00    +0.000 N 
ATOM     10  C   UNL     1       1.783   7.634  20.474  0.00  0.00    +0.000 A 
ATOM     11  N   UNL     1       1.012   8.437  21.170  0.00  0.00    +0.000 NA
ATOM     12  C   UNL     1       0.591   9.354  20.246  0.00  0.00    +0.000 A 
ATOM     13  C   UNL     1      -0.449  10.289  20.316  0.00  0.00    +0.000 A 
ATOM     14  C   UNL     1      -1.133  10.300  19.097  0.00  0.00    +0.000 A 
ATOM     15  C   UNL     1      -0.418  10.314  17.895  0.00  0.00    +0.000 A 
ATOM     16  C   UNL     1       0.914   9.894  17.874  0.00  0.00    +0.000 A 
ATOM     17  C   UNL     1       1.277   9.219  19.038  0.00  0.00    +0.000 A 
ATOM     18  N   UNL     1       2.177   8.226  19.301  0.00  0.00    +0.000 N 
ATOM     19  H   UNL     1       1.954   6.146  21.822  0.00  0.00    +0.000 HD
ATOM     20  H   UNL     1       2.838   7.828  18.648  0.00  0.00    +0.000 HD
ENDBRANCH   5   7
BRANCH   1  22
ATOM     21  N   UNL     1       4.658   4.229  18.172  0.00  0.00    +0.000 N 
ATOM     22  C   UNL     1       3.867   3.124  18.403  0.00  0.00    +0.000 C 
ATOM     23  O   UNL     1       3.668   2.212  17.604  0.00  0.00    +0.000 OA
ATOM     24  H   UNL     1       4.778   4.854  18.960  0.00  0.00    +0.000 HD
BRANCH  21  29
ATOM     25  C   UNL     1       7.582   5.042  13.279  0.00  0.00    +0.000 C 
ATOM     26  C   UNL     1       6.835   4.829  14.560  0.00  0.00    +0.000 A 
ATOM     27  C   UNL     1       5.492   4.482  14.531  0.00  0.00    +0.000 A 
ATOM     28  C   UNL     1       4.793   4.312  15.724  0.00  0.00    +0.000 A 
ATOM     29  C   UNL     1       5.404   4.452  16.982  0.00  0.00    +0.000 A 
ATOM     30  C   UNL     1       6.764   4.804  17.021  0.00  0.00    +0.000 A 
ATOM     31  C   UNL     1       7.565   4.984  18.282  0.00  0.00    +0.000 C 
ATOM     32  C   UNL     1       7.461   4.988  15.802  0.00  0.00    +0.000 A 
ENDBRANCH  21  29
ENDBRANCH   1  22
TORSDOF 3
ENDMDL
MODEL 4
REMARK VINA RESULT:      -7.7      2.979      4.644
REMARK  Name = 
REMARK  5 active torsions:
REMARK  status: ('A' for Active; 'I' for Inactive)
REMARK    1  A    between atoms: C_1  and  C_2
REMARK    2  A    between atoms: C_5  and  N_6
REMARK    3  A    between atoms: C_7  and  C_9
REMARK    4  A    between atoms: C_13  and  C_14
REMARK    5  A    between atoms: C_26  and  C_27
REMARK                            x       y       z     vdW  Elec       q    Type
REMARK                         _______ _______ _______ _____ _____    ______ ____
ROOT
ATOM      1  C   UNL     1       0.467  11.940  18.843  0.00  0.00    +0.000 A 
ATOM      2  N   UNL     1       0.850  13.102  18.200  0.00  0.00    +0.000 NA
ATOM      3  C   UNL     1       2.103  12.866  17.799  0.00  0.00    +0.000 A 
ATOM      4  N   UNL     1       2.484  11.593  18.100  0.00  0.00    +0.000 N 
ATOM      5  C   UNL     1       1.412  10.945  18.689  0.00  0.00    +0.000 A 
ATOM      6  H   UNL     1       3.382  11.172  17.906  0.00  0.00    +0.000 HD
ENDROOT
BRANCH   5   7
ATOM      7  C   UNL     1       1.445   9.520  18.984  0.00  0.00    +0.000 C 
ATOM      8  O   UNL     1       0.700   9.071  19.850  0.00  0.00    +0.000 OA
ATOM      9  N   UNL     1       2.355   8.764  18.286  0.00  0.00    +0.000 N 
ATOM     10  C   UNL     1       2.521   7.441  18.602  0.00  0.00    +0.000 A 
ATOM     11  N   UNL     1       2.552   6.455  17.737  0.00  0.00    +0.000 NA
ATOM     12  C   UNL     1       2.301   5.350  18.505  0.00  0.00    +0.000 A 
ATOM     13  C   UNL     1       1.943   4.051  18.122  0.00  0.00    +0.000 A 
ATOM     14  C   UNL     1       0.942   3.586  18.980  0.00  0.00    +0.000 A 
ATOM     15  C   UNL     1       1.062   3.773  20.360  0.00  0.00    +0.000 A 
ATOM     16  C   UNL     1       1.915   4.762  20.856  0.00  0.00    +0.000 A 
ATOM     17  C   UNL     1       2.325   5.655  19.867  0.00  0.00    +0.000 A 
ATOM     18  N   UNL     1       2.670   6.976  19.884  0.00  0.00    +0.000 N 
ATOM     19  H   UNL     1       2.464   8.977  17.298  0.00  0.00    +0.000 HD
ATOM     20  H   UNL     1       2.760   7.561  20.703  0.00  0.00    +0.000 HD
ENDBRANCH   5   7
BRANCH   1  22
ATOM     21  N   UNL     1      -0.827  12.585  20.774  0.00  0.00    +0.000 N 
ATOM     22  C   UNL     1      -0.762  11.825  19.625  0.00  0.00    +0.000 C 
ATOM     23  O   UNL     1      -1.657  11.100  19.199  0.00  0.00    +0.000 OA
ATOM     24  H   UNL     1      -0.031  13.186  20.946  0.00  0.00    +0.000 HD
BRANCH  21  29
ATOM     25  C   UNL     1      -5.476  13.092  24.134  0.00  0.00    +0.000 C 
ATOM     26  C   UNL     1      -4.258  12.953  23.271  0.00  0.00    +0.000 A 
ATOM     27  C   UNL     1      -4.111  13.747  22.144  0.00  0.00    +0.000 A 
ATOM     28  C   UNL     1      -2.992  13.596  21.329  0.00  0.00    +0.000 A 
ATOM     29  C   UNL     1      -1.970  12.675  21.615  0.00  0.00    +0.000 A 
ATOM     30  C   UNL     1      -2.110  11.864  22.755  0.00  0.00    +0.000 A 
ATOM     31  C   UNL     1      -1.105  10.839  23.204  0.00  0.00    +0.000 C 
ATOM     32  C   UNL     1      -3.259  12.018  23.568  0.00  0.00    +0.000 A 
ENDBRANCH  21  29
ENDBRANCH   1  22
TORSDOF 3
ENDMDL
MODEL 5
REMARK VINA RESULT:      -7.5      0.454      1.374
REMARK  Name = 
REMARK  5 active torsions:
REMARK  status: ('A' for Active; 'I' for Inactive)
REMARK    1  A    between atoms: C_1  and  C_2
REMARK    2  A    between atoms: C_5  and  N_6
REMARK    3  A    between atoms: C_7  and  C_9
REMARK    4  A    between atoms: C_13  and  C_14
REMARK    5  A    between atoms: C_26  and  C_27
REMARK                            x       y       z     vdW  Elec       q    Type
REMARK                         _______ _______ _______ _____ _____    ______ ____
ROOT
ATOM      1  C   UNL     1      -1.181  11.708  21.069  0.00  0.00    +0.000 A 
ATOM      2  N   UNL     1      -1.380  12.782  21.915  0.00  0.00    +0.000 NA
ATOM      3  C   UNL     1      -1.199  12.282  23.141  0.00  0.00    +0.000 A 
ATOM      4  N   UNL     1      -0.829  10.972  23.088  0.00  0.00    +0.000 N 
ATOM      5  C   UNL     1      -0.718  10.604  21.759  0.00  0.00    +0.000 A 
ATOM      6  H   UNL     1      -0.637  10.369  23.876  0.00  0.00    +0.000 HD
ENDROOT
BRANCH   5   7
ATOM      7  C   UNL     1      -0.184   9.309  21.363  0.00  0.00    +0.000 C 
ATOM      8  O   UNL     1      -0.793   8.290  21.677  0.00  0.00    +0.000 OA
ATOM      9  N   UNL     1       1.010   9.312  20.685  0.00  0.00    +0.000 N 
ATOM     10  C   UNL     1       1.626   8.124  20.393  0.00  0.00    +0.000 A 
ATOM     11  N   UNL     1       2.116   7.794  19.220  0.00  0.00    +0.000 NA
ATOM     12  C   UNL     1       2.218   6.431  19.290  0.00  0.00    +0.000 A 
ATOM     13  C   UNL     1       2.416   5.491  18.271  0.00  0.00    +0.000 A 
ATOM     14  C   UNL     1       1.578   4.394  18.498  0.00  0.00    +0.000 A 
ATOM     15  C   UNL     1       1.475   3.848  19.781  0.00  0.00    +0.000 A 
ATOM     16  C   UNL     1       1.837   4.612  20.893  0.00  0.00    +0.000 A 
ATOM     17  C   UNL     1       1.984   5.964  20.584  0.00  0.00    +0.000 A 
ATOM     18  N   UNL     1       1.804   7.112  21.302  0.00  0.00    +0.000 N 
ATOM     19  H   UNL     1       1.134  10.034  19.981  0.00  0.00    +0.000 HD
ATOM     20  H   UNL     1       1.582   7.175  22.285  0.00  0.00    +0.000 HD
ENDBRANCH   5   7
BRANCH   1  22
ATOM     21  N   UNL     1      -2.140  10.649  19.126  0.00  0.00    +0.000 N 
ATOM     22  C   UNL     1      -1.484  11.747  19.641  0.00  0.00    +0.000 C 
ATOM     23  O   UNL     1      -1.171  12.751  19.007  0.00  0.00    +0.000 OA
ATOM     24  H   UNL     1      -2.390   9.934  19.797  0.00  0.00    +0.000 HD
BRANCH  21  29
ATOM     25  C   UNL     1      -4.130  10.228  13.739  0.00  0.00    +0.000 C 
ATOM     26  C   UNL     1      -3.603  10.326  15.138  0.00  0.00    +0.000 A 
ATOM     27  C   UNL     1      -4.329  10.999  16.109  0.00  0.00    +0.000 A 
ATOM     28  C   UNL     1      -3.823  11.112  17.401  0.00  0.00    +0.000 A 
ATOM     29  C   UNL     1      -2.597  10.540  17.784  0.00  0.00    +0.000 A 
ATOM     30  C   UNL     1      -1.852   9.857  16.806  0.00  0.00    +0.000 A 
ATOM     31  C   UNL     1      -0.530   9.185  17.054  0.00  0.00    +0.000 C 
ATOM     32  C   UNL     1      -2.372   9.761  15.492  0.00  0.00    +0.000 A 
ENDBRANCH  21  29
ENDBRANCH   1  22
TORSDOF 3
ENDMDL
MODEL 6
REMARK VINA RESULT:      -7.5      2.031      3.260
REMARK  Name = 
REMARK  5 active torsions:
REMARK  status: ('A' for Active; 'I' for Inactive)
REMARK    1  A    between atoms: C_1  and  C_2
REMARK    2  A    between atoms: C_5  and  N_6
REMARK    3  A    between atoms: C_7  and  C_9
REMARK    4  A    between atoms: C_13  and  C_14
REMARK    5  A    between atoms: C_26  and  C_27
REMARK                            x       y       z     vdW  Elec       q    Type
REMARK                         _______ _______ _______ _____ _____    ______ ____
ROOT
ATOM      1  C   UNL     1       0.257  12.068  18.829  0.00  0.00    +0.000 A 
ATOM      2  N   UNL     1       0.681  13.275  18.305  0.00  0.00    +0.000 NA
ATOM      3  C   UNL     1       1.994  13.117  18.114  0.00  0.00    +0.000 A 
ATOM      4  N   UNL     1       2.387  11.850  18.427  0.00  0.00    +0.000 N 
ATOM      5  C   UNL     1       1.268  11.127  18.801  0.00  0.00    +0.000 A 
ATOM      6  H   UNL     1       3.326  11.481  18.373  0.00  0.00    +0.000 HD
ENDROOT
BRANCH   5   7
ATOM      7  C   UNL     1       1.327   9.692  19.043  0.00  0.00    +0.000 C 
ATOM      8  O   UNL     1       0.541   9.186  19.839  0.00  0.00    +0.000 OA
ATOM      9  N   UNL     1       2.306   8.992  18.381  0.00  0.00    +0.000 N 
ATOM     10  C   UNL     1       2.493   7.664  18.658  0.00  0.00    +0.000 A 
ATOM     11  N   UNL     1       2.615   6.714  17.759  0.00  0.00    +0.000 NA
ATOM     12  C   UNL     1       2.349   5.573  18.466  0.00  0.00    +0.000 A 
ATOM     13  C   UNL     1       2.059   4.280  18.011  0.00  0.00    +0.000 A 
ATOM     14  C   UNL     1       1.018   3.750  18.780  0.00  0.00    +0.000 A 
ATOM     15  C   UNL     1       1.040   3.886  20.171  0.00  0.00    +0.000 A 
ATOM     16  C   UNL     1       1.824   4.880  20.761  0.00  0.00    +0.000 A 
ATOM     17  C   UNL     1       2.271   5.823  19.837  0.00  0.00    +0.000 A 
ATOM     18  N   UNL     1       2.571   7.152  19.928  0.00  0.00    +0.000 N 
ATOM     19  H   UNL     1       2.474   9.248  17.412  0.00  0.00    +0.000 HD
ATOM     20  H   UNL     1       2.586   7.707  20.773  0.00  0.00    +0.000 HD
ENDBRANCH   5   7
BRANCH   1  22
ATOM     21  N   UNL     1      -2.137  12.200  18.573  0.00  0.00    +0.000 N 
ATOM     22  C   UNL     1      -1.076  11.861  19.386  0.00  0.00    +0.000 C 
ATOM     23  O   UNL     1      -1.168  11.373  20.510  0.00  0.00    +0.000 OA
ATOM     24  H   UNL     1      -1.891  12.523  17.646  0.00  0.00    +0.000 HD
BRANCH  21  29
ATOM     25  C   UNL     1      -7.642  11.380  20.049  0.00  0.00    +0.000 C 
ATOM     26  C   UNL     1      -6.210  11.580  19.657  0.00  0.00    +0.000 A 
ATOM     27  C   UNL     1      -5.396  12.420  20.403  0.00  0.00    +0.000 A 
ATOM     28  C   UNL     1      -4.073  12.626  20.019  0.00  0.00    +0.000 A 
ATOM     29  C   UNL     1      -3.504  11.988  18.903  0.00  0.00    +0.000 A 
ATOM     30  C   UNL     1      -4.321  11.137  18.140  0.00  0.00    +0.000 A 
ATOM     31  C   UNL     1      -3.864  10.375  16.925  0.00  0.00    +0.000 C 
ATOM     32  C   UNL     1      -5.669  10.946  18.532  0.00  0.00    +0.000 A 
ENDBRANCH  21  29
ENDBRANCH   1  22
TORSDOF 3
ENDMDL
MODEL 7
REMARK VINA RESULT:      -7.4      3.743      8.577
REMARK  Name = 
REMARK  5 active torsions:
REMARK  status: ('A' for Active; 'I' for Inactive)
REMARK    1  A    between atoms: C_1  and  C_2
REMARK    2  A    between atoms: C_5  and  N_6
REMARK    3  A    between atoms: C_7  and  C_9
REMARK    4  A    between atoms: C_13  and  C_14
REMARK    5  A    between atoms: C_26  and  C_27
REMARK                            x       y       z     vdW  Elec       q    Type
REMARK                         _______ _______ _______ _____ _____    ______ ____
ROOT
ATOM      1  C   UNL     1       3.151   5.014  19.342  0.00  0.00    +0.000 A 
ATOM      2  N   UNL     1       2.942   3.710  19.752  0.00  0.00    +0.000 NA
ATOM      3  C   UNL     1       2.214   3.821  20.867  0.00  0.00    +0.000 A 
ATOM      4  N   UNL     1       1.904   5.122  21.124  0.00  0.00    +0.000 N 
ATOM      5  C   UNL     1       2.417   5.903  20.103  0.00  0.00    +0.000 A 
ATOM      6  H   UNL     1       1.367   5.469  21.907  0.00  0.00    +0.000 HD
ENDROOT
BRANCH   5   7
ATOM      7  C   UNL     1       2.118   7.324  20.000  0.00  0.00    +0.000 C 
ATOM      8  O   UNL     1       1.921   7.970  21.025  0.00  0.00    +0.000 OA
ATOM      9  N   UNL     1       2.038   7.850  18.734  0.00  0.00    +0.000 N 
ATOM     10  C   UNL     1       1.641   9.150  18.564  0.00  0.00    +0.000 A 
ATOM     11  N   UNL     1       2.246  10.032  17.804  0.00  0.00    +0.000 NA
ATOM     12  C   UNL     1       1.781  11.230  18.275  0.00  0.00    +0.000 A 
ATOM     13  C   UNL     1       2.257  12.529  18.055  0.00  0.00    +0.000 A 
ATOM     14  C   UNL     1       2.231  13.233  19.263  0.00  0.00    +0.000 A 
ATOM     15  C   UNL     1       1.106  13.158  20.090  0.00  0.00    +0.000 A 
ATOM     16  C   UNL     1       0.214  12.092  19.956  0.00  0.00    +0.000 A 
ATOM     17  C   UNL     1       0.737  11.055  19.184  0.00  0.00    +0.000 A 
ATOM     18  N   UNL     1       0.549   9.702  19.185  0.00  0.00    +0.000 N 
ATOM     19  H   UNL     1       2.729   7.530  18.061  0.00  0.00    +0.000 HD
ATOM     20  H   UNL     1      -0.113   9.189  19.751  0.00  0.00    +0.000 HD
ENDBRANCH   5   7
BRANCH   1  22
ATOM     21  N   UNL     1       4.553   4.345  17.498  0.00  0.00    +0.000 N 
ATOM     22  C   UNL     1       4.078   5.379  18.275  0.00  0.00    +0.000 C 
ATOM     23  O   UNL     1       4.345   6.568  18.118  0.00  0.00    +0.000 OA
ATOM     24  H   UNL     1       4.179   3.429  17.713  0.00  0.00    +0.000 HD
BRANCH  21  29
ATOM     25  C   UNL     1       7.847   4.935  12.812  0.00  0.00    +0.000 C 
ATOM     26  C   UNL     1       7.003   4.778  14.040  0.00  0.00    +0.000 A 
ATOM     27  C   UNL     1       5.642   4.539  13.921  0.00  0.00    +0.000 A 
ATOM     28  C   UNL     1       4.855   4.422  15.064  0.00  0.00    +0.000 A 
ATOM     29  C   UNL     1       5.391   4.510  16.361  0.00  0.00    +0.000 A 
ATOM     30  C   UNL     1       6.769   4.754  16.492  0.00  0.00    +0.000 A 
ATOM     31  C   UNL     1       7.496   4.867  17.804  0.00  0.00    +0.000 C 
ATOM     32  C   UNL     1       7.556   4.885  15.321  0.00  0.00    +0.000 A 
ENDBRANCH  21  29
ENDBRANCH   1  22
TORSDOF 3
ENDMDL
MODEL 8
REMARK VINA RESULT:      -7.3      2.705      4.068
REMARK  Name = 
REMARK  5 active torsions:
REMARK  status: ('A' for Active; 'I' for Inactive)
REMARK    1  A    between atoms: C_1  and  C_2
REMARK    2  A    between atoms: C_5  and  N_6
REMARK    3  A    between atoms: C_7  and  C_9
REMARK    4  A    between atoms: C_13  and  C_14
REMARK    5  A    between atoms: C_26  and  C_27
REMARK                            x       y       z     vdW  Elec       q    Type
REMARK                         _______ _______ _______ _____ _____    ______ ____
ROOT
ATOM      1  C   UNL     1       0.086  12.001  18.851  0.00  0.00    +0.000 A 
ATOM      2  N   UNL     1       0.483  13.212  18.316  0.00  0.00    +0.000 NA
ATOM      3  C   UNL     1       1.807  13.100  18.175  0.00  0.00    +0.000 A 
ATOM      4  N   UNL     1       2.235  11.855  18.530  0.00  0.00    +0.000 N 
ATOM      5  C   UNL     1       1.131  11.098  18.879  0.00  0.00    +0.000 A 
ATOM      6  H   UNL     1       3.189  11.521  18.516  0.00  0.00    +0.000 HD
ENDROOT
BRANCH   5   7
ATOM      7  C   UNL     1       1.234   9.672  19.154  0.00  0.00    +0.000 C 
ATOM      8  O   UNL     1       0.549   9.184  20.048  0.00  0.00    +0.000 OA
ATOM      9  N   UNL     1       2.139   8.961  18.405  0.00  0.00    +0.000 N 
ATOM     10  C   UNL     1       2.373   7.643  18.697  0.00  0.00    +0.000 A 
ATOM     11  N   UNL     1       2.403   6.668  17.818  0.00  0.00    +0.000 NA
ATOM     12  C   UNL     1       2.232   5.546  18.583  0.00  0.00    +0.000 A 
ATOM     13  C   UNL     1       1.909   4.238  18.201  0.00  0.00    +0.000 A 
ATOM     14  C   UNL     1       0.968   3.723  19.098  0.00  0.00    +0.000 A 
ATOM     15  C   UNL     1       1.146   3.900  20.474  0.00  0.00    +0.000 A 
ATOM     16  C   UNL     1       1.980   4.918  20.942  0.00  0.00    +0.000 A 
ATOM     17  C   UNL     1       2.308   5.837  19.946  0.00  0.00    +0.000 A 
ATOM     18  N   UNL     1       2.601   7.170  19.964  0.00  0.00    +0.000 N 
ATOM     19  H   UNL     1       2.194   9.189  17.416  0.00  0.00    +0.000 HD
ATOM     20  H   UNL     1       2.705   7.750  20.785  0.00  0.00    +0.000 HD
ENDBRANCH   5   7
BRANCH   1  22
ATOM     21  N   UNL     1      -1.753  12.687  20.253  0.00  0.00    +0.000 N 
ATOM     22  C   UNL     1      -1.258  11.755  19.365  0.00  0.00    +0.000 C 
ATOM     23  O   UNL     1      -1.867  10.770  18.955  0.00  0.00    +0.000 OA
ATOM     24  H   UNL     1      -1.152  13.481  20.433  0.00  0.00    +0.000 HD
BRANCH  21  29
ATOM     25  C   UNL     1      -7.133  12.672  22.304  0.00  0.00    +0.000 C 
ATOM     26  C   UNL     1      -5.728  12.681  21.785  0.00  0.00    +0.000 A 
ATOM     27  C   UNL     1      -5.493  12.701  20.418  0.00  0.00    +0.000 A 
ATOM     28  C   UNL     1      -4.186  12.681  19.937  0.00  0.00    +0.000 A 
ATOM     29  C   UNL     1      -3.069  12.667  20.791  0.00  0.00    +0.000 A 
ATOM     30  C   UNL     1      -3.297  12.645  22.178  0.00  0.00    +0.000 A 
ATOM     31  C   UNL     1      -2.214  12.638  23.222  0.00  0.00    +0.000 C 
ATOM     32  C   UNL     1      -4.631  12.652  22.654  0.00  0.00    +0.000 A 
ENDBRANCH  21  29
ENDBRANCH   1  22
TORSDOF 3
ENDMDL
MODEL 9
REMARK VINA RESULT:      -7.2      2.932      7.522
REMARK  Name = 
REMARK  5 active torsions:
REMARK  status: ('A' for Active; 'I' for Inactive)
REMARK    1  A    between atoms: C_1  and  C_2
REMARK    2  A    between atoms: C_5  and  N_6
REMARK    3  A    between atoms: C_7  and  C_9
REMARK    4  A    between atoms: C_13  and  C_14
REMARK    5  A    between atoms: C_26  and  C_27
REMARK                            x       y       z     vdW  Elec       q    Type
REMARK                         _______ _______ _______ _____ _____    ______ ____
ROOT
ATOM      1  C   UNL     1       0.427  12.891  19.983  0.00  0.00    +0.000 A 
ATOM      2  N   UNL     1       1.339  13.929  19.934  0.00  0.00    +0.000 NA
ATOM      3  C   UNL     1       0.725  14.883  19.229  0.00  0.00    +0.000 A 
ATOM      4  N   UNL     1      -0.545  14.514  18.903  0.00  0.00    +0.000 N 
ATOM      5  C   UNL     1      -0.793  13.271  19.460  0.00  0.00    +0.000 A 
ATOM      6  H   UNL     1      -1.211  15.057  18.371  0.00  0.00    +0.000 HD
ENDROOT
BRANCH   5   7
ATOM      7  C   UNL     1      -2.118  12.668  19.429  0.00  0.00    +0.000 C 
ATOM      8  O   UNL     1      -2.261  11.565  18.909  0.00  0.00    +0.000 OA
ATOM      9  N   UNL     1      -3.147  13.406  19.959  0.00  0.00    +0.000 N 
ATOM     10  C   UNL     1      -4.434  12.949  19.851  0.00  0.00    +0.000 A 
ATOM     11  N   UNL     1      -5.304  12.898  20.833  0.00  0.00    +0.000 NA
ATOM     12  C   UNL     1      -6.242  12.010  20.381  0.00  0.00    +0.000 A 
ATOM     13  C   UNL     1      -7.258  11.343  21.077  0.00  0.00    +0.000 A 
ATOM     14  C   UNL     1      -7.310  10.015  20.641  0.00  0.00    +0.000 A 
ATOM     15  C   UNL     1      -7.255   9.726  19.275  0.00  0.00    +0.000 A 
ATOM     16  C   UNL     1      -6.729  10.667  18.385  0.00  0.00    +0.000 A 
ATOM     17  C   UNL     1      -6.039  11.687  19.038  0.00  0.00    +0.000 A 
ATOM     18  N   UNL     1      -4.980  12.474  18.685  0.00  0.00    +0.000 N 
ATOM     19  H   UNL     1      -2.952  13.911  20.819  0.00  0.00    +0.000 HD
ATOM     20  H   UNL     1      -4.524  12.495  17.784  0.00  0.00    +0.000 HD
ENDBRANCH   5   7
BRANCH   1  22
ATOM     21  N   UNL     1       0.699  10.533  19.558  0.00  0.00    +0.000 N 
ATOM     22  C   UNL     1       0.756  11.558  20.479  0.00  0.00    +0.000 C 
ATOM     23  O   UNL     1       1.092  11.441  21.654  0.00  0.00    +0.000 OA
ATOM     24  H   UNL     1       0.474  10.809  18.610  0.00  0.00    +0.000 HD
BRANCH  21  29
ATOM     25  C   UNL     1       2.177   5.107  20.797  0.00  0.00    +0.000 C 
ATOM     26  C   UNL     1       1.804   6.520  20.464  0.00  0.00    +0.000 A 
ATOM     27  C   UNL     1       1.014   7.254  21.337  0.00  0.00    +0.000 A 
ATOM     28  C   UNL     1       0.646   8.557  21.011  0.00  0.00    +0.000 A 
ATOM     29  C   UNL     1       1.069   9.187  19.828  0.00  0.00    +0.000 A 
ATOM     30  C   UNL     1       1.869   8.451  18.937  0.00  0.00    +0.000 A 
ATOM     31  C   UNL     1       2.409   8.980  17.636  0.00  0.00    +0.000 C 
ATOM     32  C   UNL     1       2.225   7.122  19.272  0.00  0.00    +0.000 A 
ENDBRANCH  21  29
ENDBRANCH   1  22
TORSDOF 3
ENDMDL
