MODEL 1
REMARK VINA RESULT:      -8.3      0.000      0.000
REMARK  Name = 
REMARK  6 active torsions:
REMARK  status: ('A' for Active; 'I' for Inactive)
REMARK    1  A    between atoms: C_1  and  N_2
REMARK    2  A    between atoms: N_12  and  C_13
REMARK    3  A    between atoms: C_13  and  C_14
REMARK    4  A    between atoms: C_14  and  C_15
REMARK    5  A    between atoms: C_19  and  C_20
REMARK    6  A    between atoms: N_26  and  C_27
REMARK                            x       y       z     vdW  Elec       q    Type
REMARK                         _______ _______ _______ _____ _____    ______ ____
ROOT
ATOM      1  C   UNL     1       6.095   5.407  14.422  0.00  0.00    +0.000 C 
ATOM      2  N   UNL     1       5.937   5.070  15.822  0.00  0.00    +0.000 N 
ATOM      3  C   UNL     1       4.830   4.306  16.182  0.00  0.00    +0.000 A 
ATOM      4  O   UNL     1       3.964   3.919  15.403  0.00  0.00    +0.000 OA
ATOM      5  C   UNL     1       4.794   4.017  17.569  0.00  0.00    +0.000 A 
ATOM      6  C   UNL     1       5.711   4.468  18.465  0.00  0.00    +0.000 A 
ATOM      7  N   UNL     1       5.404   4.080  19.742  0.00  0.00    +0.000 NA
ATOM      8  C   UNL     1       4.288   3.382  19.621  0.00  0.00    +0.000 A 
ATOM      9  N   UNL     1       3.915   3.286  18.299  0.00  0.00    +0.000 N 
ATOM     10  C   UNL     1       2.723   2.608  17.832  0.00  0.00    +0.000 C 
ATOM     11  C   UNL     1       2.099   1.765  18.952  0.00  0.00    +0.000 C 
ATOM     12  N   UNL     1       2.057   2.464  20.257  0.00  0.00    +0.000 NA
ATOM     13  C   UNL     1       3.458   2.732  20.690  0.00  0.00    +0.000 C 
ATOM     14  N   UNL     1       6.780   5.232  18.063  0.00  0.00    +0.000 N 
ATOM     15  C   UNL     1       7.783   5.707  18.993  0.00  0.00    +0.000 C 
ATOM     16  C   UNL     1       6.925   5.545  16.707  0.00  0.00    +0.000 A 
ATOM     17  O   UNL     1       7.880   6.213  16.297  0.00  0.00    +0.000 OA
ENDROOT
BRANCH  12  18
ATOM     18  C   UNL     1       1.273   3.720  20.215  0.00  0.00    +0.000 C 
BRANCH  18  19
ATOM     19  C   UNL     1       1.863   4.842  21.086  0.00  0.00    +0.000 C 
BRANCH  19  20
ATOM     20  C   UNL     1       1.812   6.170  20.372  0.00  0.00    +0.000 A 
ATOM     21  C   UNL     1       2.427   6.326  19.124  0.00  0.00    +0.000 A 
ATOM     22  C   UNL     1       2.405   7.560  18.474  0.00  0.00    +0.000 A 
ATOM     23  C   UNL     1       1.766   8.646  19.068  0.00  0.00    +0.000 A 
ATOM     24  C   UNL     1       1.146   8.513  20.319  0.00  0.00    +0.000 A 
ATOM     25  C   UNL     1       1.181   7.270  20.968  0.00  0.00    +0.000 A 
BRANCH  24  26
ATOM     26  C   UNL     1       0.442   9.679  20.968  0.00  0.00    +0.000 C 
ATOM     27  F   UNL     1      -0.513  10.246  20.179  0.00  0.00    +0.000 F 
ATOM     28  F   UNL     1      -0.188   9.329  22.123  0.00  0.00    +0.000 F 
ATOM     29  F   UNL     1       1.297  10.686  21.300  0.00  0.00    +0.000 F 
ENDBRANCH  24  26
ENDBRANCH  19  20
ENDBRANCH  18  19
ENDBRANCH  12  18
TORSDOF 4
ENDMDL
MODEL 2
REMARK VINA RESULT:      -7.9      4.470      6.375
REMARK  Name = 
REMARK  6 active torsions:
REMARK  status: ('A' for Active; 'I' for Inactive)
REMARK    1  A    between atoms: C_1  and  N_2
REMARK    2  A    between atoms: N_12  and  C_13
REMARK    3  A    between atoms: C_13  and  C_14
REMARK    4  A    between atoms: C_14  and  C_15
REMARK    5  A    between atoms: C_19  and  C_20
REMARK    6  A    between atoms: N_26  and  C_27
REMARK                            x       y       z     vdW  Elec       q    Type
REMARK                         _______ _______ _______ _____ _____    ______ ____
ROOT
ATOM      1  C   UNL     1       2.484   2.832  20.447  0.00  0.00    +0.000 C 
ATOM      2  N   UNL     1       2.718   4.028  19.663  0.00  0.00    +0.000 N 
ATOM      3  C   UNL     1       2.139   5.215  20.106  0.00  0.00    +0.000 A 
ATOM      4  O   UNL     1       1.426   5.317  21.099  0.00  0.00    +0.000 OA
ATOM      5  C   UNL     1       2.457   6.320  19.276  0.00  0.00    +0.000 A 
ATOM      6  C   UNL     1       3.207   6.233  18.146  0.00  0.00    +0.000 A 
ATOM      7  N   UNL     1       3.312   7.443  17.514  0.00  0.00    +0.000 NA
ATOM      8  C   UNL     1       2.619   8.277  18.271  0.00  0.00    +0.000 A 
ATOM      9  N   UNL     1       2.124   7.630  19.381  0.00  0.00    +0.000 N 
ATOM     10  C   UNL     1       1.301   8.258  20.395  0.00  0.00    +0.000 C 
ATOM     11  C   UNL     1       1.304   9.783  20.234  0.00  0.00    +0.000 C 
ATOM     12  N   UNL     1       1.164  10.225  18.828  0.00  0.00    +0.000 NA
ATOM     13  C   UNL     1       2.347   9.740  18.063  0.00  0.00    +0.000 C 
ATOM     14  N   UNL     1       3.744   5.034  17.742  0.00  0.00    +0.000 N 
ATOM     15  C   UNL     1       4.564   4.918  16.554  0.00  0.00    +0.000 C 
ATOM     16  C   UNL     1       3.517   3.888  18.512  0.00  0.00    +0.000 A 
ATOM     17  O   UNL     1       3.996   2.794  18.196  0.00  0.00    +0.000 OA
ENDROOT
BRANCH  12  18
ATOM     18  C   UNL     1      -0.093   9.757  18.198  0.00  0.00    +0.000 C 
BRANCH  18  19
ATOM     19  C   UNL     1      -1.359  10.357  18.834  0.00  0.00    +0.000 C 
BRANCH  19  20
ATOM     20  C   UNL     1      -2.432  10.586  17.798  0.00  0.00    +0.000 A 
ATOM     21  C   UNL     1      -2.289  10.067  16.505  0.00  0.00    +0.000 A 
ATOM     22  C   UNL     1      -3.265  10.301  15.538  0.00  0.00    +0.000 A 
ATOM     23  C   UNL     1      -4.393  11.054  15.857  0.00  0.00    +0.000 A 
ATOM     24  C   UNL     1      -4.556  11.585  17.144  0.00  0.00    +0.000 A 
ATOM     25  C   UNL     1      -3.563  11.351  18.108  0.00  0.00    +0.000 A 
BRANCH  24  26
ATOM     26  C   UNL     1      -5.777  12.393  17.506  0.00  0.00    +0.000 C 
ATOM     27  F   UNL     1      -5.664  13.048  18.695  0.00  0.00    +0.000 F 
ATOM     28  F   UNL     1      -6.061  13.350  16.580  0.00  0.00    +0.000 F 
ATOM     29  F   UNL     1      -6.899  11.627  17.608  0.00  0.00    +0.000 F 
ENDBRANCH  24  26
ENDBRANCH  19  20
ENDBRANCH  18  19
ENDBRANCH  12  18
TORSDOF 4
ENDMDL
MODEL 3
REMARK VINA RESULT:      -7.9      6.509      9.456
REMARK  Name = 
REMARK  6 active torsions:
REMARK  status: ('A' for Active; 'I' for Inactive)
REMARK    1  A    between atoms: C_1  and  N_2
REMARK    2  A    between atoms: N_12  and  C_13
REMARK    3  A    between atoms: C_13  and  C_14
REMARK    4  A    between atoms: C_14  and  C_15
REMARK    5  A    between atoms: C_19  and  C_20
REMARK    6  A    between atoms: N_26  and  C_27
REMARK                            x       y       z     vdW  Elec       q    Type
REMARK                         _______ _______ _______ _____ _____    ______ ____
ROOT
ATOM      1  C   UNL     1      -5.434  11.782  16.875  0.00  0.00    +0.000 C 
ATOM      2  N   UNL     1      -4.566  11.930  18.026  0.00  0.00    +0.000 N 
ATOM      3  C   UNL     1      -3.263  11.449  17.918  0.00  0.00    +0.000 A 
ATOM      4  O   UNL     1      -2.804  10.887  16.929  0.00  0.00    +0.000 OA
ATOM      5  C   UNL     1      -2.501  11.672  19.093  0.00  0.00    +0.000 A 
ATOM      6  C   UNL     1      -2.991  12.251  20.221  0.00  0.00    +0.000 A 
ATOM      7  N   UNL     1      -2.053  12.293  21.217  0.00  0.00    +0.000 NA
ATOM      8  C   UNL     1      -0.977  11.736  20.687  0.00  0.00    +0.000 A 
ATOM      9  N   UNL     1      -1.205  11.388  19.374  0.00  0.00    +0.000 N 
ATOM     10  C   UNL     1      -0.235  10.733  18.520  0.00  0.00    +0.000 C 
ATOM     11  C   UNL     1       1.158  10.750  19.163  0.00  0.00    +0.000 C 
ATOM     12  N   UNL     1       1.142  10.421  20.606  0.00  0.00    +0.000 NA
ATOM     13  C   UNL     1       0.360  11.472  21.318  0.00  0.00    +0.000 C 
ATOM     14  N   UNL     1      -4.290  12.696  20.283  0.00  0.00    +0.000 N 
ATOM     15  C   UNL     1      -4.831  13.335  21.464  0.00  0.00    +0.000 C 
ATOM     16  C   UNL     1      -5.116  12.553  19.162  0.00  0.00    +0.000 A 
ATOM     17  O   UNL     1      -6.284  12.957  19.166  0.00  0.00    +0.000 OA
ENDROOT
BRANCH  12  18
ATOM     18  C   UNL     1       0.587   9.077  20.886  0.00  0.00    +0.000 C 
BRANCH  18  19
ATOM     19  C   UNL     1       1.639   8.066  21.373  0.00  0.00    +0.000 C 
BRANCH  19  20
ATOM     20  C   UNL     1       1.839   6.961  20.367  0.00  0.00    +0.000 A 
ATOM     21  C   UNL     1       2.353   7.245  19.096  0.00  0.00    +0.000 A 
ATOM     22  C   UNL     1       2.513   6.230  18.154  0.00  0.00    +0.000 A 
ATOM     23  C   UNL     1       2.160   4.921  18.477  0.00  0.00    +0.000 A 
ATOM     24  C   UNL     1       1.640   4.614  19.742  0.00  0.00    +0.000 A 
ATOM     25  C   UNL     1       1.476   5.644  20.680  0.00  0.00    +0.000 A 
BRANCH  24  26
ATOM     26  C   UNL     1       1.264   3.200  20.108  0.00  0.00    +0.000 C 
ATOM     27  F   UNL     1       0.096   2.784  19.544  0.00  0.00    +0.000 F 
ATOM     28  F   UNL     1       2.206   2.294  19.723  0.00  0.00    +0.000 F 
ATOM     29  F   UNL     1       1.110   3.030  21.451  0.00  0.00    +0.000 F 
ENDBRANCH  24  26
ENDBRANCH  19  20
ENDBRANCH  18  19
ENDBRANCH  12  18
TORSDOF 4
ENDMDL
MODEL 4
REMARK VINA RESULT:      -7.7      6.767      9.869
REMARK  Name = 
REMARK  6 active torsions:
REMARK  status: ('A' for Active; 'I' for Inactive)
REMARK    1  A    between atoms: C_1  and  N_2
REMARK    2  A    between atoms: N_12  and  C_13
REMARK    3  A    between atoms: C_13  and  C_14
REMARK    4  A    between atoms: C_14  and  C_15
REMARK    5  A    between atoms: C_19  and  C_20
REMARK    6  A    between atoms: N_26  and  C_27
REMARK                            x       y       z     vdW  Elec       q    Type
REMARK                         _______ _______ _______ _____ _____    ______ ____
ROOT
ATOM      1  C   UNL     1      -6.315  12.329  18.251  0.00  0.00    +0.000 C 
ATOM      2  N   UNL     1      -5.194  12.367  19.168  0.00  0.00    +0.000 N 
ATOM      3  C   UNL     1      -3.962  11.914  18.702  0.00  0.00    +0.000 A 
ATOM      4  O   UNL     1      -3.762  11.461  17.579  0.00  0.00    +0.000 OA
ATOM      5  C   UNL     1      -2.937  12.023  19.675  0.00  0.00    +0.000 A 
ATOM      6  C   UNL     1      -3.133  12.477  20.941  0.00  0.00    +0.000 A 
ATOM      7  N   UNL     1      -1.982  12.428  21.681  0.00  0.00    +0.000 NA
ATOM      8  C   UNL     1      -1.073  11.939  20.854  0.00  0.00    +0.000 A 
ATOM      9  N   UNL     1      -1.615  11.726  19.606  0.00  0.00    +0.000 N 
ATOM     10  C   UNL     1      -0.888  11.173  18.482  0.00  0.00    +0.000 C 
ATOM     11  C   UNL     1       0.618  11.139  18.769  0.00  0.00    +0.000 C 
ATOM     12  N   UNL     1       0.945  10.663  20.132  0.00  0.00    +0.000 NA
ATOM     13  C   UNL     1       0.372  11.627  21.115  0.00  0.00    +0.000 C 
ATOM     14  N   UNL     1      -4.372  12.900  21.359  0.00  0.00    +0.000 N 
ATOM     15  C   UNL     1      -4.605  13.409  22.695  0.00  0.00    +0.000 C 
ATOM     16  C   UNL     1      -5.446  12.864  20.462  0.00  0.00    +0.000 A 
ATOM     17  O   UNL     1      -6.573  13.253  20.788  0.00  0.00    +0.000 OA
ENDROOT
BRANCH  12  18
ATOM     18  C   UNL     1       0.454   9.291  20.399  0.00  0.00    +0.000 C 
BRANCH  18  19
ATOM     19  C   UNL     1       1.488   8.393  21.100  0.00  0.00    +0.000 C 
BRANCH  19  20
ATOM     20  C   UNL     1       1.849   7.207  20.242  0.00  0.00    +0.000 A 
ATOM     21  C   UNL     1       2.453   7.395  18.992  0.00  0.00    +0.000 A 
ATOM     22  C   UNL     1       2.763   6.302  18.184  0.00  0.00    +0.000 A 
ATOM     23  C   UNL     1       2.473   5.011  18.621  0.00  0.00    +0.000 A 
ATOM     24  C   UNL     1       1.867   4.799  19.868  0.00  0.00    +0.000 A 
ATOM     25  C   UNL     1       1.551   5.907  20.669  0.00  0.00    +0.000 A 
BRANCH  24  26
ATOM     26  C   UNL     1       1.557   3.407  20.357  0.00  0.00    +0.000 C 
ATOM     27  F   UNL     1       2.376   2.451  19.834  0.00  0.00    +0.000 F 
ATOM     28  F   UNL     1       1.669   3.293  21.709  0.00  0.00    +0.000 F 
ATOM     29  F   UNL     1       0.288   3.016  20.053  0.00  0.00    +0.000 F 
ENDBRANCH  24  26
ENDBRANCH  19  20
ENDBRANCH  18  19
ENDBRANCH  12  18
TORSDOF 4
ENDMDL
MODEL 5
REMARK VINA RESULT:      -7.7      6.284      9.044
REMARK  Name = 
REMARK  6 active torsions:
REMARK  status: ('A' for Active; 'I' for Inactive)
REMARK    1  A    between atoms: C_1  and  N_2
REMARK    2  A    between atoms: N_12  and  C_13
REMARK    3  A    between atoms: C_13  and  C_14
REMARK    4  A    between atoms: C_14  and  C_15
REMARK    5  A    between atoms: C_19  and  C_20
REMARK    6  A    between atoms: N_26  and  C_27
REMARK                            x       y       z     vdW  Elec       q    Type
REMARK                         _______ _______ _______ _____ _____    ______ ____
ROOT
ATOM      1  C   UNL     1      -4.489  10.750  15.309  0.00  0.00    +0.000 C 
ATOM      2  N   UNL     1      -3.956  11.092  16.613  0.00  0.00    +0.000 N 
ATOM      3  C   UNL     1      -2.639  10.733  16.887  0.00  0.00    +0.000 A 
ATOM      4  O   UNL     1      -1.904  10.125  16.115  0.00  0.00    +0.000 OA
ATOM      5  C   UNL     1      -2.219  11.142  18.178  0.00  0.00    +0.000 A 
ATOM      6  C   UNL     1      -3.021  11.777  19.074  0.00  0.00    +0.000 A 
ATOM      7  N   UNL     1      -2.373  12.007  20.258  0.00  0.00    +0.000 NA
ATOM      8  C   UNL     1      -1.161  11.509  20.079  0.00  0.00    +0.000 A 
ATOM      9  N   UNL     1      -1.021  11.015  18.801  0.00  0.00    +0.000 N 
ATOM     10  C   UNL     1       0.178  10.379  18.296  0.00  0.00    +0.000 C 
ATOM     11  C   UNL     1       1.356  10.594  19.255  0.00  0.00    +0.000 C 
ATOM     12  N   UNL     1       0.995  10.406  20.678  0.00  0.00    +0.000 NA
ATOM     13  C   UNL     1      -0.014  11.440  21.046  0.00  0.00    +0.000 C 
ATOM     14  N   UNL     1      -4.320  12.097  18.761  0.00  0.00    +0.000 N 
ATOM     15  C   UNL     1      -5.188  12.792  19.689  0.00  0.00    +0.000 C 
ATOM     16  C   UNL     1      -4.821  11.767  17.497  0.00  0.00    +0.000 A 
ATOM     17  O   UNL     1      -5.976  12.052  17.166  0.00  0.00    +0.000 OA
ENDROOT
BRANCH  12  18
ATOM     18  C   UNL     1       0.482   9.048  20.970  0.00  0.00    +0.000 C 
BRANCH  18  19
ATOM     19  C   UNL     1       1.566   8.074  21.464  0.00  0.00    +0.000 C 
BRANCH  19  20
ATOM     20  C   UNL     1       1.808   6.975  20.460  0.00  0.00    +0.000 A 
ATOM     21  C   UNL     1       2.341   7.272  19.199  0.00  0.00    +0.000 A 
ATOM     22  C   UNL     1       2.540   6.261  18.260  0.00  0.00    +0.000 A 
ATOM     23  C   UNL     1       2.208   4.945  18.574  0.00  0.00    +0.000 A 
ATOM     24  C   UNL     1       1.671   4.625  19.829  0.00  0.00    +0.000 A 
ATOM     25  C   UNL     1       1.467   5.650  20.765  0.00  0.00    +0.000 A 
BRANCH  24  26
ATOM     26  C   UNL     1       1.318   3.203  20.186  0.00  0.00    +0.000 C 
ATOM     27  F   UNL     1       0.991   3.036  21.498  0.00  0.00    +0.000 F 
ATOM     28  F   UNL     1       0.253   2.737  19.476  0.00  0.00    +0.000 F 
ATOM     29  F   UNL     1       2.338   2.334  19.942  0.00  0.00    +0.000 F 
ENDBRANCH  24  26
ENDBRANCH  19  20
ENDBRANCH  18  19
ENDBRANCH  12  18
TORSDOF 4
ENDMDL
MODEL 6
REMARK VINA RESULT:      -7.6      4.849      8.099
REMARK  Name = 
REMARK  6 active torsions:
REMARK  status: ('A' for Active; 'I' for Inactive)
REMARK    1  A    between atoms: C_1  and  N_2
REMARK    2  A    between atoms: N_12  and  C_13
REMARK    3  A    between atoms: C_13  and  C_14
REMARK    4  A    between atoms: C_14  and  C_15
REMARK    5  A    between atoms: C_19  and  C_20
REMARK    6  A    between atoms: N_26  and  C_27
REMARK                            x       y       z     vdW  Elec       q    Type
REMARK                         _______ _______ _______ _____ _____    ______ ____
ROOT
ATOM      1  C   UNL     1       0.598   3.965  20.074  0.00  0.00    +0.000 C 
ATOM      2  N   UNL     1       2.006   3.854  19.751  0.00  0.00    +0.000 N 
ATOM      3  C   UNL     1       2.515   4.711  18.778  0.00  0.00    +0.000 A 
ATOM      4  O   UNL     1       1.853   5.536  18.156  0.00  0.00    +0.000 OA
ATOM      5  C   UNL     1       3.906   4.531  18.566  0.00  0.00    +0.000 A 
ATOM      6  C   UNL     1       4.659   3.597  19.205  0.00  0.00    +0.000 A 
ATOM      7  N   UNL     1       5.957   3.610  18.770  0.00  0.00    +0.000 NA
ATOM      8  C   UNL     1       5.995   4.566  17.857  0.00  0.00    +0.000 A 
ATOM      9  N   UNL     1       4.767   5.179  17.743  0.00  0.00    +0.000 N 
ATOM     10  C   UNL     1       4.469   6.248  16.812  0.00  0.00    +0.000 C 
ATOM     11  C   UNL     1       5.756   6.807  16.191  0.00  0.00    +0.000 C 
ATOM     12  N   UNL     1       6.716   5.755  15.786  0.00  0.00    +0.000 NA
ATOM     13  C   UNL     1       7.148   5.017  17.007  0.00  0.00    +0.000 C 
ATOM     14  N   UNL     1       4.106   2.764  20.148  0.00  0.00    +0.000 N 
ATOM     15  C   UNL     1       4.891   1.775  20.859  0.00  0.00    +0.000 C 
ATOM     16  C   UNL     1       2.747   2.885  20.455  0.00  0.00    +0.000 A 
ATOM     17  O   UNL     1       2.212   2.170  21.309  0.00  0.00    +0.000 OA
ENDROOT
BRANCH  12  18
ATOM     18  C   UNL     1       6.158   4.820  14.781  0.00  0.00    +0.000 C 
BRANCH  18  19
ATOM     19  C   UNL     1       7.052   4.644  13.542  0.00  0.00    +0.000 C 
BRANCH  19  20
ATOM     20  C   UNL     1       6.446   3.665  12.568  0.00  0.00    +0.000 A 
ATOM     21  C   UNL     1       7.179   2.553  12.132  0.00  0.00    +0.000 A 
ATOM     22  C   UNL     1       6.631   1.662  11.211  0.00  0.00    +0.000 A 
ATOM     23  C   UNL     1       5.346   1.874  10.718  0.00  0.00    +0.000 A 
ATOM     24  C   UNL     1       4.594   2.982  11.138  0.00  0.00    +0.000 A 
ATOM     25  C   UNL     1       5.158   3.877  12.060  0.00  0.00    +0.000 A 
BRANCH  24  26
ATOM     26  C   UNL     1       3.198   3.218  10.621  0.00  0.00    +0.000 C 
ATOM     27  F   UNL     1       2.223   2.815  11.484  0.00  0.00    +0.000 F 
ATOM     28  F   UNL     1       2.951   4.533  10.369  0.00  0.00    +0.000 F 
ATOM     29  F   UNL     1       2.955   2.561   9.453  0.00  0.00    +0.000 F 
ENDBRANCH  24  26
ENDBRANCH  19  20
ENDBRANCH  18  19
ENDBRANCH  12  18
TORSDOF 4
ENDMDL
MODEL 7
REMARK VINA RESULT:      -7.5      7.445     10.061
REMARK  Name = 
REMARK  6 active torsions:
REMARK  status: ('A' for Active; 'I' for Inactive)
REMARK    1  A    between atoms: C_1  and  N_2
REMARK    2  A    between atoms: N_12  and  C_13
REMARK    3  A    between atoms: C_13  and  C_14
REMARK    4  A    between atoms: C_14  and  C_15
REMARK    5  A    between atoms: C_19  and  C_20
REMARK    6  A    between atoms: N_26  and  C_27
REMARK                            x       y       z     vdW  Elec       q    Type
REMARK                         _______ _______ _______ _____ _____    ______ ____
ROOT
ATOM      1  C   UNL     1       5.654  16.843  18.747  0.00  0.00    +0.000 C 
ATOM      2  N   UNL     1       6.573  15.969  19.448  0.00  0.00    +0.000 N 
ATOM      3  C   UNL     1       7.209  14.974  18.709  0.00  0.00    +0.000 A 
ATOM      4  O   UNL     1       7.029  14.767  17.513  0.00  0.00    +0.000 OA
ATOM      5  C   UNL     1       8.102  14.200  19.492  0.00  0.00    +0.000 A 
ATOM      6  C   UNL     1       8.291  14.374  20.827  0.00  0.00    +0.000 A 
ATOM      7  N   UNL     1       9.170  13.456  21.338  0.00  0.00    +0.000 NA
ATOM      8  C   UNL     1       9.522  12.716  20.299  0.00  0.00    +0.000 A 
ATOM      9  N   UNL     1       8.922  13.176  19.148  0.00  0.00    +0.000 N 
ATOM     10  C   UNL     1       9.082  12.568  17.843  0.00  0.00    +0.000 C 
ATOM     11  C   UNL     1      10.226  11.547  17.852  0.00  0.00    +0.000 C 
ATOM     12  N   UNL     1      10.224  10.675  19.049  0.00  0.00    +0.000 NA
ATOM     13  C   UNL     1      10.440  11.529  20.251  0.00  0.00    +0.000 C 
ATOM     14  N   UNL     1       7.628  15.361  21.515  0.00  0.00    +0.000 N 
ATOM     15  C   UNL     1       7.828  15.582  22.933  0.00  0.00    +0.000 C 
ATOM     16  C   UNL     1       6.748  16.202  20.826  0.00  0.00    +0.000 A 
ATOM     17  O   UNL     1       6.145  17.116  21.400  0.00  0.00    +0.000 OA
ENDROOT
BRANCH  12  18
ATOM     18  C   UNL     1       8.978   9.885  19.186  0.00  0.00    +0.000 C 
BRANCH  18  19
ATOM     19  C   UNL     1       8.388   9.429  17.840  0.00  0.00    +0.000 C 
BRANCH  19  20
ATOM     20  C   UNL     1       7.911   8.000  17.912  0.00  0.00    +0.000 A 
ATOM     21  C   UNL     1       8.325   7.167  18.959  0.00  0.00    +0.000 A 
ATOM     22  C   UNL     1       7.907   5.838  19.012  0.00  0.00    +0.000 A 
ATOM     23  C   UNL     1       7.072   5.331  18.020  0.00  0.00    +0.000 A 
ATOM     24  C   UNL     1       6.647   6.146  16.960  0.00  0.00    +0.000 A 
ATOM     25  C   UNL     1       7.079   7.480  16.911  0.00  0.00    +0.000 A 
BRANCH  24  26
ATOM     26  C   UNL     1       5.734   5.614  15.885  0.00  0.00    +0.000 C 
ATOM     27  F   UNL     1       4.958   6.572  15.305  0.00  0.00    +0.000 F 
ATOM     28  F   UNL     1       6.418   5.023  14.867  0.00  0.00    +0.000 F 
ATOM     29  F   UNL     1       4.870   4.669  16.352  0.00  0.00    +0.000 F 
ENDBRANCH  24  26
ENDBRANCH  19  20
ENDBRANCH  18  19
ENDBRANCH  12  18
TORSDOF 4
ENDMDL
MODEL 8
REMARK VINA RESULT:      -7.4      4.452      6.552
REMARK  Name = 
REMARK  6 active torsions:
REMARK  status: ('A' for Active; 'I' for Inactive)
REMARK    1  A    between atoms: C_1  and  N_2
REMARK    2  A    between atoms: N_12  and  C_13
REMARK    3  A    between atoms: C_13  and  C_14
REMARK    4  A    between atoms: C_14  and  C_15
REMARK    5  A    between atoms: C_19  and  C_20
REMARK    6  A    between atoms: N_26  and  C_27
REMARK                            x       y       z     vdW  Elec       q    Type
REMARK                         _______ _______ _______ _____ _____    ______ ____
ROOT
ATOM      1  C   UNL     1       3.043   3.342  20.278  0.00  0.00    +0.000 C 
ATOM      2  N   UNL     1       3.069   4.593  19.547  0.00  0.00    +0.000 N 
ATOM      3  C   UNL     1       2.295   5.642  20.034  0.00  0.00    +0.000 A 
ATOM      4  O   UNL     1       1.571   5.578  21.023  0.00  0.00    +0.000 OA
ATOM      5  C   UNL     1       2.420   6.821  19.256  0.00  0.00    +0.000 A 
ATOM      6  C   UNL     1       3.177   6.913  18.130  0.00  0.00    +0.000 A 
ATOM      7  N   UNL     1       3.074   8.149  17.551  0.00  0.00    +0.000 NA
ATOM      8  C   UNL     1       2.247   8.819  18.336  0.00  0.00    +0.000 A 
ATOM      9  N   UNL     1       1.867   8.049  19.413  0.00  0.00    +0.000 N 
ATOM     10  C   UNL     1       0.946   8.481  20.444  0.00  0.00    +0.000 C 
ATOM     11  C   UNL     1       0.687   9.990  20.348  0.00  0.00    +0.000 C 
ATOM     12  N   UNL     1       0.477  10.462  18.961  0.00  0.00    +0.000 NA
ATOM     13  C   UNL     1       1.729  10.221  18.188  0.00  0.00    +0.000 C 
ATOM     14  N   UNL     1       3.913   5.843  17.681  0.00  0.00    +0.000 N 
ATOM     15  C   UNL     1       4.744   5.921  16.497  0.00  0.00    +0.000 C 
ATOM     16  C   UNL     1       3.884   4.643  18.399  0.00  0.00    +0.000 A 
ATOM     17  O   UNL     1       4.545   3.661  18.043  0.00  0.00    +0.000 OA
ENDROOT
BRANCH  12  18
ATOM     18  C   UNL     1      -0.679   9.814  18.299  0.00  0.00    +0.000 C 
BRANCH  18  19
ATOM     19  C   UNL     1      -1.542  10.787  17.477  0.00  0.00    +0.000 C 
BRANCH  19  20
ATOM     20  C   UNL     1      -2.623  11.406  18.326  0.00  0.00    +0.000 A 
ATOM     21  C   UNL     1      -2.294  12.098  19.498  0.00  0.00    +0.000 A 
ATOM     22  C   UNL     1      -3.293  12.648  20.299  0.00  0.00    +0.000 A 
ATOM     23  C   UNL     1      -4.630  12.512  19.934  0.00  0.00    +0.000 A 
ATOM     24  C   UNL     1      -4.984  11.821  18.766  0.00  0.00    +0.000 A 
ATOM     25  C   UNL     1      -3.971  11.264  17.970  0.00  0.00    +0.000 A 
BRANCH  24  26
ATOM     26  C   UNL     1      -6.427  11.675  18.353  0.00  0.00    +0.000 C 
ATOM     27  F   UNL     1      -6.844  10.379  18.280  0.00  0.00    +0.000 F 
ATOM     28  F   UNL     1      -7.281  12.291  19.217  0.00  0.00    +0.000 F 
ATOM     29  F   UNL     1      -6.678  12.216  17.129  0.00  0.00    +0.000 F 
ENDBRANCH  24  26
ENDBRANCH  19  20
ENDBRANCH  18  19
ENDBRANCH  12  18
TORSDOF 4
ENDMDL
MODEL 9
REMARK VINA RESULT:      -7.3      6.296      8.739
REMARK  Name = 
REMARK  6 active torsions:
REMARK  status: ('A' for Active; 'I' for Inactive)
REMARK    1  A    between atoms: C_1  and  N_2
REMARK    2  A    between atoms: N_12  and  C_13
REMARK    3  A    between atoms: C_13  and  C_14
REMARK    4  A    between atoms: C_14  and  C_15
REMARK    5  A    between atoms: C_19  and  C_20
REMARK    6  A    between atoms: N_26  and  C_27
REMARK                            x       y       z     vdW  Elec       q    Type
REMARK                         _______ _______ _______ _____ _____    ______ ____
ROOT
ATOM      1  C   UNL     1       2.559  16.481  22.177  0.00  0.00    +0.000 C 
ATOM      2  N   UNL     1       2.525  15.473  21.137  0.00  0.00    +0.000 N 
ATOM      3  C   UNL     1       1.691  14.374  21.329  0.00  0.00    +0.000 A 
ATOM      4  O   UNL     1       1.003  14.184  22.327  0.00  0.00    +0.000 OA
ATOM      5  C   UNL     1       1.719  13.470  20.238  0.00  0.00    +0.000 A 
ATOM      6  C   UNL     1       2.503  13.628  19.138  0.00  0.00    +0.000 A 
ATOM      7  N   UNL     1       2.368  12.581  18.266  0.00  0.00    +0.000 NA
ATOM      8  C   UNL     1       1.489  11.778  18.841  0.00  0.00    +0.000 A 
ATOM      9  N   UNL     1       1.038  12.317  20.026  0.00  0.00    +0.000 N 
ATOM     10  C   UNL     1       0.088  11.672  20.909  0.00  0.00    +0.000 C 
ATOM     11  C   UNL     1      -0.571  10.471  20.220  0.00  0.00    +0.000 C 
ATOM     12  N   UNL     1       0.387   9.629  19.467  0.00  0.00    +0.000 NA
ATOM     13  C   UNL     1       0.970  10.450  18.368  0.00  0.00    +0.000 C 
ATOM     14  N   UNL     1       3.321  14.723  19.001  0.00  0.00    +0.000 N 
ATOM     15  C   UNL     1       4.150  14.927  17.831  0.00  0.00    +0.000 C 
ATOM     16  C   UNL     1       3.340  15.693  20.010  0.00  0.00    +0.000 A 
ATOM     17  O   UNL     1       4.046  16.704  19.920  0.00  0.00    +0.000 OA
ENDROOT
BRANCH  12  18
ATOM     18  C   UNL     1       1.457   9.065  20.322  0.00  0.00    +0.000 C 
BRANCH  18  19
ATOM     19  C   UNL     1       1.111   7.686  20.911  0.00  0.00    +0.000 C 
BRANCH  19  20
ATOM     20  C   UNL     1       1.867   6.588  20.205  0.00  0.00    +0.000 A 
ATOM     21  C   UNL     1       2.581   6.862  19.031  0.00  0.00    +0.000 A 
ATOM     22  C   UNL     1       3.258   5.843  18.362  0.00  0.00    +0.000 A 
ATOM     23  C   UNL     1       3.228   4.543  18.862  0.00  0.00    +0.000 A 
ATOM     24  C   UNL     1       2.518   4.246  20.034  0.00  0.00    +0.000 A 
ATOM     25  C   UNL     1       1.833   5.277  20.696  0.00  0.00    +0.000 A 
BRANCH  24  26
ATOM     26  C   UNL     1       2.485   2.845  20.592  0.00  0.00    +0.000 C 
ATOM     27  F   UNL     1       1.469   2.085  20.096  0.00  0.00    +0.000 F 
ATOM     28  F   UNL     1       3.629   2.154  20.329  0.00  0.00    +0.000 F 
ATOM     29  F   UNL     1       2.339   2.825  21.946  0.00  0.00    +0.000 F 
ENDBRANCH  24  26
ENDBRANCH  19  20
ENDBRANCH  18  19
ENDBRANCH  12  18
TORSDOF 4
ENDMDL
