MODEL 1
REMARK VINA RESULT:      -8.9      0.000      0.000
REMARK  Name = 
REMARK  4 active torsions:
REMARK  status: ('A' for Active; 'I' for Inactive)
REMARK    1  A    between atoms: C_1  and  N_2
REMARK    2  A    between atoms: C_6  and  C_7
REMARK    3  A    between atoms: C_13  and  C_14
REMARK    4  A    between atoms: C_14  and  C_16
REMARK                            x       y       z     vdW  Elec       q    Type
REMARK                         _______ _______ _______ _____ _____    ______ ____
ROOT
ATOM      1  C   UNL     1       5.984   4.930  17.282  0.00  0.00    +0.000 C 
ATOM      2  O   UNL     1       6.341   4.171  16.381  0.00  0.00    +0.000 OA
ATOM      3  N   UNL     1       4.816   4.677  18.010  0.00  0.00    +0.000 N 
ATOM      4  C   UNL     1       4.163   3.373  17.905  0.00  0.00    +0.000 C 
ATOM      5  C   UNL     1       2.697   3.530  17.504  0.00  0.00    +0.000 C 
ATOM      6  C   UNL     1       1.950   4.468  18.457  0.00  0.00    +0.000 C 
ATOM      7  C   UNL     1       2.679   5.807  18.588  0.00  0.00    +0.000 C 
ATOM      8  C   UNL     1       4.160   5.608  18.925  0.00  0.00    +0.000 C 
ENDROOT
BRANCH   1  14
ATOM      9  C   UNL     1       7.951   5.255  19.649  0.00  0.00    +0.000 C 
ATOM     10  N   UNL     1       7.649   6.233  18.629  0.00  0.00    +0.000 N 
ATOM     11  N   UNL     1       8.324   7.403  18.635  0.00  0.00    +0.000 NA
ATOM     12  C   UNL     1       7.750   8.107  17.662  0.00  0.00    +0.000 A 
ATOM     13  C   UNL     1       6.727   7.389  17.028  0.00  0.00    +0.000 A 
ATOM     14  C   UNL     1       6.749   6.122  17.592  0.00  0.00    +0.000 A 
ENDBRANCH   1  14
BRANCH   7  15
ATOM     15  C   UNL     1       2.077   6.679  19.687  0.00  0.00    +0.000 C 
ATOM     16  O   UNL     1       1.901   6.234  20.822  0.00  0.00    +0.000 OA
BRANCH  15  17
ATOM     17  C   UNL     1       1.722   8.100  19.396  0.00  0.00    +0.000 A 
ATOM     18  C   UNL     1       2.130   8.648  18.168  0.00  0.00    +0.000 A 
ATOM     19  C   UNL     1       1.862   9.978  17.866  0.00  0.00    +0.000 A 
ATOM     20  C   UNL     1       1.197  10.776  18.789  0.00  0.00    +0.000 A 
ATOM     21  C   UNL     1       0.787  10.263  20.028  0.00  0.00    +0.000 A 
ATOM     22  C   UNL     1       0.120  11.102  20.937  0.00  0.00    +0.000 A 
ATOM     23  C   UNL     1      -0.300  10.632  22.178  0.00  0.00    +0.000 A 
ATOM     24  C   UNL     1      -0.052   9.314  22.531  0.00  0.00    +0.000 A 
ATOM     25  C   UNL     1       0.607   8.467  21.637  0.00  0.00    +0.000 A 
ATOM     26  C   UNL     1       1.048   8.909  20.361  0.00  0.00    +0.000 A 
ENDBRANCH  15  17
ENDBRANCH   7  15
TORSDOF 3
ENDMDL
MODEL 2
REMARK VINA RESULT:      -8.8      0.977      1.402
REMARK  Name = 
REMARK  4 active torsions:
REMARK  status: ('A' for Active; 'I' for Inactive)
REMARK    1  A    between atoms: C_1  and  N_2
REMARK    2  A    between atoms: C_6  and  C_7
REMARK    3  A    between atoms: C_13  and  C_14
REMARK    4  A    between atoms: C_14  and  C_16
REMARK                            x       y       z     vdW  Elec       q    Type
REMARK                         _______ _______ _______ _____ _____    ______ ____
ROOT
ATOM      1  C   UNL     1       5.395   4.177  17.253  0.00  0.00    +0.000 C 
ATOM      2  O   UNL     1       5.587   3.317  16.393  0.00  0.00    +0.000 OA
ATOM      3  N   UNL     1       4.309   4.081  18.130  0.00  0.00    +0.000 N 
ATOM      4  C   UNL     1       3.560   2.830  18.224  0.00  0.00    +0.000 C 
ATOM      5  C   UNL     1       2.071   3.068  17.981  0.00  0.00    +0.000 C 
ATOM      6  C   UNL     1       1.512   4.141  18.920  0.00  0.00    +0.000 C 
ATOM      7  C   UNL     1       2.341   5.423  18.839  0.00  0.00    +0.000 C 
ATOM      8  C   UNL     1       3.835   5.137  19.022  0.00  0.00    +0.000 C 
ENDROOT
BRANCH   1  14
ATOM      9  C   UNL     1       5.131   6.810  15.648  0.00  0.00    +0.000 C 
ATOM     10  N   UNL     1       6.116   6.504  16.661  0.00  0.00    +0.000 N 
ATOM     11  N   UNL     1       6.991   7.467  17.024  0.00  0.00    +0.000 NA
ATOM     12  C   UNL     1       7.809   6.850  17.873  0.00  0.00    +0.000 A 
ATOM     13  C   UNL     1       7.452   5.508  18.066  0.00  0.00    +0.000 A 
ATOM     14  C   UNL     1       6.273   5.326  17.358  0.00  0.00    +0.000 A 
ENDBRANCH   1  14
BRANCH   7  15
ATOM     15  C   UNL     1       1.938   6.432  19.913  0.00  0.00    +0.000 C 
ATOM     16  O   UNL     1       1.856   6.097  21.095  0.00  0.00    +0.000 OA
BRANCH  15  17
ATOM     17  C   UNL     1       1.669   7.851  19.534  0.00  0.00    +0.000 A 
ATOM     18  C   UNL     1       2.132   8.305  18.287  0.00  0.00    +0.000 A 
ATOM     19  C   UNL     1       1.945   9.628  17.904  0.00  0.00    +0.000 A 
ATOM     20  C   UNL     1       1.306  10.513  18.765  0.00  0.00    +0.000 A 
ATOM     21  C   UNL     1       0.843  10.095  20.021  0.00  0.00    +0.000 A 
ATOM     22  C   UNL     1       0.205  11.020  20.865  0.00  0.00    +0.000 A 
ATOM     23  C   UNL     1      -0.266  10.645  22.120  0.00  0.00    +0.000 A 
ATOM     24  C   UNL     1      -0.098   9.338  22.553  0.00  0.00    +0.000 A 
ATOM     25  C   UNL     1       0.530   8.406  21.724  0.00  0.00    +0.000 A 
ATOM     26  C   UNL     1       1.021   8.749  20.436  0.00  0.00    +0.000 A 
ENDBRANCH  15  17
ENDBRANCH   7  15
TORSDOF 3
ENDMDL
MODEL 3
REMARK VINA RESULT:      -8.2      6.143      9.876
REMARK  Name = 
REMARK  4 active torsions:
REMARK  status: ('A' for Active; 'I' for Inactive)
REMARK    1  A    between atoms: C_1  and  N_2
REMARK    2  A    between atoms: C_6  and  C_7
REMARK    3  A    between atoms: C_13  and  C_14
REMARK    4  A    between atoms: C_14  and  C_16
REMARK                            x       y       z     vdW  Elec       q    Type
REMARK                         _______ _______ _______ _____ _____    ______ ____
ROOT
ATOM      1  C   UNL     1      -5.617  11.712  18.368  0.00  0.00    +0.000 C 
ATOM      2  O   UNL     1      -6.606  11.352  17.730  0.00  0.00    +0.000 OA
ATOM      3  N   UNL     1      -4.335  11.617  17.814  0.00  0.00    +0.000 N 
ATOM      4  C   UNL     1      -4.180  11.359  16.384  0.00  0.00    +0.000 C 
ATOM      5  C   UNL     1      -3.297  10.136  16.144  0.00  0.00    +0.000 C 
ATOM      6  C   UNL     1      -1.944  10.271  16.851  0.00  0.00    +0.000 C 
ATOM      7  C   UNL     1      -2.133  10.588  18.335  0.00  0.00    +0.000 C 
ATOM      8  C   UNL     1      -3.076  11.778  18.539  0.00  0.00    +0.000 C 
ENDROOT
BRANCH   1  14
ATOM      9  C   UNL     1      -7.360  10.463  20.599  0.00  0.00    +0.000 C 
ATOM     10  N   UNL     1      -6.504  11.622  20.711  0.00  0.00    +0.000 N 
ATOM     11  N   UNL     1      -6.371  12.214  21.918  0.00  0.00    +0.000 NA
ATOM     12  C   UNL     1      -5.624  13.286  21.666  0.00  0.00    +0.000 A 
ATOM     13  C   UNL     1      -5.268  13.373  20.313  0.00  0.00    +0.000 A 
ATOM     14  C   UNL     1      -5.751  12.215  19.721  0.00  0.00    +0.000 A 
ENDBRANCH   1  14
BRANCH   7  15
ATOM     15  C   UNL     1      -0.812  10.935  19.017  0.00  0.00    +0.000 C 
ATOM     16  O   UNL     1      -0.313  12.054  18.896  0.00  0.00    +0.000 OA
BRANCH  15  17
ATOM     17  C   UNL     1      -0.125   9.916  19.867  0.00  0.00    +0.000 A 
ATOM     18  C   UNL     1      -0.462   9.854  21.230  0.00  0.00    +0.000 A 
ATOM     19  C   UNL     1       0.177   8.952  22.073  0.00  0.00    +0.000 A 
ATOM     20  C   UNL     1       1.167   8.116  21.568  0.00  0.00    +0.000 A 
ATOM     21  C   UNL     1       1.535   8.163  20.216  0.00  0.00    +0.000 A 
ATOM     22  C   UNL     1       2.541   7.303  19.744  0.00  0.00    +0.000 A 
ATOM     23  C   UNL     1       2.937   7.322  18.409  0.00  0.00    +0.000 A 
ATOM     24  C   UNL     1       2.335   8.206  17.528  0.00  0.00    +0.000 A 
ATOM     25  C   UNL     1       1.330   9.063  17.981  0.00  0.00    +0.000 A 
ATOM     26  C   UNL     1       0.897   9.073  19.334  0.00  0.00    +0.000 A 
ENDBRANCH  15  17
ENDBRANCH   7  15
TORSDOF 3
ENDMDL
MODEL 4
REMARK VINA RESULT:      -8.1      1.930      2.307
REMARK  Name = 
REMARK  4 active torsions:
REMARK  status: ('A' for Active; 'I' for Inactive)
REMARK    1  A    between atoms: C_1  and  N_2
REMARK    2  A    between atoms: C_6  and  C_7
REMARK    3  A    between atoms: C_13  and  C_14
REMARK    4  A    between atoms: C_14  and  C_16
REMARK                            x       y       z     vdW  Elec       q    Type
REMARK                         _______ _______ _______ _____ _____    ______ ____
ROOT
ATOM      1  C   UNL     1       4.592   3.592  17.402  0.00  0.00    +0.000 C 
ATOM      2  O   UNL     1       4.409   2.376  17.444  0.00  0.00    +0.000 OA
ATOM      3  N   UNL     1       3.934   4.445  18.296  0.00  0.00    +0.000 N 
ATOM      4  C   UNL     1       3.251   3.888  19.462  0.00  0.00    +0.000 C 
ATOM      5  C   UNL     1       1.792   4.339  19.503  0.00  0.00    +0.000 C 
ATOM      6  C   UNL     1       1.673   5.865  19.446  0.00  0.00    +0.000 C 
ATOM      7  C   UNL     1       2.437   6.428  18.247  0.00  0.00    +0.000 C 
ATOM      8  C   UNL     1       3.875   5.902  18.201  0.00  0.00    +0.000 C 
ENDROOT
BRANCH   1  14
ATOM      9  C   UNL     1       7.463   4.632  17.904  0.00  0.00    +0.000 C 
ATOM     10  N   UNL     1       6.759   4.598  16.643  0.00  0.00    +0.000 N 
ATOM     11  N   UNL     1       7.412   4.991  15.528  0.00  0.00    +0.000 NA
ATOM     12  C   UNL     1       6.479   4.945  14.579  0.00  0.00    +0.000 A 
ATOM     13  C   UNL     1       5.243   4.512  15.080  0.00  0.00    +0.000 A 
ATOM     14  C   UNL     1       5.469   4.175  16.406  0.00  0.00    +0.000 A 
ENDBRANCH   1  14
BRANCH   7  15
ATOM     15  C   UNL     1       2.513   7.953  18.283  0.00  0.00    +0.000 C 
ATOM     16  O   UNL     1       3.562   8.540  18.020  0.00  0.00    +0.000 OA
BRANCH  15  17
ATOM     17  C   UNL     1       1.292   8.748  18.613  0.00  0.00    +0.000 A 
ATOM     18  C   UNL     1       0.502   9.222  17.551  0.00  0.00    +0.000 A 
ATOM     19  C   UNL     1      -0.620  10.003  17.802  0.00  0.00    +0.000 A 
ATOM     20  C   UNL     1      -0.957  10.329  19.111  0.00  0.00    +0.000 A 
ATOM     21  C   UNL     1      -0.182   9.883  20.191  0.00  0.00    +0.000 A 
ATOM     22  C   UNL     1      -0.553  10.236  21.500  0.00  0.00    +0.000 A 
ATOM     23  C   UNL     1       0.192   9.816  22.598  0.00  0.00    +0.000 A 
ATOM     24  C   UNL     1       1.325   9.040  22.402  0.00  0.00    +0.000 A 
ATOM     25  C   UNL     1       1.703   8.677  21.108  0.00  0.00    +0.000 A 
ATOM     26  C   UNL     1       0.969   9.084  19.962  0.00  0.00    +0.000 A 
ENDBRANCH  15  17
ENDBRANCH   7  15
TORSDOF 3
ENDMDL
MODEL 5
REMARK VINA RESULT:      -7.9      3.635      7.424
REMARK  Name = 
REMARK  4 active torsions:
REMARK  status: ('A' for Active; 'I' for Inactive)
REMARK    1  A    between atoms: C_1  and  N_2
REMARK    2  A    between atoms: C_6  and  C_7
REMARK    3  A    between atoms: C_13  and  C_14
REMARK    4  A    between atoms: C_14  and  C_16
REMARK                            x       y       z     vdW  Elec       q    Type
REMARK                         _______ _______ _______ _____ _____    ______ ____
ROOT
ATOM      1  C   UNL     1       0.441  11.188  20.911  0.00  0.00    +0.000 C 
ATOM      2  O   UNL     1       0.171  11.453  22.083  0.00  0.00    +0.000 OA
ATOM      3  N   UNL     1       0.563   9.859  20.489  0.00  0.00    +0.000 N 
ATOM      4  C   UNL     1       0.098   8.777  21.353  0.00  0.00    +0.000 C 
ATOM      5  C   UNL     1       1.212   7.761  21.601  0.00  0.00    +0.000 C 
ATOM      6  C   UNL     1       1.794   7.233  20.285  0.00  0.00    +0.000 C 
ATOM      7  C   UNL     1       2.228   8.385  19.378  0.00  0.00    +0.000 C 
ATOM      8  C   UNL     1       1.108   9.416  19.207  0.00  0.00    +0.000 C 
ENDROOT
BRANCH   1  14
ATOM      9  C   UNL     1      -1.616  12.230  18.847  0.00  0.00    +0.000 C 
ATOM     10  N   UNL     1      -0.274  12.721  19.061  0.00  0.00    +0.000 N 
ATOM     11  N   UNL     1       0.144  13.791  18.350  0.00  0.00    +0.000 NA
ATOM     12  C   UNL     1       1.424  13.920  18.692  0.00  0.00    +0.000 A 
ATOM     13  C   UNL     1       1.819  12.951  19.625  0.00  0.00    +0.000 A 
ATOM     14  C   UNL     1       0.669  12.246  19.947  0.00  0.00    +0.000 A 
ENDBRANCH   1  14
BRANCH   7  15
ATOM     15  C   UNL     1       2.613   7.899  17.983  0.00  0.00    +0.000 C 
ATOM     16  O   UNL     1       2.157   8.441  16.976  0.00  0.00    +0.000 OA
BRANCH  15  17
ATOM     17  C   UNL     1       3.580   6.770  17.832  0.00  0.00    +0.000 A 
ATOM     18  C   UNL     1       4.939   7.079  17.654  0.00  0.00    +0.000 A 
ATOM     19  C   UNL     1       5.873   6.067  17.467  0.00  0.00    +0.000 A 
ATOM     20  C   UNL     1       5.459   4.740  17.441  0.00  0.00    +0.000 A 
ATOM     21  C   UNL     1       4.109   4.399  17.602  0.00  0.00    +0.000 A 
ATOM     22  C   UNL     1       3.729   3.047  17.567  0.00  0.00    +0.000 A 
ATOM     23  C   UNL     1       2.398   2.667  17.720  0.00  0.00    +0.000 A 
ATOM     24  C   UNL     1       1.426   3.639  17.904  0.00  0.00    +0.000 A 
ATOM     25  C   UNL     1       1.788   4.987  17.945  0.00  0.00    +0.000 A 
ATOM     26  C   UNL     1       3.135   5.413  17.796  0.00  0.00    +0.000 A 
ENDBRANCH  15  17
ENDBRANCH   7  15
TORSDOF 3
ENDMDL
MODEL 6
REMARK VINA RESULT:      -7.9      1.891      2.875
REMARK  Name = 
REMARK  4 active torsions:
REMARK  status: ('A' for Active; 'I' for Inactive)
REMARK    1  A    between atoms: C_1  and  N_2
REMARK    2  A    between atoms: C_6  and  C_7
REMARK    3  A    between atoms: C_13  and  C_14
REMARK    4  A    between atoms: C_14  and  C_16
REMARK                            x       y       z     vdW  Elec       q    Type
REMARK                         _______ _______ _______ _____ _____    ______ ____
ROOT
ATOM      1  C   UNL     1       4.429   3.643  17.937  0.00  0.00    +0.000 C 
ATOM      2  O   UNL     1       4.291   2.422  18.005  0.00  0.00    +0.000 OA
ATOM      3  N   UNL     1       3.787   4.488  18.850  0.00  0.00    +0.000 N 
ATOM      4  C   UNL     1       3.180   3.927  20.055  0.00  0.00    +0.000 C 
ATOM      5  C   UNL     1       1.711   4.329  20.161  0.00  0.00    +0.000 C 
ATOM      6  C   UNL     1       1.537   5.850  20.088  0.00  0.00    +0.000 C 
ATOM      7  C   UNL     1       2.222   6.418  18.845  0.00  0.00    +0.000 C 
ATOM      8  C   UNL     1       3.673   5.941  18.736  0.00  0.00    +0.000 C 
ENDROOT
BRANCH   1  14
ATOM      9  C   UNL     1       7.303   4.743  18.273  0.00  0.00    +0.000 C 
ATOM     10  N   UNL     1       6.530   4.689  17.053  0.00  0.00    +0.000 N 
ATOM     11  N   UNL     1       7.110   5.090  15.902  0.00  0.00    +0.000 NA
ATOM     12  C   UNL     1       6.126   5.021  15.008  0.00  0.00    +0.000 A 
ATOM     13  C   UNL     1       4.930   4.565  15.579  0.00  0.00    +0.000 A 
ATOM     14  C   UNL     1       5.238   4.239  16.891  0.00  0.00    +0.000 A 
ENDBRANCH   1  14
BRANCH   7  15
ATOM     15  C   UNL     1       2.247   7.945  18.856  0.00  0.00    +0.000 C 
ATOM     16  O   UNL     1       2.879   8.573  18.005  0.00  0.00    +0.000 OA
BRANCH  15  17
ATOM     17  C   UNL     1       1.472   8.693  19.891  0.00  0.00    +0.000 A 
ATOM     18  C   UNL     1       1.762   8.446  21.244  0.00  0.00    +0.000 A 
ATOM     19  C   UNL     1       1.041   9.084  22.246  0.00  0.00    +0.000 A 
ATOM     20  C   UNL     1       0.018   9.963  21.910  0.00  0.00    +0.000 A 
ATOM     21  C   UNL     1      -0.304  10.221  20.570  0.00  0.00    +0.000 A 
ATOM     22  C   UNL     1      -1.347  11.114  20.270  0.00  0.00    +0.000 A 
ATOM     23  C   UNL     1      -1.700  11.394  18.953  0.00  0.00    +0.000 A 
ATOM     24  C   UNL     1      -1.016  10.779  17.915  0.00  0.00    +0.000 A 
ATOM     25  C   UNL     1       0.026   9.893  18.197  0.00  0.00    +0.000 A 
ATOM     26  C   UNL     1       0.417   9.583  19.527  0.00  0.00    +0.000 A 
ENDBRANCH  15  17
ENDBRANCH   7  15
TORSDOF 3
ENDMDL
MODEL 7
REMARK VINA RESULT:      -7.8      3.635      7.626
REMARK  Name = 
REMARK  4 active torsions:
REMARK  status: ('A' for Active; 'I' for Inactive)
REMARK    1  A    between atoms: C_1  and  N_2
REMARK    2  A    between atoms: C_6  and  C_7
REMARK    3  A    between atoms: C_13  and  C_14
REMARK    4  A    between atoms: C_14  and  C_16
REMARK                            x       y       z     vdW  Elec       q    Type
REMARK                         _______ _______ _______ _____ _____    ______ ____
ROOT
ATOM      1  C   UNL     1       0.368  11.152  20.961  0.00  0.00    +0.000 C 
ATOM      2  O   UNL     1       0.129  11.427  22.137  0.00  0.00    +0.000 OA
ATOM      3  N   UNL     1       0.481   9.820  20.547  0.00  0.00    +0.000 N 
ATOM      4  C   UNL     1       0.041   8.745  21.432  0.00  0.00    +0.000 C 
ATOM      5  C   UNL     1       1.163   7.733  21.658  0.00  0.00    +0.000 C 
ATOM      6  C   UNL     1       1.710   7.194  20.332  0.00  0.00    +0.000 C 
ATOM      7  C   UNL     1       2.118   8.340  19.404  0.00  0.00    +0.000 C 
ATOM      8  C   UNL     1       0.993   9.368  19.255  0.00  0.00    +0.000 C 
ENDROOT
BRANCH   1  14
ATOM      9  C   UNL     1      -1.757  12.203  18.972  0.00  0.00    +0.000 C 
ATOM     10  N   UNL     1      -0.403  12.682  19.131  0.00  0.00    +0.000 N 
ATOM     11  N   UNL     1      -0.003  13.744  18.398  0.00  0.00    +0.000 NA
ATOM     12  C   UNL     1       1.290  13.862  18.689  0.00  0.00    +0.000 A 
ATOM     13  C   UNL     1       1.712  12.895  19.612  0.00  0.00    +0.000 A 
ATOM     14  C   UNL     1       0.568  12.203  19.982  0.00  0.00    +0.000 A 
ENDBRANCH   1  14
BRANCH   7  15
ATOM     15  C   UNL     1       2.467   7.842  18.003  0.00  0.00    +0.000 C 
ATOM     16  O   UNL     1       2.409   8.597  17.032  0.00  0.00    +0.000 OA
BRANCH  15  17
ATOM     17  C   UNL     1       2.913   6.430  17.807  0.00  0.00    +0.000 A 
ATOM     18  C   UNL     1       1.960   5.407  17.947  0.00  0.00    +0.000 A 
ATOM     19  C   UNL     1       2.333   4.075  17.816  0.00  0.00    +0.000 A 
ATOM     20  C   UNL     1       3.660   3.750  17.559  0.00  0.00    +0.000 A 
ATOM     21  C   UNL     1       4.637   4.746  17.426  0.00  0.00    +0.000 A 
ATOM     22  C   UNL     1       5.969   4.378  17.169  0.00  0.00    +0.000 A 
ATOM     23  C   UNL     1       6.969   5.337  17.034  0.00  0.00    +0.000 A 
ATOM     24  C   UNL     1       6.651   6.681  17.162  0.00  0.00    +0.000 A 
ATOM     25  C   UNL     1       5.331   7.063  17.413  0.00  0.00    +0.000 A 
ATOM     26  C   UNL     1       4.283   6.115  17.555  0.00  0.00    +0.000 A 
ENDBRANCH  15  17
ENDBRANCH   7  15
TORSDOF 3
ENDMDL
MODEL 8
REMARK VINA RESULT:      -7.8      0.967      1.029
REMARK  Name = 
REMARK  4 active torsions:
REMARK  status: ('A' for Active; 'I' for Inactive)
REMARK    1  A    between atoms: C_1  and  N_2
REMARK    2  A    between atoms: C_6  and  C_7
REMARK    3  A    between atoms: C_13  and  C_14
REMARK    4  A    between atoms: C_14  and  C_16
REMARK                            x       y       z     vdW  Elec       q    Type
REMARK                         _______ _______ _______ _____ _____    ______ ____
ROOT
ATOM      1  C   UNL     1       4.974   4.220  17.100  0.00  0.00    +0.000 C 
ATOM      2  O   UNL     1       5.082   3.309  16.279  0.00  0.00    +0.000 OA
ATOM      3  N   UNL     1       4.036   4.141  18.136  0.00  0.00    +0.000 N 
ATOM      4  C   UNL     1       3.378   2.869  18.423  0.00  0.00    +0.000 C 
ATOM      5  C   UNL     1       1.858   3.024  18.393  0.00  0.00    +0.000 C 
ATOM      6  C   UNL     1       1.387   4.138  19.334  0.00  0.00    +0.000 C 
ATOM      7  C   UNL     1       2.126   5.445  19.045  0.00  0.00    +0.000 C 
ATOM      8  C   UNL     1       3.643   5.238  19.018  0.00  0.00    +0.000 C 
ENDROOT
BRANCH   1  14
ATOM      9  C   UNL     1       7.948   4.447  17.925  0.00  0.00    +0.000 C 
ATOM     10  N   UNL     1       7.129   5.480  17.335  0.00  0.00    +0.000 N 
ATOM     11  N   UNL     1       7.701   6.666  17.034  0.00  0.00    +0.000 NA
ATOM     12  C   UNL     1       6.682   7.415  16.618  0.00  0.00    +0.000 A 
ATOM     13  C   UNL     1       5.470   6.711  16.638  0.00  0.00    +0.000 A 
ATOM     14  C   UNL     1       5.795   5.411  16.996  0.00  0.00    +0.000 A 
ENDBRANCH   1  14
BRANCH   7  15
ATOM     15  C   UNL     1       1.833   6.511  20.099  0.00  0.00    +0.000 C 
ATOM     16  O   UNL     1       1.829   6.229  21.298  0.00  0.00    +0.000 OA
BRANCH  15  17
ATOM     17  C   UNL     1       1.575   7.920  19.678  0.00  0.00    +0.000 A 
ATOM     18  C   UNL     1       2.080   8.345  18.437  0.00  0.00    +0.000 A 
ATOM     19  C   UNL     1       1.904   9.658  18.017  0.00  0.00    +0.000 A 
ATOM     20  C   UNL     1       1.237  10.563  18.835  0.00  0.00    +0.000 A 
ATOM     21  C   UNL     1       0.732  10.173  20.084  0.00  0.00    +0.000 A 
ATOM     22  C   UNL     1       0.065  11.117  20.884  0.00  0.00    +0.000 A 
ATOM     23  C   UNL     1      -0.447  10.772  22.131  0.00  0.00    +0.000 A 
ATOM     24  C   UNL     1      -0.293   9.475  22.600  0.00  0.00    +0.000 A 
ATOM     25  C   UNL     1       0.363   8.525  21.815  0.00  0.00    +0.000 A 
ATOM     26  C   UNL     1       0.897   8.839  20.536  0.00  0.00    +0.000 A 
ENDBRANCH  15  17
ENDBRANCH   7  15
TORSDOF 3
ENDMDL
MODEL 9
REMARK VINA RESULT:      -7.7      2.136      4.064
REMARK  Name = 
REMARK  4 active torsions:
REMARK  status: ('A' for Active; 'I' for Inactive)
REMARK    1  A    between atoms: C_1  and  N_2
REMARK    2  A    between atoms: C_6  and  C_7
REMARK    3  A    between atoms: C_13  and  C_14
REMARK    4  A    between atoms: C_14  and  C_16
REMARK                            x       y       z     vdW  Elec       q    Type
REMARK                         _______ _______ _______ _____ _____    ______ ____
ROOT
ATOM      1  C   UNL     1       4.099   4.119  19.203  0.00  0.00    +0.000 C 
ATOM      2  O   UNL     1       5.215   3.614  19.319  0.00  0.00    +0.000 OA
ATOM      3  N   UNL     1       3.872   5.153  18.288  0.00  0.00    +0.000 N 
ATOM      4  C   UNL     1       4.875   5.452  17.268  0.00  0.00    +0.000 C 
ATOM      5  C   UNL     1       5.283   6.923  17.322  0.00  0.00    +0.000 C 
ATOM      6  C   UNL     1       4.067   7.849  17.217  0.00  0.00    +0.000 C 
ATOM      7  C   UNL     1       3.012   7.484  18.262  0.00  0.00    +0.000 C 
ATOM      8  C   UNL     1       2.676   5.991  18.224  0.00  0.00    +0.000 C 
ENDROOT
BRANCH   1  14
ATOM      9  C   UNL     1       1.872   2.144  18.354  0.00  0.00    +0.000 C 
ATOM     10  N   UNL     1       2.036   2.765  19.649  0.00  0.00    +0.000 N 
ATOM     11  N   UNL     1       1.187   2.423  20.642  0.00  0.00    +0.000 NA
ATOM     12  C   UNL     1       1.528   3.229  21.645  0.00  0.00    +0.000 A 
ATOM     13  C   UNL     1       2.597   4.069  21.302  0.00  0.00    +0.000 A 
ATOM     14  C   UNL     1       2.997   3.674  20.034  0.00  0.00    +0.000 A 
ENDBRANCH   1  14
BRANCH   7  15
ATOM     15  C   UNL     1       1.707   8.248  18.046  0.00  0.00    +0.000 C 
ATOM     16  O   UNL     1       0.809   7.778  17.346  0.00  0.00    +0.000 OA
BRANCH  15  17
ATOM     17  C   UNL     1       1.500   9.568  18.713  0.00  0.00    +0.000 A 
ATOM     18  C   UNL     1       1.990  10.719  18.072  0.00  0.00    +0.000 A 
ATOM     19  C   UNL     1       1.860  11.967  18.670  0.00  0.00    +0.000 A 
ATOM     20  C   UNL     1       1.255  12.077  19.917  0.00  0.00    +0.000 A 
ATOM     21  C   UNL     1       0.768  10.946  20.588  0.00  0.00    +0.000 A 
ATOM     22  C   UNL     1       0.165  11.097  21.848  0.00  0.00    +0.000 A 
ATOM     23  C   UNL     1      -0.328  10.000  22.548  0.00  0.00    +0.000 A 
ATOM     24  C   UNL     1      -0.219   8.731  21.998  0.00  0.00    +0.000 A 
ATOM     25  C   UNL     1       0.374   8.566  20.744  0.00  0.00    +0.000 A 
ATOM     26  C   UNL     1       0.887   9.661  19.999  0.00  0.00    +0.000 A 
ENDBRANCH  15  17
ENDBRANCH   7  15
TORSDOF 3
ENDMDL
