MODEL 1
REMARK VINA RESULT:      -9.2      0.000      0.000
REMARK  Name = 
REMARK  5 active torsions:
REMARK  status: ('A' for Active; 'I' for Inactive)
REMARK    1  A    between atoms: C_2  and  C_18
REMARK    2  A    between atoms: N_3  and  C_4
REMARK    3  A    between atoms: C_6  and  C_7
REMARK    4  A    between atoms: C_12  and  C_13
REMARK    5  A    between atoms: C_24  and  C_25
REMARK                            x       y       z     vdW  Elec       q    Type
REMARK                         _______ _______ _______ _____ _____    ______ ____
ROOT
ATOM      1  O   UNL     1       5.823   3.986  18.675  0.00  0.00    +0.000 OA
ATOM      2  C   UNL     1       5.325   4.682  17.801  0.00  0.00    +0.000 C 
ATOM      3  N   UNL     1       4.166   5.442  17.879  0.00  0.00    +0.000 N 
ATOM      4  H   UNL     1       3.940   6.065  17.113  0.00  0.00    +0.000 HD
ENDROOT
BRANCH   2   5
ATOM      5  C   UNL     1       6.071   4.770  16.543  0.00  0.00    +0.000 A 
ATOM      6  C   UNL     1       5.797   3.859  15.536  0.00  0.00    +0.000 A 
ATOM      7  N   UNL     1       6.369   3.886  14.320  0.00  0.00    +0.000 NA
ATOM      8  C   UNL     1       7.215   4.899  14.109  0.00  0.00    +0.000 A 
ATOM      9 CL   UNL     1       7.940   4.992  12.573  0.00  0.00    +0.000 Cl
ATOM     10  N   UNL     1       7.552   5.845  14.995  0.00  0.00    +0.000 NA
ATOM     11  C   UNL     1       6.972   5.783  16.235  0.00  0.00    +0.000 A 
BRANCH  11  12
ATOM     12  C   UNL     1       7.407   6.854  17.222  0.00  0.00    +0.000 C 
ATOM     13  F   UNL     1       8.017   6.417  18.356  0.00  0.00    +0.000 F 
ATOM     14  F   UNL     1       8.325   7.699  16.657  0.00  0.00    +0.000 F 
ATOM     15  F   UNL     1       6.378   7.654  17.620  0.00  0.00    +0.000 F 
ENDBRANCH  11  12
ENDBRANCH   2   5
BRANCH   3  16
ATOM     16  C   UNL     1       3.221   5.416  18.933  0.00  0.00    +0.000 A 
ATOM     17  C   UNL     1       2.599   6.568  19.416  0.00  0.00    +0.000 A 
ATOM     18  C   UNL     1       1.712   6.517  20.501  0.00  0.00    +0.000 A 
ATOM     19  C   UNL     1       1.435   5.279  21.101  0.00  0.00    +0.000 A 
ATOM     20  C   UNL     1       2.044   4.104  20.636  0.00  0.00    +0.000 A 
ATOM     21  C   UNL     1       2.937   4.187  19.547  0.00  0.00    +0.000 A 
BRANCH  18  22
ATOM     22  C   UNL     1       1.083   7.779  21.030  0.00  0.00    +0.000 C 
ATOM     23  F   UNL     1       1.715   8.296  22.123  0.00  0.00    +0.000 F 
ATOM     24  F   UNL     1       1.063   8.780  20.106  0.00  0.00    +0.000 F 
ATOM     25  F   UNL     1      -0.212   7.594  21.408  0.00  0.00    +0.000 F 
ENDBRANCH  18  22
BRANCH  20  26
ATOM     26  C   UNL     1       1.766   2.773  21.297  0.00  0.00    +0.000 C 
ATOM     27  F   UNL     1       1.416   1.790  20.424  0.00  0.00    +0.000 F 
ATOM     28  F   UNL     1       2.843   2.300  21.982  0.00  0.00    +0.000 F 
ATOM     29  F   UNL     1       0.752   2.849  22.202  0.00  0.00    +0.000 F 
ENDBRANCH  20  26
ENDBRANCH   3  16
TORSDOF 5
ENDMDL
MODEL 2
REMARK VINA RESULT:      -9.1      0.042      1.006
REMARK  Name = 
REMARK  5 active torsions:
REMARK  status: ('A' for Active; 'I' for Inactive)
REMARK    1  A    between atoms: C_2  and  C_18
REMARK    2  A    between atoms: N_3  and  C_4
REMARK    3  A    between atoms: C_6  and  C_7
REMARK    4  A    between atoms: C_12  and  C_13
REMARK    5  A    between atoms: C_24  and  C_25
REMARK                            x       y       z     vdW  Elec       q    Type
REMARK                         _______ _______ _______ _____ _____    ______ ____
ROOT
ATOM      1  O   UNL     1       5.853   4.059  18.707  0.00  0.00    +0.000 OA
ATOM      2  C   UNL     1       5.339   4.726  17.819  0.00  0.00    +0.000 C 
ATOM      3  N   UNL     1       4.163   5.462  17.882  0.00  0.00    +0.000 N 
ATOM      4  H   UNL     1       3.923   6.063  17.103  0.00  0.00    +0.000 HD
ENDROOT
BRANCH   2   5
ATOM      5  C   UNL     1       6.082   4.803  16.559  0.00  0.00    +0.000 A 
ATOM      6  C   UNL     1       5.815   3.875  15.565  0.00  0.00    +0.000 A 
ATOM      7  N   UNL     1       6.384   3.891  14.347  0.00  0.00    +0.000 NA
ATOM      8  C   UNL     1       7.221   4.908  14.121  0.00  0.00    +0.000 A 
ATOM      9 CL   UNL     1       7.943   4.987  12.582  0.00  0.00    +0.000 Cl
ATOM     10  N   UNL     1       7.551   5.869  14.993  0.00  0.00    +0.000 NA
ATOM     11  C   UNL     1       6.973   5.820  16.235  0.00  0.00    +0.000 A 
BRANCH  11  12
ATOM     12  C   UNL     1       7.401   6.908  17.206  0.00  0.00    +0.000 C 
ATOM     13  F   UNL     1       6.412   7.702  17.696  0.00  0.00    +0.000 F 
ATOM     14  F   UNL     1       7.977   6.368  18.325  0.00  0.00    +0.000 F 
ATOM     15  F   UNL     1       8.342   7.742  16.682  0.00  0.00    +0.000 F 
ENDBRANCH  11  12
ENDBRANCH   2   5
BRANCH   3  16
ATOM     16  C   UNL     1       3.220   5.437  18.937  0.00  0.00    +0.000 A 
ATOM     17  C   UNL     1       2.596   6.590  19.417  0.00  0.00    +0.000 A 
ATOM     18  C   UNL     1       1.711   6.541  20.503  0.00  0.00    +0.000 A 
ATOM     19  C   UNL     1       1.437   5.305  21.108  0.00  0.00    +0.000 A 
ATOM     20  C   UNL     1       2.048   4.130  20.646  0.00  0.00    +0.000 A 
ATOM     21  C   UNL     1       2.940   4.210  19.556  0.00  0.00    +0.000 A 
BRANCH  18  22
ATOM     22  C   UNL     1       1.080   7.804  21.028  0.00  0.00    +0.000 C 
ATOM     23  F   UNL     1       1.727   8.340  22.102  0.00  0.00    +0.000 F 
ATOM     24  F   UNL     1       1.033   8.792  20.092  0.00  0.00    +0.000 F 
ATOM     25  F   UNL     1      -0.206   7.611  21.433  0.00  0.00    +0.000 F 
ENDBRANCH  18  22
BRANCH  20  26
ATOM     26  C   UNL     1       1.774   2.800  21.313  0.00  0.00    +0.000 C 
ATOM     27  F   UNL     1       0.769   2.843  22.228  0.00  0.00    +0.000 F 
ATOM     28  F   UNL     1       1.427   1.834  20.419  0.00  0.00    +0.000 F 
ATOM     29  F   UNL     1       2.863   2.321  21.975  0.00  0.00    +0.000 F 
ENDBRANCH  20  26
ENDBRANCH   3  16
TORSDOF 5
ENDMDL
MODEL 3
REMARK VINA RESULT:      -9.0      0.131      3.396
REMARK  Name = 
REMARK  5 active torsions:
REMARK  status: ('A' for Active; 'I' for Inactive)
REMARK    1  A    between atoms: C_2  and  C_18
REMARK    2  A    between atoms: N_3  and  C_4
REMARK    3  A    between atoms: C_6  and  C_7
REMARK    4  A    between atoms: C_12  and  C_13
REMARK    5  A    between atoms: C_24  and  C_25
REMARK                            x       y       z     vdW  Elec       q    Type
REMARK                         _______ _______ _______ _____ _____    ______ ____
ROOT
ATOM      1  O   UNL     1       5.973   3.883  18.691  0.00  0.00    +0.000 OA
ATOM      2  C   UNL     1       5.450   4.610  17.857  0.00  0.00    +0.000 C 
ATOM      3  N   UNL     1       4.294   5.367  17.997  0.00  0.00    +0.000 N 
ATOM      4  H   UNL     1       4.046   6.017  17.260  0.00  0.00    +0.000 HD
ENDROOT
BRANCH   2   5
ATOM      5  C   UNL     1       6.157   4.741  16.581  0.00  0.00    +0.000 A 
ATOM      6  C   UNL     1       5.896   3.828  15.572  0.00  0.00    +0.000 A 
ATOM      7  N   UNL     1       6.432   3.891  14.341  0.00  0.00    +0.000 NA
ATOM      8  C   UNL     1       7.229   4.940  14.119  0.00  0.00    +0.000 A 
ATOM      9 CL   UNL     1       7.907   5.078  12.564  0.00  0.00    +0.000 Cl
ATOM     10  N   UNL     1       7.549   5.892  15.004  0.00  0.00    +0.000 NA
ATOM     11  C   UNL     1       7.005   5.795  16.259  0.00  0.00    +0.000 A 
BRANCH  11  12
ATOM     12  C   UNL     1       7.421   6.874  17.245  0.00  0.00    +0.000 C 
ATOM     13  F   UNL     1       6.419   7.623  17.778  0.00  0.00    +0.000 F 
ATOM     14  F   UNL     1       8.043   6.328  18.336  0.00  0.00    +0.000 F 
ATOM     15  F   UNL     1       8.321   7.752  16.718  0.00  0.00    +0.000 F 
ENDBRANCH  11  12
ENDBRANCH   2   5
BRANCH   3  16
ATOM     16  C   UNL     1       3.382   5.305  19.077  0.00  0.00    +0.000 A 
ATOM     17  C   UNL     1       3.043   4.108  19.709  0.00  0.00    +0.000 A 
ATOM     18  C   UNL     1       2.090   4.071  20.738  0.00  0.00    +0.000 A 
ATOM     19  C   UNL     1       1.478   5.265  21.147  0.00  0.00    +0.000 A 
ATOM     20  C   UNL     1       1.800   6.484  20.531  0.00  0.00    +0.000 A 
ATOM     21  C   UNL     1       2.757   6.490  19.494  0.00  0.00    +0.000 A 
BRANCH  18  22
ATOM     22  C   UNL     1       1.713   2.761  21.378  0.00  0.00    +0.000 C 
ATOM     23  F   UNL     1       0.741   2.869  22.329  0.00  0.00    +0.000 F 
ATOM     24  F   UNL     1       1.249   1.852  20.475  0.00  0.00    +0.000 F 
ATOM     25  F   UNL     1       2.769   2.165  21.999  0.00  0.00    +0.000 F 
ENDBRANCH  18  22
BRANCH  20  26
ATOM     26  C   UNL     1       1.123   7.769  20.953  0.00  0.00    +0.000 C 
ATOM     27  F   UNL     1       1.138   8.736  19.997  0.00  0.00    +0.000 F 
ATOM     28  F   UNL     1      -0.186   7.582  21.278  0.00  0.00    +0.000 F 
ATOM     29  F   UNL     1       1.705   8.320  22.053  0.00  0.00    +0.000 F 
ENDBRANCH  20  26
ENDBRANCH   3  16
TORSDOF 5
ENDMDL
MODEL 4
REMARK VINA RESULT:      -8.9      0.185      3.373
REMARK  Name = 
REMARK  5 active torsions:
REMARK  status: ('A' for Active; 'I' for Inactive)
REMARK    1  A    between atoms: C_2  and  C_18
REMARK    2  A    between atoms: N_3  and  C_4
REMARK    3  A    between atoms: C_6  and  C_7
REMARK    4  A    between atoms: C_12  and  C_13
REMARK    5  A    between atoms: C_24  and  C_25
REMARK                            x       y       z     vdW  Elec       q    Type
REMARK                         _______ _______ _______ _____ _____    ______ ____
ROOT
ATOM      1  O   UNL     1       6.002   4.034  18.788  0.00  0.00    +0.000 OA
ATOM      2  C   UNL     1       5.457   4.697  17.916  0.00  0.00    +0.000 C 
ATOM      3  N   UNL     1       4.267   5.408  18.008  0.00  0.00    +0.000 N 
ATOM      4  H   UNL     1       4.000   6.011  17.240  0.00  0.00    +0.000 HD
ENDROOT
BRANCH   2   5
ATOM      5  C   UNL     1       6.174   4.802  16.642  0.00  0.00    +0.000 A 
ATOM      6  C   UNL     1       5.920   3.868  15.651  0.00  0.00    +0.000 A 
ATOM      7  N   UNL     1       6.465   3.905  14.423  0.00  0.00    +0.000 NA
ATOM      8  C   UNL     1       7.263   4.950  14.184  0.00  0.00    +0.000 A 
ATOM      9 CL   UNL     1       7.953   5.056  12.632  0.00  0.00    +0.000 Cl
ATOM     10  N   UNL     1       7.576   5.920  15.052  0.00  0.00    +0.000 NA
ATOM     11  C   UNL     1       7.024   5.850  16.304  0.00  0.00    +0.000 A 
BRANCH  11  12
ATOM     12  C   UNL     1       7.432   6.949  17.270  0.00  0.00    +0.000 C 
ATOM     13  F   UNL     1       8.287   7.890  16.788  0.00  0.00    +0.000 F 
ATOM     14  F   UNL     1       6.342   7.672  17.681  0.00  0.00    +0.000 F 
ATOM     15  F   UNL     1       7.995   6.465  18.414  0.00  0.00    +0.000 F 
ENDBRANCH  11  12
ENDBRANCH   2   5
BRANCH   3  16
ATOM     16  C   UNL     1       3.345   5.354  19.081  0.00  0.00    +0.000 A 
ATOM     17  C   UNL     1       2.983   4.158  19.704  0.00  0.00    +0.000 A 
ATOM     18  C   UNL     1       2.021   4.131  20.724  0.00  0.00    +0.000 A 
ATOM     19  C   UNL     1       1.425   5.332  21.135  0.00  0.00    +0.000 A 
ATOM     20  C   UNL     1       1.770   6.549  20.528  0.00  0.00    +0.000 A 
ATOM     21  C   UNL     1       2.736   6.545  19.500  0.00  0.00    +0.000 A 
BRANCH  18  22
ATOM     22  C   UNL     1       1.618   2.823  21.353  0.00  0.00    +0.000 C 
ATOM     23  F   UNL     1       2.668   2.085  21.816  0.00  0.00    +0.000 F 
ATOM     24  F   UNL     1       0.784   2.989  22.417  0.00  0.00    +0.000 F 
ATOM     25  F   UNL     1       0.955   2.012  20.482  0.00  0.00    +0.000 F 
ENDBRANCH  18  22
BRANCH  20  26
ATOM     26  C   UNL     1       1.109   7.841  20.953  0.00  0.00    +0.000 C 
ATOM     27  F   UNL     1      -0.186   7.693  21.342  0.00  0.00    +0.000 F 
ATOM     28  F   UNL     1       1.751   8.431  21.999  0.00  0.00    +0.000 F 
ATOM     29  F   UNL     1       1.097   8.766  19.954  0.00  0.00    +0.000 F 
ENDBRANCH  20  26
ENDBRANCH   3  16
TORSDOF 5
ENDMDL
MODEL 5
REMARK VINA RESULT:      -8.9      0.415      1.144
REMARK  Name = 
REMARK  5 active torsions:
REMARK  status: ('A' for Active; 'I' for Inactive)
REMARK    1  A    between atoms: C_2  and  C_18
REMARK    2  A    between atoms: N_3  and  C_4
REMARK    3  A    between atoms: C_6  and  C_7
REMARK    4  A    between atoms: C_12  and  C_13
REMARK    5  A    between atoms: C_24  and  C_25
REMARK                            x       y       z     vdW  Elec       q    Type
REMARK                         _______ _______ _______ _____ _____    ______ ____
ROOT
ATOM      1  O   UNL     1       5.651   4.063  18.646  0.00  0.00    +0.000 OA
ATOM      2  C   UNL     1       5.213   4.779  17.756  0.00  0.00    +0.000 C 
ATOM      3  N   UNL     1       4.078   5.580  17.792  0.00  0.00    +0.000 N 
ATOM      4  H   UNL     1       3.905   6.212  17.020  0.00  0.00    +0.000 HD
ENDROOT
BRANCH   2   5
ATOM      5  C   UNL     1       6.010   4.844  16.528  0.00  0.00    +0.000 A 
ATOM      6  C   UNL     1       5.743   3.947  15.507  0.00  0.00    +0.000 A 
ATOM      7  N   UNL     1       6.361   3.958  14.314  0.00  0.00    +0.000 NA
ATOM      8  C   UNL     1       7.252   4.939  14.141  0.00  0.00    +0.000 A 
ATOM      9 CL   UNL     1       8.039   5.011  12.634  0.00  0.00    +0.000 Cl
ATOM     10  N   UNL     1       7.588   5.869  15.043  0.00  0.00    +0.000 NA
ATOM     11  C   UNL     1       6.958   5.825  16.260  0.00  0.00    +0.000 A 
BRANCH  11  12
ATOM     12  C   UNL     1       7.393   6.876  17.268  0.00  0.00    +0.000 C 
ATOM     13  F   UNL     1       7.976   6.415  18.407  0.00  0.00    +0.000 F 
ATOM     14  F   UNL     1       8.333   7.714  16.730  0.00  0.00    +0.000 F 
ATOM     15  F   UNL     1       6.369   7.687  17.660  0.00  0.00    +0.000 F 
ENDBRANCH  11  12
ENDBRANCH   2   5
BRANCH   3  16
ATOM     16  C   UNL     1       3.093   5.584  18.808  0.00  0.00    +0.000 A 
ATOM     17  C   UNL     1       2.596   6.760  19.371  0.00  0.00    +0.000 A 
ATOM     18  C   UNL     1       1.664   6.730  20.418  0.00  0.00    +0.000 A 
ATOM     19  C   UNL     1       1.212   5.491  20.896  0.00  0.00    +0.000 A 
ATOM     20  C   UNL     1       1.692   4.292  20.349  0.00  0.00    +0.000 A 
ATOM     21  C   UNL     1       2.635   4.353  19.301  0.00  0.00    +0.000 A 
BRANCH  18  22
ATOM     22  C   UNL     1       1.172   8.013  21.036  0.00  0.00    +0.000 C 
ATOM     23  F   UNL     1      -0.128   7.967  21.446  0.00  0.00    +0.000 F 
ATOM     24  F   UNL     1       1.895   8.376  22.132  0.00  0.00    +0.000 F 
ATOM     25  F   UNL     1       1.248   9.065  20.173  0.00  0.00    +0.000 F 
ENDBRANCH  18  22
BRANCH  20  26
ATOM     26  C   UNL     1       1.225   2.955  20.880  0.00  0.00    +0.000 C 
ATOM     27  F   UNL     1       1.005   2.945  22.222  0.00  0.00    +0.000 F 
ATOM     28  F   UNL     1       0.059   2.549  20.305  0.00  0.00    +0.000 F 
ATOM     29  F   UNL     1       2.125   1.963  20.640  0.00  0.00    +0.000 F 
ENDBRANCH  20  26
ENDBRANCH   3  16
TORSDOF 5
ENDMDL
MODEL 6
REMARK VINA RESULT:      -8.8      0.431      1.176
REMARK  Name = 
REMARK  5 active torsions:
REMARK  status: ('A' for Active; 'I' for Inactive)
REMARK    1  A    between atoms: C_2  and  C_18
REMARK    2  A    between atoms: N_3  and  C_4
REMARK    3  A    between atoms: C_6  and  C_7
REMARK    4  A    between atoms: C_12  and  C_13
REMARK    5  A    between atoms: C_24  and  C_25
REMARK                            x       y       z     vdW  Elec       q    Type
REMARK                         _______ _______ _______ _____ _____    ______ ____
ROOT
ATOM      1  O   UNL     1       5.645   4.057  18.624  0.00  0.00    +0.000 OA
ATOM      2  C   UNL     1       5.204   4.770  17.733  0.00  0.00    +0.000 C 
ATOM      3  N   UNL     1       4.066   5.566  17.767  0.00  0.00    +0.000 N 
ATOM      4  H   UNL     1       3.891   6.197  16.995  0.00  0.00    +0.000 HD
ENDROOT
BRANCH   2   5
ATOM      5  C   UNL     1       6.002   4.838  16.506  0.00  0.00    +0.000 A 
ATOM      6  C   UNL     1       5.731   3.947  15.480  0.00  0.00    +0.000 A 
ATOM      7  N   UNL     1       6.350   3.960  14.287  0.00  0.00    +0.000 NA
ATOM      8  C   UNL     1       7.246   4.938  14.120  0.00  0.00    +0.000 A 
ATOM      9 CL   UNL     1       8.034   5.014  12.614  0.00  0.00    +0.000 Cl
ATOM     10  N   UNL     1       7.586   5.862  15.027  0.00  0.00    +0.000 NA
ATOM     11  C   UNL     1       6.955   5.815  16.243  0.00  0.00    +0.000 A 
BRANCH  11  12
ATOM     12  C   UNL     1       7.395   6.858  17.257  0.00  0.00    +0.000 C 
ATOM     13  F   UNL     1       6.413   7.632  17.792  0.00  0.00    +0.000 F 
ATOM     14  F   UNL     1       7.982   6.268  18.345  0.00  0.00    +0.000 F 
ATOM     15  F   UNL     1       8.333   7.714  16.761  0.00  0.00    +0.000 F 
ENDBRANCH  11  12
ENDBRANCH   2   5
BRANCH   3  16
ATOM     16  C   UNL     1       3.080   5.567  18.782  0.00  0.00    +0.000 A 
ATOM     17  C   UNL     1       2.590   6.741  19.356  0.00  0.00    +0.000 A 
ATOM     18  C   UNL     1       1.656   6.706  20.402  0.00  0.00    +0.000 A 
ATOM     19  C   UNL     1       1.196   5.466  20.868  0.00  0.00    +0.000 A 
ATOM     20  C   UNL     1       1.669   4.269  20.309  0.00  0.00    +0.000 A 
ATOM     21  C   UNL     1       2.613   4.334  19.263  0.00  0.00    +0.000 A 
BRANCH  18  22
ATOM     22  C   UNL     1       1.172   7.986  21.031  0.00  0.00    +0.000 C 
ATOM     23  F   UNL     1      -0.127   7.943  21.445  0.00  0.00    +0.000 F 
ATOM     24  F   UNL     1       1.899   8.338  22.128  0.00  0.00    +0.000 F 
ATOM     25  F   UNL     1       1.250   9.045  20.176  0.00  0.00    +0.000 F 
ENDBRANCH  18  22
BRANCH  20  26
ATOM     26  C   UNL     1       1.193   2.930  20.828  0.00  0.00    +0.000 C 
ATOM     27  F   UNL     1       2.049   1.906  20.566  0.00  0.00    +0.000 F 
ATOM     28  F   UNL     1       1.011   2.932  22.177  0.00  0.00    +0.000 F 
ATOM     29  F   UNL     1      -0.003   2.566  20.291  0.00  0.00    +0.000 F 
ENDBRANCH  20  26
ENDBRANCH   3  16
TORSDOF 5
ENDMDL
MODEL 7
REMARK VINA RESULT:      -8.5      3.176      5.689
REMARK  Name = 
REMARK  5 active torsions:
REMARK  status: ('A' for Active; 'I' for Inactive)
REMARK    1  A    between atoms: C_2  and  C_18
REMARK    2  A    between atoms: N_3  and  C_4
REMARK    3  A    between atoms: C_6  and  C_7
REMARK    4  A    between atoms: C_12  and  C_13
REMARK    5  A    between atoms: C_24  and  C_25
REMARK                            x       y       z     vdW  Elec       q    Type
REMARK                         _______ _______ _______ _____ _____    ______ ____
ROOT
ATOM      1  O   UNL     1       2.835   6.506  19.697  0.00  0.00    +0.000 OA
ATOM      2  C   UNL     1       2.938   7.016  18.590  0.00  0.00    +0.000 C 
ATOM      3  N   UNL     1       2.347   8.188  18.136  0.00  0.00    +0.000 N 
ATOM      4  H   UNL     1       2.620   8.552  17.231  0.00  0.00    +0.000 HD
ENDROOT
BRANCH   2   5
ATOM      5  C   UNL     1       3.837   6.341  17.649  0.00  0.00    +0.000 A 
ATOM      6  C   UNL     1       4.962   7.013  17.198  0.00  0.00    +0.000 A 
ATOM      7  N   UNL     1       5.890   6.470  16.391  0.00  0.00    +0.000 NA
ATOM      8  C   UNL     1       5.685   5.190  16.066  0.00  0.00    +0.000 A 
ATOM      9 CL   UNL     1       6.850   4.451  15.069  0.00  0.00    +0.000 Cl
ATOM     10  N   UNL     1       4.647   4.434  16.445  0.00  0.00    +0.000 NA
ATOM     11  C   UNL     1       3.704   5.016  17.251  0.00  0.00    +0.000 A 
BRANCH  11  12
ATOM     12  C   UNL     1       2.525   4.136  17.630  0.00  0.00    +0.000 C 
ATOM     13  F   UNL     1       1.289   4.682  17.475  0.00  0.00    +0.000 F 
ATOM     14  F   UNL     1       2.487   3.006  16.857  0.00  0.00    +0.000 F 
ATOM     15  F   UNL     1       2.591   3.691  18.917  0.00  0.00    +0.000 F 
ENDBRANCH  11  12
ENDBRANCH   2   5
BRANCH   3  16
ATOM     16  C   UNL     1       1.351   8.934  18.810  0.00  0.00    +0.000 A 
ATOM     17  C   UNL     1       1.241   8.961  20.201  0.00  0.00    +0.000 A 
ATOM     18  C   UNL     1       0.207   9.662  20.838  0.00  0.00    +0.000 A 
ATOM     19  C   UNL     1      -0.726  10.361  20.058  0.00  0.00    +0.000 A 
ATOM     20  C   UNL     1      -0.641  10.354  18.658  0.00  0.00    +0.000 A 
ATOM     21  C   UNL     1       0.407   9.635  18.045  0.00  0.00    +0.000 A 
BRANCH  18  22
ATOM     22  C   UNL     1       0.087   9.643  22.339  0.00  0.00    +0.000 C 
ATOM     23  F   UNL     1      -0.244  10.849  22.883  0.00  0.00    +0.000 F 
ATOM     24  F   UNL     1      -0.859   8.766  22.777  0.00  0.00    +0.000 F 
ATOM     25  F   UNL     1       1.249   9.272  22.946  0.00  0.00    +0.000 F 
ENDBRANCH  18  22
BRANCH  20  26
ATOM     26  C   UNL     1      -1.661  11.087  17.815  0.00  0.00    +0.000 C 
ATOM     27  F   UNL     1      -1.313  12.369  17.527  0.00  0.00    +0.000 F 
ATOM     28  F   UNL     1      -1.876  10.477  16.617  0.00  0.00    +0.000 F 
ATOM     29  F   UNL     1      -2.877  11.156  18.423  0.00  0.00    +0.000 F 
ENDBRANCH  20  26
ENDBRANCH   3  16
TORSDOF 5
ENDMDL
MODEL 8
REMARK VINA RESULT:      -8.5      3.175      5.648
REMARK  Name = 
REMARK  5 active torsions:
REMARK  status: ('A' for Active; 'I' for Inactive)
REMARK    1  A    between atoms: C_2  and  C_18
REMARK    2  A    between atoms: N_3  and  C_4
REMARK    3  A    between atoms: C_6  and  C_7
REMARK    4  A    between atoms: C_12  and  C_13
REMARK    5  A    between atoms: C_24  and  C_25
REMARK                            x       y       z     vdW  Elec       q    Type
REMARK                         _______ _______ _______ _____ _____    ______ ____
ROOT
ATOM      1  O   UNL     1       2.825   6.490  19.688  0.00  0.00    +0.000 OA
ATOM      2  C   UNL     1       2.938   7.008  18.586  0.00  0.00    +0.000 C 
ATOM      3  N   UNL     1       2.352   8.184  18.137  0.00  0.00    +0.000 N 
ATOM      4  H   UNL     1       2.633   8.555  17.237  0.00  0.00    +0.000 HD
ENDROOT
BRANCH   2   5
ATOM      5  C   UNL     1       3.843   6.339  17.648  0.00  0.00    +0.000 A 
ATOM      6  C   UNL     1       4.966   7.017  17.201  0.00  0.00    +0.000 A 
ATOM      7  N   UNL     1       5.899   6.480  16.396  0.00  0.00    +0.000 NA
ATOM      8  C   UNL     1       5.703   5.199  16.069  0.00  0.00    +0.000 A 
ATOM      9 CL   UNL     1       6.874   4.467  15.076  0.00  0.00    +0.000 Cl
ATOM     10  N   UNL     1       4.668   4.437  16.445  0.00  0.00    +0.000 NA
ATOM     11  C   UNL     1       3.719   5.013  17.249  0.00  0.00    +0.000 A 
BRANCH  11  12
ATOM     12  C   UNL     1       2.543   4.126  17.624  0.00  0.00    +0.000 C 
ATOM     13  F   UNL     1       1.305   4.668  17.469  0.00  0.00    +0.000 F 
ATOM     14  F   UNL     1       2.511   2.999  16.846  0.00  0.00    +0.000 F 
ATOM     15  F   UNL     1       2.610   3.676  18.909  0.00  0.00    +0.000 F 
ENDBRANCH  11  12
ENDBRANCH   2   5
BRANCH   3  16
ATOM     16  C   UNL     1       1.352   8.927  18.808  0.00  0.00    +0.000 A 
ATOM     17  C   UNL     1       1.242   8.958  20.199  0.00  0.00    +0.000 A 
ATOM     18  C   UNL     1       0.204   9.656  20.833  0.00  0.00    +0.000 A 
ATOM     19  C   UNL     1      -0.733  10.347  20.052  0.00  0.00    +0.000 A 
ATOM     20  C   UNL     1      -0.648  10.334  18.651  0.00  0.00    +0.000 A 
ATOM     21  C   UNL     1       0.404   9.619  18.041  0.00  0.00    +0.000 A 
BRANCH  18  22
ATOM     22  C   UNL     1       0.085   9.642  22.335  0.00  0.00    +0.000 C 
ATOM     23  F   UNL     1       1.232   9.283  22.978  0.00  0.00    +0.000 F 
ATOM     24  F   UNL     1      -0.261  10.857  22.843  0.00  0.00    +0.000 F 
ATOM     25  F   UNL     1      -0.868   8.770  22.770  0.00  0.00    +0.000 F 
ENDBRANCH  18  22
BRANCH  20  26
ATOM     26  C   UNL     1      -1.672  11.058  17.806  0.00  0.00    +0.000 C 
ATOM     27  F   UNL     1      -1.892  10.478  16.595  0.00  0.00    +0.000 F 
ATOM     28  F   UNL     1      -2.888  11.130  18.414  0.00  0.00    +0.000 F 
ATOM     29  F   UNL     1      -1.309  12.344  17.545  0.00  0.00    +0.000 F 
ENDBRANCH  20  26
ENDBRANCH   3  16
TORSDOF 5
ENDMDL
MODEL 9
REMARK VINA RESULT:      -8.5      3.169      5.665
REMARK  Name = 
REMARK  5 active torsions:
REMARK  status: ('A' for Active; 'I' for Inactive)
REMARK    1  A    between atoms: C_2  and  C_18
REMARK    2  A    between atoms: N_3  and  C_4
REMARK    3  A    between atoms: C_6  and  C_7
REMARK    4  A    between atoms: C_12  and  C_13
REMARK    5  A    between atoms: C_24  and  C_25
REMARK                            x       y       z     vdW  Elec       q    Type
REMARK                         _______ _______ _______ _____ _____    ______ ____
ROOT
ATOM      1  O   UNL     1       2.906   6.525  19.690  0.00  0.00    +0.000 OA
ATOM      2  C   UNL     1       2.979   7.009  18.569  0.00  0.00    +0.000 C 
ATOM      3  N   UNL     1       2.355   8.157  18.098  0.00  0.00    +0.000 N 
ATOM      4  H   UNL     1       2.603   8.504  17.180  0.00  0.00    +0.000 HD
ENDROOT
BRANCH   2   5
ATOM      5  C   UNL     1       3.875   6.331  17.630  0.00  0.00    +0.000 A 
ATOM      6  C   UNL     1       5.003   6.997  17.179  0.00  0.00    +0.000 A 
ATOM      7  N   UNL     1       5.929   6.450  16.372  0.00  0.00    +0.000 NA
ATOM      8  C   UNL     1       5.719   5.171  16.047  0.00  0.00    +0.000 A 
ATOM      9 CL   UNL     1       6.881   4.427  15.051  0.00  0.00    +0.000 Cl
ATOM     10  N   UNL     1       4.678   4.420  16.426  0.00  0.00    +0.000 NA
ATOM     11  C   UNL     1       3.737   5.006  17.232  0.00  0.00    +0.000 A 
BRANCH  11  12
ATOM     12  C   UNL     1       2.553   4.131  17.611  0.00  0.00    +0.000 C 
ATOM     13  F   UNL     1       1.322   4.692  17.481  0.00  0.00    +0.000 F 
ATOM     14  F   UNL     1       2.494   3.015  16.818  0.00  0.00    +0.000 F 
ATOM     15  F   UNL     1       2.631   3.662  18.888  0.00  0.00    +0.000 F 
ENDBRANCH  11  12
ENDBRANCH   2   5
BRANCH   3  16
ATOM     16  C   UNL     1       1.355   8.899  18.772  0.00  0.00    +0.000 A 
ATOM     17  C   UNL     1       1.256   8.940  20.164  0.00  0.00    +0.000 A 
ATOM     18  C   UNL     1       0.218   9.635  20.800  0.00  0.00    +0.000 A 
ATOM     19  C   UNL     1      -0.730  10.314  20.021  0.00  0.00    +0.000 A 
ATOM     20  C   UNL     1      -0.656  10.291  18.620  0.00  0.00    +0.000 A 
ATOM     21  C   UNL     1       0.396   9.578  18.007  0.00  0.00    +0.000 A 
BRANCH  18  22
ATOM     22  C   UNL     1       0.111   9.633  22.303  0.00  0.00    +0.000 C 
ATOM     23  F   UNL     1      -0.840   8.784  22.788  0.00  0.00    +0.000 F 
ATOM     24  F   UNL     1       1.275   9.272  22.910  0.00  0.00    +0.000 F 
ATOM     25  F   UNL     1      -0.205  10.861  22.801  0.00  0.00    +0.000 F 
ENDBRANCH  18  22
BRANCH  20  26
ATOM     26  C   UNL     1      -1.692  11.002  17.777  0.00  0.00    +0.000 C 
ATOM     27  F   UNL     1      -2.932  11.020  18.334  0.00  0.00    +0.000 F 
ATOM     28  F   UNL     1      -1.365  12.302  17.543  0.00  0.00    +0.000 F 
ATOM     29  F   UNL     1      -1.840  10.428  16.552  0.00  0.00    +0.000 F 
ENDBRANCH  20  26
ENDBRANCH   3  16
TORSDOF 5
ENDMDL
