MODEL 1
REMARK VINA RESULT:      -7.6      0.000      0.000
REMARK  Name = 
REMARK  4 active torsions:
REMARK  status: ('A' for Active; 'I' for Inactive)
REMARK    1  A    between atoms: C_1  and  C_2
REMARK    2  A    between atoms: C_4  and  C_5
REMARK    3  A    between atoms: C_6  and  C_7
REMARK    4  A    between atoms: C_7  and  N_8
REMARK                            x       y       z     vdW  Elec       q    Type
REMARK                         _______ _______ _______ _____ _____    ______ ____
ROOT
ATOM      1  N   UNL     1       4.097   3.569  17.626  0.00  0.00    +0.000 N 
ATOM      2  C   UNL     1       4.993   3.177  18.591  0.00  0.00    +0.000 A 
ATOM      3  N   UNL     1       4.686   2.808  19.790  0.00  0.00    +0.000 NA
ATOM      4  C   UNL     1       3.332   2.832  20.146  0.00  0.00    +0.000 A 
ATOM      5  C   UNL     1       2.974   2.476  21.447  0.00  0.00    +0.000 A 
ATOM      6  C   UNL     1       1.640   2.536  21.861  0.00  0.00    +0.000 A 
ATOM      7  C   UNL     1       0.650   2.950  20.970  0.00  0.00    +0.000 A 
ATOM      8  C   UNL     1       0.991   3.293  19.662  0.00  0.00    +0.000 A 
ATOM      9  C   UNL     1       2.330   3.231  19.258  0.00  0.00    +0.000 A 
ATOM     10  C   UNL     1       2.736   3.620  17.891  0.00  0.00    +0.000 A 
ATOM     11  O   UNL     1       1.893   3.994  17.081  0.00  0.00    +0.000 OA
ENDROOT
BRANCH   1  12
ATOM     12  C   UNL     1       4.585   4.039  16.341  0.00  0.00    +0.000 C 
BRANCH  12  18
ATOM     13  C   UNL     1       7.850   8.005  17.731  0.00  0.00    +0.000 C 
ATOM     14  C   UNL     1       7.212   6.822  17.093  0.00  0.00    +0.000 A 
ATOM     15  N   UNL     1       7.628   6.265  15.977  0.00  0.00    +0.000 NA
ATOM     16  C   UNL     1       6.794   5.217  15.622  0.00  0.00    +0.000 A 
ATOM     17  C   UNL     1       7.083   4.485  14.360  0.00  0.00    +0.000 C 
ATOM     18  C   UNL     1       5.730   4.996  16.485  0.00  0.00    +0.000 A 
ATOM     19  S   UNL     1       5.815   6.113  17.789  0.00  0.00    +0.000 S 
ENDBRANCH  12  18
ENDBRANCH   1  12
TORSDOF 2
ENDMDL
MODEL 2
REMARK VINA RESULT:      -7.5      1.629      2.172
REMARK  Name = 
REMARK  4 active torsions:
REMARK  status: ('A' for Active; 'I' for Inactive)
REMARK    1  A    between atoms: C_1  and  C_2
REMARK    2  A    between atoms: C_4  and  C_5
REMARK    3  A    between atoms: C_6  and  C_7
REMARK    4  A    between atoms: C_7  and  N_8
REMARK                            x       y       z     vdW  Elec       q    Type
REMARK                         _______ _______ _______ _____ _____    ______ ____
ROOT
ATOM      1  N   UNL     1       4.500   3.745  17.740  0.00  0.00    +0.000 N 
ATOM      2  C   UNL     1       3.334   3.922  17.035  0.00  0.00    +0.000 A 
ATOM      3  N   UNL     1       2.143   3.818  17.524  0.00  0.00    +0.000 NA
ATOM      4  C   UNL     1       2.027   3.475  18.876  0.00  0.00    +0.000 A 
ATOM      5  C   UNL     1       0.752   3.318  19.423  0.00  0.00    +0.000 A 
ATOM      6  C   UNL     1       0.591   2.925  20.754  0.00  0.00    +0.000 A 
ATOM      7  C   UNL     1       1.709   2.689  21.553  0.00  0.00    +0.000 A 
ATOM      8  C   UNL     1       2.990   2.858  21.025  0.00  0.00    +0.000 A 
ATOM      9  C   UNL     1       3.140   3.251  19.690  0.00  0.00    +0.000 A 
ATOM     10  C   UNL     1       4.480   3.406  19.085  0.00  0.00    +0.000 A 
ATOM     11  O   UNL     1       5.487   3.202  19.756  0.00  0.00    +0.000 OA
ENDROOT
BRANCH   1  12
ATOM     12  C   UNL     1       5.774   3.810  17.046  0.00  0.00    +0.000 C 
BRANCH  12  18
ATOM     13  C   UNL     1       8.377   8.226  18.474  0.00  0.00    +0.000 C 
ATOM     14  C   UNL     1       7.551   7.204  17.776  0.00  0.00    +0.000 A 
ATOM     15  N   UNL     1       6.756   7.457  16.761  0.00  0.00    +0.000 NA
ATOM     16  C   UNL     1       6.091   6.305  16.371  0.00  0.00    +0.000 A 
ATOM     17  C   UNL     1       5.112   6.403  15.255  0.00  0.00    +0.000 C 
ATOM     18  C   UNL     1       6.391   5.175  17.117  0.00  0.00    +0.000 A 
ATOM     19  S   UNL     1       7.566   5.574  18.307  0.00  0.00    +0.000 S 
ENDBRANCH  12  18
ENDBRANCH   1  12
TORSDOF 2
ENDMDL
MODEL 3
REMARK VINA RESULT:      -7.4      1.830      2.097
REMARK  Name = 
REMARK  4 active torsions:
REMARK  status: ('A' for Active; 'I' for Inactive)
REMARK    1  A    between atoms: C_1  and  C_2
REMARK    2  A    between atoms: C_4  and  C_5
REMARK    3  A    between atoms: C_6  and  C_7
REMARK    4  A    between atoms: C_7  and  N_8
REMARK                            x       y       z     vdW  Elec       q    Type
REMARK                         _______ _______ _______ _____ _____    ______ ____
ROOT
ATOM      1  N   UNL     1       5.086   4.235  18.437  0.00  0.00    +0.000 N 
ATOM      2  C   UNL     1       4.758   5.159  19.400  0.00  0.00    +0.000 A 
ATOM      3  N   UNL     1       3.634   5.210  20.033  0.00  0.00    +0.000 NA
ATOM      4  C   UNL     1       2.658   4.264  19.696  0.00  0.00    +0.000 A 
ATOM      5  C   UNL     1       1.419   4.320  20.336  0.00  0.00    +0.000 A 
ATOM      6  C   UNL     1       0.399   3.428  19.993  0.00  0.00    +0.000 A 
ATOM      7  C   UNL     1       0.614   2.467  19.005  0.00  0.00    +0.000 A 
ATOM      8  C   UNL     1       1.853   2.389  18.369  0.00  0.00    +0.000 A 
ATOM      9  C   UNL     1       2.868   3.288  18.719  0.00  0.00    +0.000 A 
ATOM     10  C   UNL     1       4.181   3.260  18.042  0.00  0.00    +0.000 A 
ATOM     11  O   UNL     1       4.405   2.431  17.165  0.00  0.00    +0.000 OA
ENDROOT
BRANCH   1  12
ATOM     12  C   UNL     1       6.358   4.342  17.743  0.00  0.00    +0.000 C 
BRANCH  12  18
ATOM     13  C   UNL     1       8.442   9.213  18.248  0.00  0.00    +0.000 C 
ATOM     14  C   UNL     1       7.707   8.001  17.793  0.00  0.00    +0.000 A 
ATOM     15  N   UNL     1       6.797   7.996  16.845  0.00  0.00    +0.000 NA
ATOM     16  C   UNL     1       6.266   6.724  16.694  0.00  0.00    +0.000 A 
ATOM     17  C   UNL     1       5.188   6.527  15.688  0.00  0.00    +0.000 C 
ATOM     18  C   UNL     1       6.784   5.767  17.555  0.00  0.00    +0.000 A 
ATOM     19  S   UNL     1       7.993   6.486  18.544  0.00  0.00    +0.000 S 
ENDBRANCH  12  18
ENDBRANCH   1  12
TORSDOF 2
ENDMDL
MODEL 4
REMARK VINA RESULT:      -7.3      2.560      6.256
REMARK  Name = 
REMARK  4 active torsions:
REMARK  status: ('A' for Active; 'I' for Inactive)
REMARK    1  A    between atoms: C_1  and  C_2
REMARK    2  A    between atoms: C_4  and  C_5
REMARK    3  A    between atoms: C_6  and  C_7
REMARK    4  A    between atoms: C_7  and  N_8
REMARK                            x       y       z     vdW  Elec       q    Type
REMARK                         _______ _______ _______ _____ _____    ______ ____
ROOT
ATOM      1  N   UNL     1       5.821   5.012  16.921  0.00  0.00    +0.000 N 
ATOM      2  C   UNL     1       6.986   5.689  16.655  0.00  0.00    +0.000 A 
ATOM      3  N   UNL     1       7.584   5.727  15.511  0.00  0.00    +0.000 NA
ATOM      4  C   UNL     1       7.013   4.999  14.460  0.00  0.00    +0.000 A 
ATOM      5  C   UNL     1       7.658   4.990  13.222  0.00  0.00    +0.000 A 
ATOM      6  C   UNL     1       7.152   4.235  12.160  0.00  0.00    +0.000 A 
ATOM      7  C   UNL     1       5.989   3.484  12.329  0.00  0.00    +0.000 A 
ATOM      8  C   UNL     1       5.325   3.497  13.556  0.00  0.00    +0.000 A 
ATOM      9  C   UNL     1       5.841   4.255  14.613  0.00  0.00    +0.000 A 
ATOM     10  C   UNL     1       5.186   4.266  15.938  0.00  0.00    +0.000 A 
ATOM     11  O   UNL     1       4.163   3.614  16.126  0.00  0.00    +0.000 OA
ENDROOT
BRANCH   1  12
ATOM     12  C   UNL     1       5.300   4.985  18.276  0.00  0.00    +0.000 C 
BRANCH  12  18
ATOM     13  C   UNL     1       1.770   8.966  18.138  0.00  0.00    +0.000 C 
ATOM     14  C   UNL     1       2.500   7.697  18.408  0.00  0.00    +0.000 A 
ATOM     15  N   UNL     1       2.174   6.838  19.347  0.00  0.00    +0.000 NA
ATOM     16  C   UNL     1       3.078   5.787  19.373  0.00  0.00    +0.000 A 
ATOM     17  C   UNL     1       2.895   4.728  20.401  0.00  0.00    +0.000 C 
ATOM     18  C   UNL     1       4.103   5.873  18.442  0.00  0.00    +0.000 A 
ATOM     19  S   UNL     1       3.891   7.290  17.492  0.00  0.00    +0.000 S 
ENDBRANCH  12  18
ENDBRANCH   1  12
TORSDOF 2
ENDMDL
MODEL 5
REMARK VINA RESULT:      -7.3      1.409      2.277
REMARK  Name = 
REMARK  4 active torsions:
REMARK  status: ('A' for Active; 'I' for Inactive)
REMARK    1  A    between atoms: C_1  and  C_2
REMARK    2  A    between atoms: C_4  and  C_5
REMARK    3  A    between atoms: C_6  and  C_7
REMARK    4  A    between atoms: C_7  and  N_8
REMARK                            x       y       z     vdW  Elec       q    Type
REMARK                         _______ _______ _______ _____ _____    ______ ____
ROOT
ATOM      1  N   UNL     1       4.130   5.448  18.301  0.00  0.00    +0.000 N 
ATOM      2  C   UNL     1       5.083   4.635  18.865  0.00  0.00    +0.000 A 
ATOM      3  N   UNL     1       4.851   3.684  19.706  0.00  0.00    +0.000 NA
ATOM      4  C   UNL     1       3.522   3.477  20.096  0.00  0.00    +0.000 A 
ATOM      5  C   UNL     1       3.245   2.481  21.034  0.00  0.00    +0.000 A 
ATOM      6  C   UNL     1       1.940   2.275  21.491  0.00  0.00    +0.000 A 
ATOM      7  C   UNL     1       0.898   3.065  21.006  0.00  0.00    +0.000 A 
ATOM      8  C   UNL     1       1.158   4.053  20.057  0.00  0.00    +0.000 A 
ATOM      9  C   UNL     1       2.468   4.252  19.607  0.00  0.00    +0.000 A 
ATOM     10  C   UNL     1       2.788   5.313  18.628  0.00  0.00    +0.000 A 
ATOM     11  O   UNL     1       1.898   6.030  18.183  0.00  0.00    +0.000 OA
ENDROOT
BRANCH   1  12
ATOM     12  C   UNL     1       4.539   6.537  17.430  0.00  0.00    +0.000 C 
BRANCH  12  18
ATOM     13  C   UNL     1       7.151   4.160  13.450  0.00  0.00    +0.000 C 
ATOM     14  C   UNL     1       6.754   4.998  14.614  0.00  0.00    +0.000 A 
ATOM     15  N   UNL     1       7.597   5.662  15.373  0.00  0.00    +0.000 NA
ATOM     16  C   UNL     1       6.918   6.301  16.399  0.00  0.00    +0.000 A 
ATOM     17  C   UNL     1       7.712   7.077  17.390  0.00  0.00    +0.000 C 
ATOM     18  C   UNL     1       5.546   6.100  16.409  0.00  0.00    +0.000 A 
ATOM     19  S   UNL     1       5.106   5.115  15.071  0.00  0.00    +0.000 S 
ENDBRANCH  12  18
ENDBRANCH   1  12
TORSDOF 2
ENDMDL
MODEL 6
REMARK VINA RESULT:      -7.1      2.578      6.604
REMARK  Name = 
REMARK  4 active torsions:
REMARK  status: ('A' for Active; 'I' for Inactive)
REMARK    1  A    between atoms: C_1  and  C_2
REMARK    2  A    between atoms: C_4  and  C_5
REMARK    3  A    between atoms: C_6  and  C_7
REMARK    4  A    between atoms: C_7  and  N_8
REMARK                            x       y       z     vdW  Elec       q    Type
REMARK                         _______ _______ _______ _____ _____    ______ ____
ROOT
ATOM      1  N   UNL     1       5.858   4.993  16.908  0.00  0.00    +0.000 N 
ATOM      2  C   UNL     1       4.983   4.029  16.469  0.00  0.00    +0.000 A 
ATOM      3  N   UNL     1       4.972   3.513  15.286  0.00  0.00    +0.000 NA
ATOM      4  C   UNL     1       5.913   3.989  14.365  0.00  0.00    +0.000 A 
ATOM      5  C   UNL     1       5.900   3.477  13.066  0.00  0.00    +0.000 A 
ATOM      6  C   UNL     1       6.786   3.962  12.100  0.00  0.00    +0.000 A 
ATOM      7  C   UNL     1       7.699   4.963  12.430  0.00  0.00    +0.000 A 
ATOM      8  C   UNL     1       7.735   5.472  13.728  0.00  0.00    +0.000 A 
ATOM      9  C   UNL     1       6.842   4.981  14.688  0.00  0.00    +0.000 A 
ATOM     10  C   UNL     1       6.824   5.521  16.064  0.00  0.00    +0.000 A 
ATOM     11  O   UNL     1       7.610   6.406  16.389  0.00  0.00    +0.000 OA
ENDROOT
BRANCH   1  12
ATOM     12  C   UNL     1       5.705   5.547  18.242  0.00  0.00    +0.000 C 
BRANCH  12  18
ATOM     13  C   UNL     1       1.085   3.820  20.238  0.00  0.00    +0.000 C 
ATOM     14  C   UNL     1       2.182   4.626  19.637  0.00  0.00    +0.000 A 
ATOM     15  N   UNL     1       2.017   5.797  19.065  0.00  0.00    +0.000 NA
ATOM     16  C   UNL     1       3.222   6.262  18.563  0.00  0.00    +0.000 A 
ATOM     17  C   UNL     1       3.228   7.563  17.842  0.00  0.00    +0.000 C 
ATOM     18  C   UNL     1       4.303   5.414  18.755  0.00  0.00    +0.000 A 
ATOM     19  S   UNL     1       3.787   4.024  19.624  0.00  0.00    +0.000 S 
ENDBRANCH  12  18
ENDBRANCH   1  12
TORSDOF 2
ENDMDL
MODEL 7
REMARK VINA RESULT:      -7.1      1.933      2.901
REMARK  Name = 
REMARK  4 active torsions:
REMARK  status: ('A' for Active; 'I' for Inactive)
REMARK    1  A    between atoms: C_1  and  C_2
REMARK    2  A    between atoms: C_4  and  C_5
REMARK    3  A    between atoms: C_6  and  C_7
REMARK    4  A    between atoms: C_7  and  N_8
REMARK                            x       y       z     vdW  Elec       q    Type
REMARK                         _______ _______ _______ _____ _____    ______ ____
ROOT
ATOM      1  N   UNL     1       5.232   4.615  19.144  0.00  0.00    +0.000 N 
ATOM      2  C   UNL     1       4.527   5.787  19.025  0.00  0.00    +0.000 A 
ATOM      3  N   UNL     1       3.293   5.954  19.368  0.00  0.00    +0.000 NA
ATOM      4  C   UNL     1       2.609   4.846  19.882  0.00  0.00    +0.000 A 
ATOM      5  C   UNL     1       1.264   4.986  20.226  0.00  0.00    +0.000 A 
ATOM      6  C   UNL     1       0.529   3.893  20.692  0.00  0.00    +0.000 A 
ATOM      7  C   UNL     1       1.140   2.646  20.823  0.00  0.00    +0.000 A 
ATOM      8  C   UNL     1       2.488   2.494  20.499  0.00  0.00    +0.000 A 
ATOM      9  C   UNL     1       3.215   3.595  20.031  0.00  0.00    +0.000 A 
ATOM     10  C   UNL     1       4.636   3.466  19.644  0.00  0.00    +0.000 A 
ATOM     11  O   UNL     1       5.205   2.384  19.741  0.00  0.00    +0.000 OA
ENDROOT
BRANCH   1  12
ATOM     12  C   UNL     1       6.593   4.542  18.641  0.00  0.00    +0.000 C 
BRANCH  12  18
ATOM     13  C   UNL     1       6.710   4.270  13.327  0.00  0.00    +0.000 C 
ATOM     14  C   UNL     1       6.757   4.712  14.748  0.00  0.00    +0.000 A 
ATOM     15  N   UNL     1       7.221   5.873  15.150  0.00  0.00    +0.000 NA
ATOM     16  C   UNL     1       7.172   5.958  16.533  0.00  0.00    +0.000 A 
ATOM     17  C   UNL     1       7.694   7.192  17.180  0.00  0.00    +0.000 C 
ATOM     18  C   UNL     1       6.672   4.833  17.172  0.00  0.00    +0.000 A 
ATOM     19  S   UNL     1       6.219   3.665  15.994  0.00  0.00    +0.000 S 
ENDBRANCH  12  18
ENDBRANCH   1  12
TORSDOF 2
ENDMDL
MODEL 8
REMARK VINA RESULT:      -7.1      3.542      4.356
REMARK  Name = 
REMARK  4 active torsions:
REMARK  status: ('A' for Active; 'I' for Inactive)
REMARK    1  A    between atoms: C_1  and  C_2
REMARK    2  A    between atoms: C_4  and  C_5
REMARK    3  A    between atoms: C_6  and  C_7
REMARK    4  A    between atoms: C_7  and  N_8
REMARK                            x       y       z     vdW  Elec       q    Type
REMARK                         _______ _______ _______ _____ _____    ______ ____
ROOT
ATOM      1  N   UNL     1       3.782   6.023  18.397  0.00  0.00    +0.000 N 
ATOM      2  C   UNL     1       3.691   7.040  17.478  0.00  0.00    +0.000 A 
ATOM      3  N   UNL     1       2.976   8.106  17.612  0.00  0.00    +0.000 NA
ATOM      4  C   UNL     1       2.210   8.228  18.778  0.00  0.00    +0.000 A 
ATOM      5  C   UNL     1       1.397   9.352  18.933  0.00  0.00    +0.000 A 
ATOM      6  C   UNL     1       0.576   9.488  20.056  0.00  0.00    +0.000 A 
ATOM      7  C   UNL     1       0.568   8.499  21.039  0.00  0.00    +0.000 A 
ATOM      8  C   UNL     1       1.388   7.379  20.906  0.00  0.00    +0.000 A 
ATOM      9  C   UNL     1       2.205   7.251  19.776  0.00  0.00    +0.000 A 
ATOM     10  C   UNL     1       3.060   6.061  19.582  0.00  0.00    +0.000 A 
ATOM     11  O   UNL     1       3.075   5.168  20.423  0.00  0.00    +0.000 OA
ENDROOT
BRANCH   1  12
ATOM     12  C   UNL     1       4.562   4.839  18.083  0.00  0.00    +0.000 C 
BRANCH  12  18
ATOM     13  C   UNL     1       7.277   4.746  13.507  0.00  0.00    +0.000 C 
ATOM     14  C   UNL     1       6.790   5.017  14.886  0.00  0.00    +0.000 A 
ATOM     15  N   UNL     1       7.482   5.647  15.809  0.00  0.00    +0.000 NA
ATOM     16  C   UNL     1       6.770   5.693  16.997  0.00  0.00    +0.000 A 
ATOM     17  C   UNL     1       7.411   6.337  18.175  0.00  0.00    +0.000 C 
ATOM     18  C   UNL     1       5.528   5.076  16.961  0.00  0.00    +0.000 A 
ATOM     19  S   UNL     1       5.244   4.463  15.380  0.00  0.00    +0.000 S 
ENDBRANCH  12  18
ENDBRANCH   1  12
TORSDOF 2
ENDMDL
MODEL 9
REMARK VINA RESULT:      -6.9      2.115      6.308
REMARK  Name = 
REMARK  4 active torsions:
REMARK  status: ('A' for Active; 'I' for Inactive)
REMARK    1  A    between atoms: C_1  and  C_2
REMARK    2  A    between atoms: C_4  and  C_5
REMARK    3  A    between atoms: C_6  and  C_7
REMARK    4  A    between atoms: C_7  and  N_8
REMARK                            x       y       z     vdW  Elec       q    Type
REMARK                         _______ _______ _______ _____ _____    ______ ____
ROOT
ATOM      1  N   UNL     1       6.221   4.834  17.182  0.00  0.00    +0.000 N 
ATOM      2  C   UNL     1       7.190   5.722  16.785  0.00  0.00    +0.000 A 
ATOM      3  N   UNL     1       7.602   5.884  15.572  0.00  0.00    +0.000 NA
ATOM      4  C   UNL     1       7.034   5.074  14.582  0.00  0.00    +0.000 A 
ATOM      5  C   UNL     1       7.487   5.200  13.268  0.00  0.00    +0.000 A 
ATOM      6  C   UNL     1       6.985   4.374  12.259  0.00  0.00    +0.000 A 
ATOM      7  C   UNL     1       6.017   3.415  12.558  0.00  0.00    +0.000 A 
ATOM      8  C   UNL     1       5.543   3.289  13.863  0.00  0.00    +0.000 A 
ATOM      9  C   UNL     1       6.053   4.120  14.867  0.00  0.00    +0.000 A 
ATOM     10  C   UNL     1       5.602   3.992  16.269  0.00  0.00    +0.000 A 
ATOM     11  O   UNL     1       4.755   3.156  16.570  0.00  0.00    +0.000 OA
ENDROOT
BRANCH   1  12
ATOM     12  C   UNL     1       5.911   4.694  18.595  0.00  0.00    +0.000 C 
BRANCH  12  18
ATOM     13  C   UNL     1       0.820   3.799  19.861  0.00  0.00    +0.000 C 
ATOM     14  C   UNL     1       2.110   4.391  19.414  0.00  0.00    +0.000 A 
ATOM     15  N   UNL     1       2.219   5.525  18.758  0.00  0.00    +0.000 NA
ATOM     16  C   UNL     1       3.546   5.774  18.444  0.00  0.00    +0.000 A 
ATOM     17  C   UNL     1       3.865   7.000  17.664  0.00  0.00    +0.000 C 
ATOM     18  C   UNL     1       4.440   4.801  18.867  0.00  0.00    +0.000 A 
ATOM     19  S   UNL     1       3.586   3.571  19.710  0.00  0.00    +0.000 S 
ENDBRANCH  12  18
ENDBRANCH   1  12
TORSDOF 2
ENDMDL
