MODEL 1
REMARK VINA RESULT:      -8.2      0.000      0.000
REMARK  Name = 
REMARK  6 active torsions:
REMARK  status: ('A' for Active; 'I' for Inactive)
REMARK    1  A    between atoms: C_2  and  O_3
REMARK    2  A    between atoms: C_2  and  C_4
REMARK    3  A    between atoms: C_4  and  C_5
REMARK    4  A    between atoms: C_5  and  C_6
REMARK    5  A    between atoms: N_8  and  C_9
REMARK    6  A    between atoms: C_17  and  C_18
REMARK                            x       y       z     vdW  Elec       q    Type
REMARK                         _______ _______ _______ _____ _____    ______ ____
ROOT
ATOM      1  C   UNL     1       2.493   5.230  20.079  0.00  0.00    +0.000 A 
ATOM      2  C   UNL     1       1.758   6.108  20.849  0.00  0.00    +0.000 A 
ATOM      3  N   UNL     1       1.788   7.336  20.240  0.00  0.00    +0.000 N 
ATOM      4  N   UNL     1       2.528   7.301  19.111  0.00  0.00    +0.000 NA
ATOM      5  C   UNL     1       2.976   6.038  18.996  0.00  0.00    +0.000 A 
ENDROOT
BRANCH   3   6
ATOM      6  C   UNL     1       1.149   8.531  20.681  0.00  0.00    +0.000 A 
ATOM      7  C   UNL     1       0.916   9.592  19.792  0.00  0.00    +0.000 A 
ATOM      8  C   UNL     1       0.289  10.759  20.234  0.00  0.00    +0.000 A 
ATOM      9  C   UNL     1      -0.098  10.874  21.566  0.00  0.00    +0.000 A 
ATOM     10 BR   UNL     1      -0.941  12.459  22.159  0.00  0.00    +0.000 Br
ATOM     11  C   UNL     1       0.130   9.830  22.461  0.00  0.00    +0.000 A 
ATOM     12  C   UNL     1       0.749   8.656  22.020  0.00  0.00    +0.000 A 
ENDBRANCH   3   6
BRANCH   5  13
ATOM     13  C   UNL     1       3.836   5.677  17.856  0.00  0.00    +0.000 A 
ATOM     14  C   UNL     1       4.470   6.689  17.112  0.00  0.00    +0.000 A 
ATOM     15  C   UNL     1       5.248   6.382  15.990  0.00  0.00    +0.000 A 
ATOM     16  C   UNL     1       5.406   5.056  15.602  0.00  0.00    +0.000 A 
ATOM     17 CL   UNL     1       6.327   4.673  14.201  0.00  0.00    +0.000 Cl
ATOM     18  C   UNL     1       4.805   4.036  16.334  0.00  0.00    +0.000 A 
ATOM     19  C   UNL     1       4.019   4.347  17.451  0.00  0.00    +0.000 A 
ENDBRANCH   5  13
BRANCH   1  20
ATOM     20  C   UNL     1       2.721   3.775  20.363  0.00  0.00    +0.000 C 
BRANCH  20  21
ATOM     21  C   UNL     1       1.435   2.944  20.383  0.00  0.00    +0.000 C 
BRANCH  21  23
ATOM     22  O   UNL     1       0.182   2.243  18.434  0.00  0.00    +0.000 OA
ATOM     23  C   UNL     1       1.215   2.224  19.082  0.00  0.00    +0.000 C 
BRANCH  23  24
ATOM     24  O   UNL     1       2.306   1.523  18.694  0.00  0.00    +0.000 OA
ATOM     25  H   UNL     1       3.008   2.066  18.290  0.00  0.00    +0.000 HD
ENDBRANCH  23  24
ENDBRANCH  21  23
ENDBRANCH  20  21
ENDBRANCH   1  20
TORSDOF 6
ENDMDL
MODEL 2
REMARK VINA RESULT:      -8.2      0.090      1.396
REMARK  Name = 
REMARK  6 active torsions:
REMARK  status: ('A' for Active; 'I' for Inactive)
REMARK    1  A    between atoms: C_2  and  O_3
REMARK    2  A    between atoms: C_2  and  C_4
REMARK    3  A    between atoms: C_4  and  C_5
REMARK    4  A    between atoms: C_5  and  C_6
REMARK    5  A    between atoms: N_8  and  C_9
REMARK    6  A    between atoms: C_17  and  C_18
REMARK                            x       y       z     vdW  Elec       q    Type
REMARK                         _______ _______ _______ _____ _____    ______ ____
ROOT
ATOM      1  C   UNL     1       2.533   5.274  20.030  0.00  0.00    +0.000 A 
ATOM      2  C   UNL     1       1.807   6.139  20.823  0.00  0.00    +0.000 A 
ATOM      3  N   UNL     1       1.794   7.367  20.214  0.00  0.00    +0.000 N 
ATOM      4  N   UNL     1       2.497   7.344  19.061  0.00  0.00    +0.000 NA
ATOM      5  C   UNL     1       2.965   6.090  18.931  0.00  0.00    +0.000 A 
ENDROOT
BRANCH   3   6
ATOM      6  C   UNL     1       1.148   8.549  20.675  0.00  0.00    +0.000 A 
ATOM      7  C   UNL     1       0.791   8.695  22.025  0.00  0.00    +0.000 A 
ATOM      8  C   UNL     1       0.157   9.858  22.467  0.00  0.00    +0.000 A 
ATOM      9  C   UNL     1      -0.131  10.876  21.561  0.00  0.00    +0.000 A 
ATOM     10 BR   UNL     1      -0.994  12.445  22.165  0.00  0.00    +0.000 Br
ATOM     11  C   UNL     1       0.215  10.744  20.217  0.00  0.00    +0.000 A 
ATOM     12  C   UNL     1       0.858   9.584  19.773  0.00  0.00    +0.000 A 
ENDBRANCH   3   6
BRANCH   5  13
ATOM     13  C   UNL     1       3.793   5.744  17.763  0.00  0.00    +0.000 A 
ATOM     14  C   UNL     1       3.906   4.401  17.361  0.00  0.00    +0.000 A 
ATOM     15  C   UNL     1       4.729   4.032  16.291  0.00  0.00    +0.000 A 
ATOM     16  C   UNL     1       5.446   5.007  15.605  0.00  0.00    +0.000 A 
ATOM     17 CL   UNL     1       6.491   4.559  14.316  0.00  0.00    +0.000 Cl
ATOM     18  C   UNL     1       5.335   6.345  15.973  0.00  0.00    +0.000 A 
ATOM     19  C   UNL     1       4.518   6.709  17.050  0.00  0.00    +0.000 A 
ENDBRANCH   5  13
BRANCH   1  20
ATOM     20  C   UNL     1       2.797   3.824  20.306  0.00  0.00    +0.000 C 
BRANCH  20  21
ATOM     21  C   UNL     1       1.529   2.970  20.374  0.00  0.00    +0.000 C 
BRANCH  21  23
ATOM     22  O   UNL     1       0.223   2.303  18.447  0.00  0.00    +0.000 OA
ATOM     23  C   UNL     1       1.266   2.255  19.078  0.00  0.00    +0.000 C 
BRANCH  23  24
ATOM     24  O   UNL     1       2.330   1.522  18.672  0.00  0.00    +0.000 OA
ATOM     25  H   UNL     1       2.549   1.626  17.727  0.00  0.00    +0.000 HD
ENDBRANCH  23  24
ENDBRANCH  21  23
ENDBRANCH  20  21
ENDBRANCH   1  20
TORSDOF 6
ENDMDL
MODEL 3
REMARK VINA RESULT:      -8.1      0.388      1.061
REMARK  Name = 
REMARK  6 active torsions:
REMARK  status: ('A' for Active; 'I' for Inactive)
REMARK    1  A    between atoms: C_2  and  O_3
REMARK    2  A    between atoms: C_2  and  C_4
REMARK    3  A    between atoms: C_4  and  C_5
REMARK    4  A    between atoms: C_5  and  C_6
REMARK    5  A    between atoms: N_8  and  C_9
REMARK    6  A    between atoms: C_17  and  C_18
REMARK                            x       y       z     vdW  Elec       q    Type
REMARK                         _______ _______ _______ _____ _____    ______ ____
ROOT
ATOM      1  C   UNL     1       2.323   5.408  20.232  0.00  0.00    +0.000 A 
ATOM      2  C   UNL     1       1.591   6.298  20.992  0.00  0.00    +0.000 A 
ATOM      3  N   UNL     1       1.655   7.527  20.388  0.00  0.00    +0.000 N 
ATOM      4  N   UNL     1       2.414   7.481  19.271  0.00  0.00    +0.000 NA
ATOM      5  C   UNL     1       2.840   6.210  19.160  0.00  0.00    +0.000 A 
ENDROOT
BRANCH   3   6
ATOM      6  C   UNL     1       1.031   8.732  20.821  0.00  0.00    +0.000 A 
ATOM      7  C   UNL     1       0.616   8.889  22.153  0.00  0.00    +0.000 A 
ATOM      8  C   UNL     1       0.005  10.075  22.567  0.00  0.00    +0.000 A 
ATOM      9  C   UNL     1      -0.202  11.103  21.651  0.00  0.00    +0.000 A 
ATOM     10 BR   UNL     1      -1.035  12.702  22.218  0.00  0.00    +0.000 Br
ATOM     11  C   UNL     1       0.201  10.960  20.325  0.00  0.00    +0.000 A 
ATOM     12  C   UNL     1       0.823   9.778  19.908  0.00  0.00    +0.000 A 
ENDBRANCH   3   6
BRANCH   5  13
ATOM     13  C   UNL     1       3.712   5.836  18.034  0.00  0.00    +0.000 A 
ATOM     14  C   UNL     1       4.356   6.840  17.287  0.00  0.00    +0.000 A 
ATOM     15  C   UNL     1       5.147   6.521  16.177  0.00  0.00    +0.000 A 
ATOM     16  C   UNL     1       5.308   5.190  15.805  0.00  0.00    +0.000 A 
ATOM     17 CL   UNL     1       6.244   4.792  14.418  0.00  0.00    +0.000 Cl
ATOM     18  C   UNL     1       4.696   4.179  16.540  0.00  0.00    +0.000 A 
ATOM     19  C   UNL     1       3.898   4.502  17.645  0.00  0.00    +0.000 A 
ENDBRANCH   5  13
BRANCH   1  20
ATOM     20  C   UNL     1       2.519   3.949  20.515  0.00  0.00    +0.000 C 
BRANCH  20  21
ATOM     21  C   UNL     1       1.259   3.106  20.298  0.00  0.00    +0.000 C 
BRANCH  21  23
ATOM     22  O   UNL     1       0.678   3.222  17.950  0.00  0.00    +0.000 OA
ATOM     23  C   UNL     1       1.160   2.603  18.884  0.00  0.00    +0.000 C 
BRANCH  23  24
ATOM     24  O   UNL     1       1.665   1.354  18.749  0.00  0.00    +0.000 OA
ATOM     25  H   UNL     1       2.071   1.180  17.879  0.00  0.00    +0.000 HD
ENDBRANCH  23  24
ENDBRANCH  21  23
ENDBRANCH  20  21
ENDBRANCH   1  20
TORSDOF 6
ENDMDL
MODEL 4
REMARK VINA RESULT:      -7.9      1.407      1.736
REMARK  Name = 
REMARK  6 active torsions:
REMARK  status: ('A' for Active; 'I' for Inactive)
REMARK    1  A    between atoms: C_2  and  O_3
REMARK    2  A    between atoms: C_2  and  C_4
REMARK    3  A    between atoms: C_4  and  C_5
REMARK    4  A    between atoms: C_5  and  C_6
REMARK    5  A    between atoms: N_8  and  C_9
REMARK    6  A    between atoms: C_17  and  C_18
REMARK                            x       y       z     vdW  Elec       q    Type
REMARK                         _______ _______ _______ _____ _____    ______ ____
ROOT
ATOM      1  C   UNL     1       2.139   6.460  20.109  0.00  0.00    +0.000 A 
ATOM      2  C   UNL     1       1.460   7.579  20.549  0.00  0.00    +0.000 A 
ATOM      3  N   UNL     1       1.578   8.552  19.591  0.00  0.00    +0.000 N 
ATOM      4  N   UNL     1       2.321   8.122  18.549  0.00  0.00    +0.000 NA
ATOM      5  C   UNL     1       2.683   6.860  18.843  0.00  0.00    +0.000 A 
ENDROOT
BRANCH   3   6
ATOM      6  C   UNL     1       1.018   9.862  19.622  0.00  0.00    +0.000 A 
ATOM      7  C   UNL     1       1.430  10.842  18.706  0.00  0.00    +0.000 A 
ATOM      8  C   UNL     1       0.876  12.124  18.746  0.00  0.00    +0.000 A 
ATOM      9  C   UNL     1      -0.084  12.433  19.706  0.00  0.00    +0.000 A 
ATOM     10 BR   UNL     1      -0.826  14.171  19.757  0.00  0.00    +0.000 Br
ATOM     11  C   UNL     1      -0.501  11.470  20.623  0.00  0.00    +0.000 A 
ATOM     12  C   UNL     1       0.045  10.183  20.581  0.00  0.00    +0.000 A 
ENDBRANCH   3   6
BRANCH   5  13
ATOM     13  C   UNL     1       3.524   6.110  17.895  0.00  0.00    +0.000 A 
ATOM     14  C   UNL     1       4.496   6.788  17.137  0.00  0.00    +0.000 A 
ATOM     15  C   UNL     1       5.273   6.114  16.187  0.00  0.00    +0.000 A 
ATOM     16  C   UNL     1       5.090   4.749  15.990  0.00  0.00    +0.000 A 
ATOM     17 CL   UNL     1       6.012   3.922  14.797  0.00  0.00    +0.000 Cl
ATOM     18  C   UNL     1       4.149   4.053  16.743  0.00  0.00    +0.000 A 
ATOM     19  C   UNL     1       3.367   4.733  17.686  0.00  0.00    +0.000 A 
ENDBRANCH   5  13
BRANCH   1  20
ATOM     20  C   UNL     1       2.265   5.154  20.836  0.00  0.00    +0.000 C 
BRANCH  20  21
ATOM     21  C   UNL     1       1.115   4.183  20.558  0.00  0.00    +0.000 C 
BRANCH  21  23
ATOM     22  O   UNL     1       1.549   2.373  22.107  0.00  0.00    +0.000 OA
ATOM     23  C   UNL     1       1.463   2.776  20.959  0.00  0.00    +0.000 C 
BRANCH  23  24
ATOM     24  O   UNL     1       1.687   1.979  19.889  0.00  0.00    +0.000 OA
ATOM     25  H   UNL     1       0.945   1.939  19.257  0.00  0.00    +0.000 HD
ENDBRANCH  23  24
ENDBRANCH  21  23
ENDBRANCH  20  21
ENDBRANCH   1  20
TORSDOF 6
ENDMDL
MODEL 5
REMARK VINA RESULT:      -7.8      0.970      1.139
REMARK  Name = 
REMARK  6 active torsions:
REMARK  status: ('A' for Active; 'I' for Inactive)
REMARK    1  A    between atoms: C_2  and  O_3
REMARK    2  A    between atoms: C_2  and  C_4
REMARK    3  A    between atoms: C_4  and  C_5
REMARK    4  A    between atoms: C_5  and  C_6
REMARK    5  A    between atoms: N_8  and  C_9
REMARK    6  A    between atoms: C_17  and  C_18
REMARK                            x       y       z     vdW  Elec       q    Type
REMARK                         _______ _______ _______ _____ _____    ______ ____
ROOT
ATOM      1  C   UNL     1       2.018   5.429  20.368  0.00  0.00    +0.000 A 
ATOM      2  C   UNL     1       1.205   6.308  21.055  0.00  0.00    +0.000 A 
ATOM      3  N   UNL     1       1.485   7.577  20.620  0.00  0.00    +0.000 N 
ATOM      4  N   UNL     1       2.462   7.566  19.687  0.00  0.00    +0.000 NA
ATOM      5  C   UNL     1       2.810   6.278  19.523  0.00  0.00    +0.000 A 
ENDROOT
BRANCH   3   6
ATOM      6  C   UNL     1       0.870   8.788  21.049  0.00  0.00    +0.000 A 
ATOM      7  C   UNL     1       0.808   9.903  20.198  0.00  0.00    +0.000 A 
ATOM      8  C   UNL     1       0.204  11.087  20.628  0.00  0.00    +0.000 A 
ATOM      9  C   UNL     1      -0.333  11.163  21.910  0.00  0.00    +0.000 A 
ATOM     10 BR   UNL     1      -1.145  12.770  22.487  0.00  0.00    +0.000 Br
ATOM     11  C   UNL     1      -0.276  10.065  22.767  0.00  0.00    +0.000 A 
ATOM     12  C   UNL     1       0.320   8.875  22.336  0.00  0.00    +0.000 A 
ENDBRANCH   3   6
BRANCH   5  13
ATOM     13  C   UNL     1       3.876   5.932  18.567  0.00  0.00    +0.000 A 
ATOM     14  C   UNL     1       3.985   6.643  17.358  0.00  0.00    +0.000 A 
ATOM     15  C   UNL     1       4.951   6.303  16.404  0.00  0.00    +0.000 A 
ATOM     16  C   UNL     1       5.825   5.249  16.652  0.00  0.00    +0.000 A 
ATOM     17 CL   UNL     1       6.987   4.799  15.468  0.00  0.00    +0.000 Cl
ATOM     18  C   UNL     1       5.748   4.545  17.850  0.00  0.00    +0.000 A 
ATOM     19  C   UNL     1       4.774   4.882  18.799  0.00  0.00    +0.000 A 
ENDBRANCH   5  13
BRANCH   1  20
ATOM     20  C   UNL     1       2.043   3.937  20.519  0.00  0.00    +0.000 C 
BRANCH  20  21
ATOM     21  C   UNL     1       1.047   3.211  19.612  0.00  0.00    +0.000 C 
BRANCH  21  23
ATOM     22  O   UNL     1       2.363   2.093  17.914  0.00  0.00    +0.000 OA
ATOM     23  C   UNL     1       1.604   2.993  18.232  0.00  0.00    +0.000 C 
BRANCH  23  24
ATOM     24  O   UNL     1       1.175   3.929  17.353  0.00  0.00    +0.000 OA
ATOM     25  H   UNL     1       0.408   3.653  16.817  0.00  0.00    +0.000 HD
ENDBRANCH  23  24
ENDBRANCH  21  23
ENDBRANCH  20  21
ENDBRANCH   1  20
TORSDOF 6
ENDMDL
MODEL 6
REMARK VINA RESULT:      -7.8      1.149      1.676
REMARK  Name = 
REMARK  6 active torsions:
REMARK  status: ('A' for Active; 'I' for Inactive)
REMARK    1  A    between atoms: C_2  and  O_3
REMARK    2  A    between atoms: C_2  and  C_4
REMARK    3  A    between atoms: C_4  and  C_5
REMARK    4  A    between atoms: C_5  and  C_6
REMARK    5  A    between atoms: N_8  and  C_9
REMARK    6  A    between atoms: C_17  and  C_18
REMARK                            x       y       z     vdW  Elec       q    Type
REMARK                         _______ _______ _______ _____ _____    ______ ____
ROOT
ATOM      1  C   UNL     1       3.198   5.114  19.668  0.00  0.00    +0.000 A 
ATOM      2  C   UNL     1       2.425   5.998  20.393  0.00  0.00    +0.000 A 
ATOM      3  N   UNL     1       2.264   7.136  19.645  0.00  0.00    +0.000 N 
ATOM      4  N   UNL     1       2.915   7.038  18.466  0.00  0.00    +0.000 NA
ATOM      5  C   UNL     1       3.498   5.826  18.459  0.00  0.00    +0.000 A 
ENDROOT
BRANCH   3   6
ATOM      6  C   UNL     1       1.525   8.301  19.999  0.00  0.00    +0.000 A 
ATOM      7  C   UNL     1       1.019   8.465  21.299  0.00  0.00    +0.000 A 
ATOM      8  C   UNL     1       0.294   9.611  21.635  0.00  0.00    +0.000 A 
ATOM      9  C   UNL     1       0.065  10.591  20.674  0.00  0.00    +0.000 A 
ATOM     10 BR   UNL     1      -0.921  12.136  21.136  0.00  0.00    +0.000 Br
ATOM     11  C   UNL     1       0.559  10.440  19.379  0.00  0.00    +0.000 A 
ATOM     12  C   UNL     1       1.293   9.299  19.041  0.00  0.00    +0.000 A 
ENDBRANCH   3   6
BRANCH   5  13
ATOM     13  C   UNL     1       4.305   5.419  17.296  0.00  0.00    +0.000 A 
ATOM     14  C   UNL     1       4.829   6.399  16.433  0.00  0.00    +0.000 A 
ATOM     15  C   UNL     1       5.552   6.043  15.288  0.00  0.00    +0.000 A 
ATOM     16  C   UNL     1       5.765   4.699  14.998  0.00  0.00    +0.000 A 
ATOM     17 CL   UNL     1       6.618   4.252  13.573  0.00  0.00    +0.000 Cl
ATOM     18  C   UNL     1       5.273   3.713  15.848  0.00  0.00    +0.000 A 
ATOM     19  C   UNL     1       4.542   4.073  16.987  0.00  0.00    +0.000 A 
ENDBRANCH   5  13
BRANCH   1  20
ATOM     20  C   UNL     1       3.616   3.739  20.097  0.00  0.00    +0.000 C 
BRANCH  20  21
ATOM     21  C   UNL     1       2.551   2.668  19.852  0.00  0.00    +0.000 C 
BRANCH  21  23
ATOM     22  O   UNL     1       1.600   2.468  22.070  0.00  0.00    +0.000 OA
ATOM     23  C   UNL     1       1.459   2.719  20.885  0.00  0.00    +0.000 C 
BRANCH  23  24
ATOM     24  O   UNL     1       0.266   3.072  20.352  0.00  0.00    +0.000 OA
ATOM     25  H   UNL     1      -0.014   2.520  19.598  0.00  0.00    +0.000 HD
ENDBRANCH  23  24
ENDBRANCH  21  23
ENDBRANCH  20  21
ENDBRANCH   1  20
TORSDOF 6
ENDMDL
MODEL 7
REMARK VINA RESULT:      -7.8      1.347      2.121
REMARK  Name = 
REMARK  6 active torsions:
REMARK  status: ('A' for Active; 'I' for Inactive)
REMARK    1  A    between atoms: C_2  and  O_3
REMARK    2  A    between atoms: C_2  and  C_4
REMARK    3  A    between atoms: C_4  and  C_5
REMARK    4  A    between atoms: C_5  and  C_6
REMARK    5  A    between atoms: N_8  and  C_9
REMARK    6  A    between atoms: C_17  and  C_18
REMARK                            x       y       z     vdW  Elec       q    Type
REMARK                         _______ _______ _______ _____ _____    ______ ____
ROOT
ATOM      1  C   UNL     1       2.091   6.442  20.190  0.00  0.00    +0.000 A 
ATOM      2  C   UNL     1       1.409   7.537  20.678  0.00  0.00    +0.000 A 
ATOM      3  N   UNL     1       1.491   8.540  19.747  0.00  0.00    +0.000 N 
ATOM      4  N   UNL     1       2.215   8.150  18.675  0.00  0.00    +0.000 NA
ATOM      5  C   UNL     1       2.600   6.885  18.923  0.00  0.00    +0.000 A 
ENDROOT
BRANCH   3   6
ATOM      6  C   UNL     1       0.916   9.841  19.830  0.00  0.00    +0.000 A 
ATOM      7  C   UNL     1       0.813  10.504  21.062  0.00  0.00    +0.000 A 
ATOM      8  C   UNL     1       0.247  11.780  21.133  0.00  0.00    +0.000 A 
ATOM      9  C   UNL     1      -0.225  12.392  19.975  0.00  0.00    +0.000 A 
ATOM     10 BR   UNL     1      -0.994  14.115  20.079  0.00  0.00    +0.000 Br
ATOM     11  C   UNL     1      -0.132  11.743  18.744  0.00  0.00    +0.000 A 
ATOM     12  C   UNL     1       0.443  10.470  18.669  0.00  0.00    +0.000 A 
ENDBRANCH   3   6
BRANCH   5  13
ATOM     13  C   UNL     1       3.427   6.173  17.934  0.00  0.00    +0.000 A 
ATOM     14  C   UNL     1       3.236   4.795  17.728  0.00  0.00    +0.000 A 
ATOM     15  C   UNL     1       4.044   4.078  16.837  0.00  0.00    +0.000 A 
ATOM     16  C   UNL     1       5.049   4.736  16.135  0.00  0.00    +0.000 A 
ATOM     17 CL   UNL     1       6.071   3.856  15.069  0.00  0.00    +0.000 Cl
ATOM     18  C   UNL     1       5.243   6.104  16.308  0.00  0.00    +0.000 A 
ATOM     19  C   UNL     1       4.440   6.815  17.208  0.00  0.00    +0.000 A 
ENDBRANCH   5  13
BRANCH   1  20
ATOM     20  C   UNL     1       2.251   5.117  20.875  0.00  0.00    +0.000 C 
BRANCH  20  21
ATOM     21  C   UNL     1       1.112   4.135  20.588  0.00  0.00    +0.000 C 
BRANCH  21  23
ATOM     22  O   UNL     1       1.721   1.925  19.809  0.00  0.00    +0.000 OA
ATOM     23  C   UNL     1       1.557   2.706  20.731  0.00  0.00    +0.000 C 
BRANCH  23  24
ATOM     24  O   UNL     1       1.754   2.358  22.024  0.00  0.00    +0.000 OA
ATOM     25  H   UNL     1       2.675   2.120  22.239  0.00  0.00    +0.000 HD
ENDBRANCH  23  24
ENDBRANCH  21  23
ENDBRANCH  20  21
ENDBRANCH   1  20
TORSDOF 6
ENDMDL
MODEL 8
REMARK VINA RESULT:      -7.8      0.961      1.485
REMARK  Name = 
REMARK  6 active torsions:
REMARK  status: ('A' for Active; 'I' for Inactive)
REMARK    1  A    between atoms: C_2  and  O_3
REMARK    2  A    between atoms: C_2  and  C_4
REMARK    3  A    between atoms: C_4  and  C_5
REMARK    4  A    between atoms: C_5  and  C_6
REMARK    5  A    between atoms: N_8  and  C_9
REMARK    6  A    between atoms: C_17  and  C_18
REMARK                            x       y       z     vdW  Elec       q    Type
REMARK                         _______ _______ _______ _____ _____    ______ ____
ROOT
ATOM      1  C   UNL     1       2.254   6.017  19.919  0.00  0.00    +0.000 A 
ATOM      2  C   UNL     1       1.550   7.082  20.442  0.00  0.00    +0.000 A 
ATOM      3  N   UNL     1       1.692   8.147  19.590  0.00  0.00    +0.000 N 
ATOM      4  N   UNL     1       2.475   7.826  18.538  0.00  0.00    +0.000 NA
ATOM      5  C   UNL     1       2.838   6.543  18.718  0.00  0.00    +0.000 A 
ENDROOT
BRANCH   3   6
ATOM      6  C   UNL     1       1.120   9.444  19.730  0.00  0.00    +0.000 A 
ATOM      7  C   UNL     1       0.373   9.781  20.870  0.00  0.00    +0.000 A 
ATOM      8  C   UNL     1      -0.184  11.056  20.998  0.00  0.00    +0.000 A 
ATOM      9  C   UNL     1      -0.005  11.993  19.984  0.00  0.00    +0.000 A 
ATOM     10 BR   UNL     1      -0.767  13.714  20.162  0.00  0.00    +0.000 Br
ATOM     11  C   UNL     1       0.731  11.671  18.845  0.00  0.00    +0.000 A 
ATOM     12  C   UNL     1       1.299  10.399  18.718  0.00  0.00    +0.000 A 
ENDBRANCH   3   6
BRANCH   5  13
ATOM     13  C   UNL     1       3.719   5.895  17.731  0.00  0.00    +0.000 A 
ATOM     14  C   UNL     1       4.621   6.674  16.983  0.00  0.00    +0.000 A 
ATOM     15  C   UNL     1       5.431   6.097  15.999  0.00  0.00    +0.000 A 
ATOM     16  C   UNL     1       5.353   4.730  15.755  0.00  0.00    +0.000 A 
ATOM     17 CL   UNL     1       6.315   4.020  14.520  0.00  0.00    +0.000 Cl
ATOM     18  C   UNL     1       4.483   3.936  16.497  0.00  0.00    +0.000 A 
ATOM     19  C   UNL     1       3.666   4.518  17.475  0.00  0.00    +0.000 A 
ENDBRANCH   5  13
BRANCH   1  20
ATOM     20  C   UNL     1       2.367   4.646  20.516  0.00  0.00    +0.000 C 
BRANCH  20  21
ATOM     21  C   UNL     1       1.072   3.834  20.441  0.00  0.00    +0.000 C 
BRANCH  21  23
ATOM     22  O   UNL     1       0.312   2.427  18.622  0.00  0.00    +0.000 OA
ATOM     23  C   UNL     1       1.170   2.717  19.439  0.00  0.00    +0.000 C 
BRANCH  23  24
ATOM     24  O   UNL     1       2.336   2.037  19.543  0.00  0.00    +0.000 OA
ATOM     25  H   UNL     1       3.043   2.363  18.955  0.00  0.00    +0.000 HD
ENDBRANCH  23  24
ENDBRANCH  21  23
ENDBRANCH  20  21
ENDBRANCH   1  20
TORSDOF 6
ENDMDL
MODEL 9
REMARK VINA RESULT:      -7.8      1.347      1.905
REMARK  Name = 
REMARK  6 active torsions:
REMARK  status: ('A' for Active; 'I' for Inactive)
REMARK    1  A    between atoms: C_2  and  O_3
REMARK    2  A    between atoms: C_2  and  C_4
REMARK    3  A    between atoms: C_4  and  C_5
REMARK    4  A    between atoms: C_5  and  C_6
REMARK    5  A    between atoms: N_8  and  C_9
REMARK    6  A    between atoms: C_17  and  C_18
REMARK                            x       y       z     vdW  Elec       q    Type
REMARK                         _______ _______ _______ _____ _____    ______ ____
ROOT
ATOM      1  C   UNL     1       2.108   6.440  20.173  0.00  0.00    +0.000 A 
ATOM      2  C   UNL     1       1.432   7.537  20.666  0.00  0.00    +0.000 A 
ATOM      3  N   UNL     1       1.518   8.543  19.738  0.00  0.00    +0.000 N 
ATOM      4  N   UNL     1       2.238   8.153  18.664  0.00  0.00    +0.000 NA
ATOM      5  C   UNL     1       2.617   6.886  18.907  0.00  0.00    +0.000 A 
ENDROOT
BRANCH   3   6
ATOM      6  C   UNL     1       0.949   9.846  19.827  0.00  0.00    +0.000 A 
ATOM      7  C   UNL     1       0.899  10.687  18.704  0.00  0.00    +0.000 A 
ATOM      8  C   UNL     1       0.340  11.964  18.802  0.00  0.00    +0.000 A 
ATOM      9  C   UNL     1      -0.162  12.407  20.023  0.00  0.00    +0.000 A 
ATOM     10 BR   UNL     1      -0.912  14.137  20.149  0.00  0.00    +0.000 Br
ATOM     11  C   UNL     1      -0.117  11.583  21.146  0.00  0.00    +0.000 A 
ATOM     12  C   UNL     1       0.434  10.301  21.050  0.00  0.00    +0.000 A 
ENDBRANCH   3   6
BRANCH   5  13
ATOM     13  C   UNL     1       3.439   6.174  17.913  0.00  0.00    +0.000 A 
ATOM     14  C   UNL     1       3.279   4.787  17.740  0.00  0.00    +0.000 A 
ATOM     15  C   UNL     1       4.083   4.072  16.846  0.00  0.00    +0.000 A 
ATOM     16  C   UNL     1       5.055   4.739  16.107  0.00  0.00    +0.000 A 
ATOM     17 CL   UNL     1       6.075   3.862  15.036  0.00  0.00    +0.000 Cl
ATOM     18  C   UNL     1       5.219   6.114  16.247  0.00  0.00    +0.000 A 
ATOM     19  C   UNL     1       4.418   6.825  17.151  0.00  0.00    +0.000 A 
ENDBRANCH   5  13
BRANCH   1  20
ATOM     20  C   UNL     1       2.264   5.112  20.852  0.00  0.00    +0.000 C 
BRANCH  20  21
ATOM     21  C   UNL     1       1.124   4.134  20.557  0.00  0.00    +0.000 C 
BRANCH  21  23
ATOM     22  O   UNL     1       1.660   2.326  22.077  0.00  0.00    +0.000 OA
ATOM     23  C   UNL     1       1.485   2.724  20.937  0.00  0.00    +0.000 C 
BRANCH  23  24
ATOM     24  O   UNL     1       1.610   1.918  19.857  0.00  0.00    +0.000 OA
ATOM     25  H   UNL     1       1.879   1.005  20.068  0.00  0.00    +0.000 HD
ENDBRANCH  23  24
ENDBRANCH  21  23
ENDBRANCH  20  21
ENDBRANCH   1  20
TORSDOF 6
ENDMDL
