MODEL 1
REMARK VINA RESULT:      -7.9      0.000      0.000
REMARK  Name = 
REMARK  10 active torsions:
REMARK  status: ('A' for Active; 'I' for Inactive)
REMARK    1  A    between atoms: C_1  and  C_2
REMARK    2  A    between atoms: C_2  and  C_3
REMARK    3  A    between atoms: C_3  and  N_4
REMARK    4  A    between atoms: N_4  and  C_5
REMARK    5  A    between atoms: C_5  and  C_6
REMARK    6  A    between atoms: C_11  and  C_12
REMARK    7  A    between atoms: N_14  and  C_15
REMARK    8  A    between atoms: N_22  and  C_23
REMARK    9  A    between atoms: C_23  and  C_24
REMARK   10  A    between atoms: C_24  and  O_26
REMARK                            x       y       z     vdW  Elec       q    Type
REMARK                         _______ _______ _______ _____ _____    ______ ____
ROOT
ATOM      1  C   UNL     1       1.103   9.249  20.386  0.00  0.00    +0.000 C 
ATOM      2  O   UNL     1       1.556   8.748  21.413  0.00  0.00    +0.000 OA
ATOM      3  N   UNL     1       1.439   8.890  19.092  0.00  0.00    +0.000 N 
ATOM      4  H   UNL     1       1.100   9.506  18.358  0.00  0.00    +0.000 HD
ENDROOT
BRANCH   3   5
ATOM      5  C   UNL     1       2.369   7.875  18.769  0.00  0.00    +0.000 A 
ATOM      6  C   UNL     1       3.228   7.984  17.666  0.00  0.00    +0.000 A 
ATOM      7  C   UNL     1       4.067   6.940  17.270  0.00  0.00    +0.000 A 
ATOM      8  C   UNL     1       4.028   5.772  18.029  0.00  0.00    +0.000 A 
ATOM      9  C   UNL     1       3.236   5.649  19.167  0.00  0.00    +0.000 A 
ATOM     10  C   UNL     1       3.515   4.347  19.640  0.00  0.00    +0.000 A 
ATOM     11  N   UNL     1       4.424   3.705  18.898  0.00  0.00    +0.000 NA
ATOM     12  N   UNL     1       4.659   4.561  17.880  0.00  0.00    +0.000 N 
ATOM     13  C   UNL     1       2.398   6.717  19.557  0.00  0.00    +0.000 A 
BRANCH  12  14
ATOM     14  C   UNL     1       5.464   4.129  16.763  0.00  0.00    +0.000 C 
BRANCH  14  15
ATOM     15  C   UNL     1       6.921   4.450  16.947  0.00  0.00    +0.000 C 
ATOM     16  O   UNL     1       7.646   4.818  16.030  0.00  0.00    +0.000 OA
BRANCH  15  17
ATOM     17  O   UNL     1       7.406   4.229  18.189  0.00  0.00    +0.000 OA
ATOM     18  H   UNL     1       7.857   5.001  18.594  0.00  0.00    +0.000 HD
ENDBRANCH  15  17
ENDBRANCH  14  15
ENDBRANCH  12  14
ENDBRANCH   3   5
BRANCH   1  22
ATOM     19  N   UNL     1      -2.817  11.588  18.837  0.00  0.00    +0.000 N 
ATOM     20  C   UNL     1      -1.761  11.481  19.739  0.00  0.00    +0.000 A 
ATOM     21  C   UNL     1      -0.827  10.492  19.576  0.00  0.00    +0.000 A 
ATOM     22  C   UNL     1       0.155  10.384  20.535  0.00  0.00    +0.000 A 
ATOM     23  N   UNL     1       0.286  11.201  21.599  0.00  0.00    +0.000 NA
ATOM     24  C   UNL     1      -0.660  12.146  21.658  0.00  0.00    +0.000 A 
ATOM     25  N   UNL     1      -1.682  12.312  20.797  0.00  0.00    +0.000 NA
BRANCH  19  26
ATOM     26  C   UNL     1      -4.061  12.114  19.401  0.00  0.00    +0.000 C 
BRANCH  26  28
ATOM     27  C   UNL     1      -6.320  11.110  18.633  0.00  0.00    +0.000 C 
ATOM     28  C   UNL     1      -5.256  12.183  18.439  0.00  0.00    +0.000 C 
ENDBRANCH  26  28
ENDBRANCH  19  26
BRANCH  19  29
ATOM     29  C   UNL     1      -2.543  11.526  17.400  0.00  0.00    +0.000 C 
BRANCH  29  30
ATOM     30  C   UNL     1      -3.216  10.403  16.637  0.00  0.00    +0.000 C 
ATOM     31  C   UNL     1      -3.676  10.371  15.145  0.00  0.00    +0.000 C 
ATOM     32  C   UNL     1      -2.407   9.699  15.631  0.00  0.00    +0.000 C 
ENDBRANCH  29  30
ENDBRANCH  19  29
ENDBRANCH   1  22
TORSDOF 9
ENDMDL
MODEL 2
REMARK VINA RESULT:      -7.8      1.046      1.046
REMARK  Name = 
REMARK  10 active torsions:
REMARK  status: ('A' for Active; 'I' for Inactive)
REMARK    1  A    between atoms: C_1  and  C_2
REMARK    2  A    between atoms: C_2  and  C_3
REMARK    3  A    between atoms: C_3  and  N_4
REMARK    4  A    between atoms: N_4  and  C_5
REMARK    5  A    between atoms: C_5  and  C_6
REMARK    6  A    between atoms: C_11  and  C_12
REMARK    7  A    between atoms: N_14  and  C_15
REMARK    8  A    between atoms: N_22  and  C_23
REMARK    9  A    between atoms: C_23  and  C_24
REMARK   10  A    between atoms: C_24  and  O_26
REMARK                            x       y       z     vdW  Elec       q    Type
REMARK                         _______ _______ _______ _____ _____    ______ ____
ROOT
ATOM      1  C   UNL     1       1.384  10.087  18.700  0.00  0.00    +0.000 C 
ATOM      2  O   UNL     1       2.204  10.568  17.921  0.00  0.00    +0.000 OA
ATOM      3  N   UNL     1       1.379   8.786  19.172  0.00  0.00    +0.000 N 
ATOM      4  H   UNL     1       0.546   8.501  19.680  0.00  0.00    +0.000 HD
ENDROOT
BRANCH   3   5
ATOM      5  C   UNL     1       2.338   7.811  18.813  0.00  0.00    +0.000 A 
ATOM      6  C   UNL     1       3.135   7.945  17.667  0.00  0.00    +0.000 A 
ATOM      7  C   UNL     1       4.002   6.936  17.242  0.00  0.00    +0.000 A 
ATOM      8  C   UNL     1       4.057   5.778  18.015  0.00  0.00    +0.000 A 
ATOM      9  C   UNL     1       3.330   5.634  19.193  0.00  0.00    +0.000 A 
ATOM     10  C   UNL     1       3.693   4.353  19.667  0.00  0.00    +0.000 A 
ATOM     11  N   UNL     1       4.593   3.745  18.887  0.00  0.00    +0.000 NA
ATOM     12  N   UNL     1       4.737   4.596  17.849  0.00  0.00    +0.000 N 
ATOM     13  C   UNL     1       2.462   6.667  19.612  0.00  0.00    +0.000 A 
BRANCH  12  14
ATOM     14  C   UNL     1       5.504   4.187  16.697  0.00  0.00    +0.000 C 
BRANCH  14  15
ATOM     15  C   UNL     1       6.967   4.501  16.842  0.00  0.00    +0.000 C 
ATOM     16  O   UNL     1       7.666   4.878  15.909  0.00  0.00    +0.000 OA
BRANCH  15  17
ATOM     17  O   UNL     1       7.489   4.263  18.066  0.00  0.00    +0.000 OA
ATOM     18  H   UNL     1       8.446   4.044  18.066  0.00  0.00    +0.000 HD
ENDBRANCH  15  17
ENDBRANCH  14  15
ENDBRANCH  12  14
ENDBRANCH   3   5
BRANCH   1  22
ATOM     19  N   UNL     1      -3.186  11.516  18.141  0.00  0.00    +0.000 N 
ATOM     20  C   UNL     1      -1.973  11.610  18.819  0.00  0.00    +0.000 A 
ATOM     21  C   UNL     1      -0.896  10.882  18.389  0.00  0.00    +0.000 A 
ATOM     22  C   UNL     1       0.259  10.955  19.135  0.00  0.00    +0.000 A 
ATOM     23  N   UNL     1       0.417  11.717  20.235  0.00  0.00    +0.000 NA
ATOM     24  C   UNL     1      -0.683  12.407  20.563  0.00  0.00    +0.000 A 
ATOM     25  N   UNL     1      -1.868  12.374  19.925  0.00  0.00    +0.000 NA
BRANCH  19  26
ATOM     26  C   UNL     1      -4.375  11.700  18.975  0.00  0.00    +0.000 C 
BRANCH  26  28
ATOM     27  C   UNL     1      -6.770  10.941  18.345  0.00  0.00    +0.000 C 
ATOM     28  C   UNL     1      -5.680  12.000  18.222  0.00  0.00    +0.000 C 
ENDBRANCH  26  28
ENDBRANCH  19  26
BRANCH  19  29
ATOM     29  C   UNL     1      -3.201  11.603  16.680  0.00  0.00    +0.000 C 
BRANCH  29  30
ATOM     30  C   UNL     1      -3.601  10.344  15.937  0.00  0.00    +0.000 C 
ATOM     31  C   UNL     1      -3.694  10.104  14.397  0.00  0.00    +0.000 C 
ATOM     32  C   UNL     1      -2.535   9.611  15.240  0.00  0.00    +0.000 C 
ENDBRANCH  29  30
ENDBRANCH  19  29
ENDBRANCH   1  22
TORSDOF 9
ENDMDL
MODEL 3
REMARK VINA RESULT:      -7.7      3.245      9.802
REMARK  Name = 
REMARK  10 active torsions:
REMARK  status: ('A' for Active; 'I' for Inactive)
REMARK    1  A    between atoms: C_1  and  C_2
REMARK    2  A    between atoms: C_2  and  C_3
REMARK    3  A    between atoms: C_3  and  N_4
REMARK    4  A    between atoms: N_4  and  C_5
REMARK    5  A    between atoms: C_5  and  C_6
REMARK    6  A    between atoms: C_11  and  C_12
REMARK    7  A    between atoms: N_14  and  C_15
REMARK    8  A    between atoms: N_22  and  C_23
REMARK    9  A    between atoms: C_23  and  C_24
REMARK   10  A    between atoms: C_24  and  O_26
REMARK                            x       y       z     vdW  Elec       q    Type
REMARK                         _______ _______ _______ _____ _____    ______ ____
ROOT
ATOM      1  C   UNL     1       1.990   5.983  20.240  0.00  0.00    +0.000 C 
ATOM      2  O   UNL     1       0.928   5.479  20.601  0.00  0.00    +0.000 OA
ATOM      3  N   UNL     1       2.254   7.338  20.143  0.00  0.00    +0.000 N 
ATOM      4  H   UNL     1       3.122   7.590  19.677  0.00  0.00    +0.000 HD
ENDROOT
BRANCH   3   5
ATOM      5  C   UNL     1       1.317   8.351  20.455  0.00  0.00    +0.000 A 
ATOM      6  C   UNL     1       0.893   9.284  19.498  0.00  0.00    +0.000 A 
ATOM      7  C   UNL     1       0.059  10.356  19.823  0.00  0.00    +0.000 A 
ATOM      8  C   UNL     1      -0.353  10.460  21.150  0.00  0.00    +0.000 A 
ATOM      9  C   UNL     1      -0.005   9.519  22.115  0.00  0.00    +0.000 A 
ATOM     10  C   UNL     1      -0.642   9.978  23.289  0.00  0.00    +0.000 A 
ATOM     11  N   UNL     1      -1.360  11.090  23.092  0.00  0.00    +0.000 NA
ATOM     12  N   UNL     1      -1.102  11.407  21.806  0.00  0.00    +0.000 N 
ATOM     13  C   UNL     1       0.835   8.437  21.767  0.00  0.00    +0.000 A 
BRANCH  12  14
ATOM     14  C   UNL     1      -1.565  12.669  21.281  0.00  0.00    +0.000 C 
BRANCH  14  15
ATOM     15  C   UNL     1      -3.060  12.806  21.352  0.00  0.00    +0.000 C 
ATOM     16  O   UNL     1      -3.796  12.613  20.391  0.00  0.00    +0.000 OA
BRANCH  15  17
ATOM     17  O   UNL     1      -3.543  13.237  22.538  0.00  0.00    +0.000 OA
ATOM     18  H   UNL     1      -2.883  13.690  23.107  0.00  0.00    +0.000 HD
ENDBRANCH  15  17
ENDBRANCH  14  15
ENDBRANCH  12  14
ENDBRANCH   3   5
BRANCH   1  22
ATOM     19  N   UNL     1       5.988   5.237  17.651  0.00  0.00    +0.000 N 
ATOM     20  C   UNL     1       5.020   4.757  18.530  0.00  0.00    +0.000 A 
ATOM     21  C   UNL     1       3.965   5.557  18.881  0.00  0.00    +0.000 A 
ATOM     22  C   UNL     1       3.074   5.063  19.808  0.00  0.00    +0.000 A 
ATOM     23  N   UNL     1       3.145   3.839  20.366  0.00  0.00    +0.000 NA
ATOM     24  C   UNL     1       4.197   3.126  19.945  0.00  0.00    +0.000 A 
ATOM     25  N   UNL     1       5.142   3.531  19.076  0.00  0.00    +0.000 NA
BRANCH  19  26
ATOM     26  C   UNL     1       7.334   4.702  17.863  0.00  0.00    +0.000 C 
BRANCH  26  28
ATOM     27  C   UNL     1       8.169   7.003  18.708  0.00  0.00    +0.000 C 
ATOM     28  C   UNL     1       8.218   5.485  18.844  0.00  0.00    +0.000 C 
ENDBRANCH  26  28
ENDBRANCH  19  26
BRANCH  19  29
ATOM     29  C   UNL     1       5.570   5.912  16.422  0.00  0.00    +0.000 C 
BRANCH  29  30
ATOM     30  C   UNL     1       5.428   5.040  15.191  0.00  0.00    +0.000 C 
ATOM     31  C   UNL     1       6.519   4.625  14.154  0.00  0.00    +0.000 C 
ATOM     32  C   UNL     1       6.027   3.699  15.249  0.00  0.00    +0.000 C 
ENDBRANCH  29  30
ENDBRANCH  19  29
ENDBRANCH   1  22
TORSDOF 9
ENDMDL
MODEL 4
REMARK VINA RESULT:      -7.5      1.939      2.200
REMARK  Name = 
REMARK  10 active torsions:
REMARK  status: ('A' for Active; 'I' for Inactive)
REMARK    1  A    between atoms: C_1  and  C_2
REMARK    2  A    between atoms: C_2  and  C_3
REMARK    3  A    between atoms: C_3  and  N_4
REMARK    4  A    between atoms: N_4  and  C_5
REMARK    5  A    between atoms: C_5  and  C_6
REMARK    6  A    between atoms: C_11  and  C_12
REMARK    7  A    between atoms: N_14  and  C_15
REMARK    8  A    between atoms: N_22  and  C_23
REMARK    9  A    between atoms: C_23  and  C_24
REMARK   10  A    between atoms: C_24  and  O_26
REMARK                            x       y       z     vdW  Elec       q    Type
REMARK                         _______ _______ _______ _____ _____    ______ ____
ROOT
ATOM      1  C   UNL     1       0.988   9.403  21.331  0.00  0.00    +0.000 C 
ATOM      2  O   UNL     1       1.642   9.228  22.357  0.00  0.00    +0.000 OA
ATOM      3  N   UNL     1       0.972   8.568  20.228  0.00  0.00    +0.000 N 
ATOM      4  H   UNL     1       0.506   8.933  19.400  0.00  0.00    +0.000 HD
ENDROOT
BRANCH   3   5
ATOM      5  C   UNL     1       1.721   7.373  20.128  0.00  0.00    +0.000 A 
ATOM      6  C   UNL     1       2.722   7.208  19.160  0.00  0.00    +0.000 A 
ATOM      7  C   UNL     1       3.389   5.994  18.978  0.00  0.00    +0.000 A 
ATOM      8  C   UNL     1       3.026   4.939  19.814  0.00  0.00    +0.000 A 
ATOM      9  C   UNL     1       2.083   5.082  20.827  0.00  0.00    +0.000 A 
ATOM     10  C   UNL     1       2.040   3.809  21.439  0.00  0.00    +0.000 A 
ATOM     11  N   UNL     1       2.898   2.940  20.893  0.00  0.00    +0.000 NA
ATOM     12  N   UNL     1       3.425   3.626  19.857  0.00  0.00    +0.000 N 
ATOM     13  C   UNL     1       1.423   6.319  21.001  0.00  0.00    +0.000 A 
BRANCH  12  14
ATOM     14  C   UNL     1       4.270   2.939  18.910  0.00  0.00    +0.000 C 
BRANCH  14  15
ATOM     15  C   UNL     1       3.549   1.832  18.195  0.00  0.00    +0.000 C 
ATOM     16  O   UNL     1       2.475   1.991  17.625  0.00  0.00    +0.000 OA
BRANCH  15  17
ATOM     17  O   UNL     1       4.127   0.613  18.288  0.00  0.00    +0.000 OA
ATOM     18  H   UNL     1       4.831   0.444  17.626  0.00  0.00    +0.000 HD
ENDBRANCH  15  17
ENDBRANCH  14  15
ENDBRANCH  12  14
ENDBRANCH   3   5
BRANCH   1  22
ATOM     19  N   UNL     1      -2.444  11.940  19.089  0.00  0.00    +0.000 N 
ATOM     20  C   UNL     1      -1.495  11.839  20.103  0.00  0.00    +0.000 A 
ATOM     21  C   UNL     1      -0.686  10.735  20.169  0.00  0.00    +0.000 A 
ATOM     22  C   UNL     1       0.185  10.650  21.232  0.00  0.00    +0.000 A 
ATOM     23  N   UNL     1       0.326  11.587  22.189  0.00  0.00    +0.000 NA
ATOM     24  C   UNL     1      -0.491  12.635  22.026  0.00  0.00    +0.000 A 
ATOM     25  N   UNL     1      -1.403  12.796  21.048  0.00  0.00    +0.000 NA
BRANCH  19  26
ATOM     26  C   UNL     1      -3.654  12.682  19.447  0.00  0.00    +0.000 C 
BRANCH  26  28
ATOM     27  C   UNL     1      -6.139  12.563  20.164  0.00  0.00    +0.000 C 
ATOM     28  C   UNL     1      -4.944  11.854  19.537  0.00  0.00    +0.000 C 
ENDBRANCH  26  28
ENDBRANCH  19  26
BRANCH  19  29
ATOM     29  C   UNL     1      -2.054  11.645  17.709  0.00  0.00    +0.000 C 
BRANCH  29  30
ATOM     30  C   UNL     1      -2.904  10.628  16.974  0.00  0.00    +0.000 C 
ATOM     31  C   UNL     1      -4.108  10.872  16.010  0.00  0.00    +0.000 C 
ATOM     32  C   UNL     1      -2.716  10.524  15.521  0.00  0.00    +0.000 C 
ENDBRANCH  29  30
ENDBRANCH  19  29
ENDBRANCH   1  22
TORSDOF 9
ENDMDL
MODEL 5
REMARK VINA RESULT:      -7.5      6.041      9.656
REMARK  Name = 
REMARK  10 active torsions:
REMARK  status: ('A' for Active; 'I' for Inactive)
REMARK    1  A    between atoms: C_1  and  C_2
REMARK    2  A    between atoms: C_2  and  C_3
REMARK    3  A    between atoms: C_3  and  N_4
REMARK    4  A    between atoms: N_4  and  C_5
REMARK    5  A    between atoms: C_5  and  C_6
REMARK    6  A    between atoms: C_11  and  C_12
REMARK    7  A    between atoms: N_14  and  C_15
REMARK    8  A    between atoms: N_22  and  C_23
REMARK    9  A    between atoms: C_23  and  C_24
REMARK   10  A    between atoms: C_24  and  O_26
REMARK                            x       y       z     vdW  Elec       q    Type
REMARK                         _______ _______ _______ _____ _____    ______ ____
ROOT
ATOM      1  C   UNL     1       7.726   7.025  17.988  0.00  0.00    +0.000 C 
ATOM      2  O   UNL     1       8.342   6.694  18.999  0.00  0.00    +0.000 OA
ATOM      3  N   UNL     1       7.662   8.302  17.459  0.00  0.00    +0.000 N 
ATOM      4  H   UNL     1       6.984   8.442  16.714  0.00  0.00    +0.000 HD
ENDROOT
BRANCH   3   5
ATOM      5  C   UNL     1       8.313   9.425  18.021  0.00  0.00    +0.000 A 
ATOM      6  C   UNL     1       9.070   9.328  19.197  0.00  0.00    +0.000 A 
ATOM      7  C   UNL     1       9.620  10.449  19.823  0.00  0.00    +0.000 A 
ATOM      8  C   UNL     1       9.396  11.686  19.221  0.00  0.00    +0.000 A 
ATOM      9  C   UNL     1       8.704  11.816  18.020  0.00  0.00    +0.000 A 
ATOM     10  C   UNL     1       8.732  13.203  17.755  0.00  0.00    +0.000 A 
ATOM     11  N   UNL     1       9.407  13.897  18.679  0.00  0.00    +0.000 NA
ATOM     12  N   UNL     1       9.729  12.963  19.600  0.00  0.00    +0.000 N 
ATOM     13  C   UNL     1       8.160  10.670  17.397  0.00  0.00    +0.000 A 
BRANCH  12  14
ATOM     14  C   UNL     1      10.313  13.376  20.853  0.00  0.00    +0.000 C 
BRANCH  14  15
ATOM     15  C   UNL     1       9.312  13.392  21.974  0.00  0.00    +0.000 C 
ATOM     16  O   UNL     1       8.602  14.360  22.224  0.00  0.00    +0.000 OA
BRANCH  15  17
ATOM     17  O   UNL     1       9.299  12.286  22.750  0.00  0.00    +0.000 OA
ATOM     18  H   UNL     1       8.735  12.356  23.551  0.00  0.00    +0.000 HD
ENDBRANCH  15  17
ENDBRANCH  14  15
ENDBRANCH  12  14
ENDBRANCH   3   5
BRANCH   1  22
ATOM     19  N   UNL     1       4.054   3.903  18.077  0.00  0.00    +0.000 N 
ATOM     20  C   UNL     1       5.123   4.480  17.396  0.00  0.00    +0.000 A 
ATOM     21  C   UNL     1       5.927   5.386  18.036  0.00  0.00    +0.000 A 
ATOM     22  C   UNL     1       6.925   5.980  17.298  0.00  0.00    +0.000 A 
ATOM     23  N   UNL     1       7.192   5.709  16.005  0.00  0.00    +0.000 NA
ATOM     24  C   UNL     1       6.368   4.797  15.475  0.00  0.00    +0.000 A 
ATOM     25  N   UNL     1       5.340   4.189  16.098  0.00  0.00    +0.000 NA
BRANCH  19  26
ATOM     26  C   UNL     1       2.903   3.556  17.241  0.00  0.00    +0.000 C 
BRANCH  26  28
ATOM     27  C   UNL     1       1.884   5.817  17.987  0.00  0.00    +0.000 C 
ATOM     28  C   UNL     1       1.644   4.411  17.447  0.00  0.00    +0.000 C 
ENDBRANCH  26  28
ENDBRANCH  19  26
BRANCH  19  29
ATOM     29  C   UNL     1       4.263   3.373  19.426  0.00  0.00    +0.000 C 
BRANCH  29  30
ATOM     30  C   UNL     1       3.040   2.814  20.125  0.00  0.00    +0.000 C 
ATOM     31  C   UNL     1       2.844   2.478  21.637  0.00  0.00    +0.000 C 
ATOM     32  C   UNL     1       2.288   3.732  20.992  0.00  0.00    +0.000 C 
ENDBRANCH  29  30
ENDBRANCH  19  29
ENDBRANCH   1  22
TORSDOF 9
ENDMDL
MODEL 6
REMARK VINA RESULT:      -7.5      2.272      2.468
REMARK  Name = 
REMARK  10 active torsions:
REMARK  status: ('A' for Active; 'I' for Inactive)
REMARK    1  A    between atoms: C_1  and  C_2
REMARK    2  A    between atoms: C_2  and  C_3
REMARK    3  A    between atoms: C_3  and  N_4
REMARK    4  A    between atoms: N_4  and  C_5
REMARK    5  A    between atoms: C_5  and  C_6
REMARK    6  A    between atoms: C_11  and  C_12
REMARK    7  A    between atoms: N_14  and  C_15
REMARK    8  A    between atoms: N_22  and  C_23
REMARK    9  A    between atoms: C_23  and  C_24
REMARK   10  A    between atoms: C_24  and  O_26
REMARK                            x       y       z     vdW  Elec       q    Type
REMARK                         _______ _______ _______ _____ _____    ______ ____
ROOT
ATOM      1  C   UNL     1       1.356   9.616  18.569  0.00  0.00    +0.000 C 
ATOM      2  O   UNL     1       1.920   9.424  17.493  0.00  0.00    +0.000 OA
ATOM      3  N   UNL     1       1.364   8.757  19.654  0.00  0.00    +0.000 N 
ATOM      4  H   UNL     1       0.720   8.986  20.407  0.00  0.00    +0.000 HD
ENDROOT
BRANCH   3   5
ATOM      5  C   UNL     1       2.037   7.513  19.673  0.00  0.00    +0.000 A 
ATOM      6  C   UNL     1       3.049   7.206  18.752  0.00  0.00    +0.000 A 
ATOM      7  C   UNL     1       3.639   5.942  18.689  0.00  0.00    +0.000 A 
ATOM      8  C   UNL     1       3.188   4.985  19.596  0.00  0.00    +0.000 A 
ATOM      9  C   UNL     1       2.231   5.270  20.566  0.00  0.00    +0.000 A 
ATOM     10  C   UNL     1       2.090   4.057  21.277  0.00  0.00    +0.000 A 
ATOM     11  N   UNL     1       2.902   3.093  20.829  0.00  0.00    +0.000 NA
ATOM     12  N   UNL     1       3.499   3.656  19.758  0.00  0.00    +0.000 N 
ATOM     13  C   UNL     1       1.649   6.556  20.620  0.00  0.00    +0.000 A 
BRANCH  12  14
ATOM     14  C   UNL     1       4.321   2.843  18.895  0.00  0.00    +0.000 C 
BRANCH  14  15
ATOM     15  C   UNL     1       3.532   1.775  18.191  0.00  0.00    +0.000 C 
ATOM     16  O   UNL     1       2.478   1.997  17.606  0.00  0.00    +0.000 OA
BRANCH  15  17
ATOM     17  O   UNL     1       4.023   0.521  18.312  0.00  0.00    +0.000 OA
ATOM     18  H   UNL     1       4.339   0.124  17.472  0.00  0.00    +0.000 HD
ENDBRANCH  15  17
ENDBRANCH  14  15
ENDBRANCH  12  14
ENDBRANCH   3   5
BRANCH   1  22
ATOM     19  N   UNL     1      -2.982  11.681  18.956  0.00  0.00    +0.000 N 
ATOM     20  C   UNL     1      -1.596  11.802  18.894  0.00  0.00    +0.000 A 
ATOM     21  C   UNL     1      -0.826  10.689  18.687  0.00  0.00    +0.000 A 
ATOM     22  C   UNL     1       0.541  10.851  18.706  0.00  0.00    +0.000 A 
ATOM     23  N   UNL     1       1.175  12.028  18.878  0.00  0.00    +0.000 NA
ATOM     24  C   UNL     1       0.337  13.058  19.052  0.00  0.00    +0.000 A 
ATOM     25  N   UNL     1      -1.008  12.999  19.089  0.00  0.00    +0.000 NA
BRANCH  19  26
ATOM     26  C   UNL     1      -3.649  12.651  19.827  0.00  0.00    +0.000 C 
BRANCH  26  28
ATOM     27  C   UNL     1      -6.035  11.979  20.576  0.00  0.00    +0.000 C 
ATOM     28  C   UNL     1      -5.165  12.797  19.628  0.00  0.00    +0.000 C 
ENDBRANCH  26  28
ENDBRANCH  19  26
BRANCH  19  29
ATOM     29  C   UNL     1      -3.681  10.894  17.938  0.00  0.00    +0.000 C 
BRANCH  29  30
ATOM     30  C   UNL     1      -3.327  11.197  16.496  0.00  0.00    +0.000 C 
ATOM     31  C   UNL     1      -2.630  10.276  15.444  0.00  0.00    +0.000 C 
ATOM     32  C   UNL     1      -4.125  10.531  15.457  0.00  0.00    +0.000 C 
ENDBRANCH  29  30
ENDBRANCH  19  29
ENDBRANCH   1  22
TORSDOF 9
ENDMDL
MODEL 7
REMARK VINA RESULT:      -7.4      3.419      9.940
REMARK  Name = 
REMARK  10 active torsions:
REMARK  status: ('A' for Active; 'I' for Inactive)
REMARK    1  A    between atoms: C_1  and  C_2
REMARK    2  A    between atoms: C_2  and  C_3
REMARK    3  A    between atoms: C_3  and  N_4
REMARK    4  A    between atoms: N_4  and  C_5
REMARK    5  A    between atoms: C_5  and  C_6
REMARK    6  A    between atoms: C_11  and  C_12
REMARK    7  A    between atoms: N_14  and  C_15
REMARK    8  A    between atoms: N_22  and  C_23
REMARK    9  A    between atoms: C_23  and  C_24
REMARK   10  A    between atoms: C_24  and  O_26
REMARK                            x       y       z     vdW  Elec       q    Type
REMARK                         _______ _______ _______ _____ _____    ______ ____
ROOT
ATOM      1  C   UNL     1       1.909   6.845  19.879  0.00  0.00    +0.000 C 
ATOM      2  O   UNL     1       1.487   6.359  20.926  0.00  0.00    +0.000 OA
ATOM      3  N   UNL     1       1.818   8.176  19.508  0.00  0.00    +0.000 N 
ATOM      4  H   UNL     1       2.070   8.388  18.546  0.00  0.00    +0.000 HD
ENDROOT
BRANCH   3   5
ATOM      5  C   UNL     1       1.215   9.179  20.302  0.00  0.00    +0.000 A 
ATOM      6  C   UNL     1       0.852   8.946  21.636  0.00  0.00    +0.000 A 
ATOM      7  C   UNL     1       0.153   9.890  22.393  0.00  0.00    +0.000 A 
ATOM      8  C   UNL     1      -0.166  11.094  21.769  0.00  0.00    +0.000 A 
ATOM      9  C   UNL     1       0.233  11.387  20.468  0.00  0.00    +0.000 A 
ATOM     10  C   UNL     1      -0.261  12.692  20.243  0.00  0.00    +0.000 A 
ATOM     11  N   UNL     1      -0.887  13.203  21.309  0.00  0.00    +0.000 NA
ATOM     12  N   UNL     1      -0.886  12.184  22.193  0.00  0.00    +0.000 N 
ATOM     13  C   UNL     1       0.944  10.423  19.719  0.00  0.00    +0.000 A 
BRANCH  12  14
ATOM     14  C   UNL     1      -1.647  12.304  23.413  0.00  0.00    +0.000 C 
BRANCH  14  15
ATOM     15  C   UNL     1      -3.130  12.233  23.174  0.00  0.00    +0.000 C 
ATOM     16  O   UNL     1      -3.934  11.916  24.043  0.00  0.00    +0.000 OA
BRANCH  15  17
ATOM     17  O   UNL     1      -3.519  12.469  21.901  0.00  0.00    +0.000 OA
ATOM     18  H   UNL     1      -4.022  13.303  21.776  0.00  0.00    +0.000 HD
ENDBRANCH  15  17
ENDBRANCH  14  15
ENDBRANCH  12  14
ENDBRANCH   3   5
BRANCH   1  22
ATOM     19  N   UNL     1       5.724   5.569  17.223  0.00  0.00    +0.000 N 
ATOM     20  C   UNL     1       4.408   5.344  17.620  0.00  0.00    +0.000 A 
ATOM     21  C   UNL     1       3.795   6.226  18.469  0.00  0.00    +0.000 A 
ATOM     22  C   UNL     1       2.519   5.921  18.888  0.00  0.00    +0.000 A 
ATOM     23  N   UNL     1       1.818   4.840  18.495  0.00  0.00    +0.000 NA
ATOM     24  C   UNL     1       2.494   4.051  17.650  0.00  0.00    +0.000 A 
ATOM     25  N   UNL     1       3.753   4.239  17.213  0.00  0.00    +0.000 NA
BRANCH  19  26
ATOM     26  C   UNL     1       6.503   4.360  16.953  0.00  0.00    +0.000 C 
BRANCH  26  28
ATOM     27  C   UNL     1       5.980   4.035  14.438  0.00  0.00    +0.000 C 
ATOM     28  C   UNL     1       7.038   4.213  15.521  0.00  0.00    +0.000 C 
ENDBRANCH  26  28
ENDBRANCH  19  26
BRANCH  19  29
ATOM     29  C   UNL     1       6.120   6.904  16.770  0.00  0.00    +0.000 C 
BRANCH  29  30
ATOM     30  C   UNL     1       7.540   7.327  17.087  0.00  0.00    +0.000 C 
ATOM     31  C   UNL     1       8.034   8.560  17.908  0.00  0.00    +0.000 C 
ATOM     32  C   UNL     1       7.995   7.154  18.473  0.00  0.00    +0.000 C 
ENDBRANCH  29  30
ENDBRANCH  19  29
ENDBRANCH   1  22
TORSDOF 9
ENDMDL
MODEL 8
REMARK VINA RESULT:      -7.4      1.297      1.445
REMARK  Name = 
REMARK  10 active torsions:
REMARK  status: ('A' for Active; 'I' for Inactive)
REMARK    1  A    between atoms: C_1  and  C_2
REMARK    2  A    between atoms: C_2  and  C_3
REMARK    3  A    between atoms: C_3  and  N_4
REMARK    4  A    between atoms: N_4  and  C_5
REMARK    5  A    between atoms: C_5  and  C_6
REMARK    6  A    between atoms: C_11  and  C_12
REMARK    7  A    between atoms: N_14  and  C_15
REMARK    8  A    between atoms: N_22  and  C_23
REMARK    9  A    between atoms: C_23  and  C_24
REMARK   10  A    between atoms: C_24  and  O_26
REMARK                            x       y       z     vdW  Elec       q    Type
REMARK                         _______ _______ _______ _____ _____    ______ ____
ROOT
ATOM      1  C   UNL     1       1.292   8.740  19.801  0.00  0.00    +0.000 C 
ATOM      2  O   UNL     1       1.617   8.109  20.805  0.00  0.00    +0.000 OA
ATOM      3  N   UNL     1       1.723   8.489  18.510  0.00  0.00    +0.000 N 
ATOM      4  H   UNL     1       1.490   9.197  17.818  0.00  0.00    +0.000 HD
ENDROOT
BRANCH   3   5
ATOM      5  C   UNL     1       2.615   7.448  18.162  0.00  0.00    +0.000 A 
ATOM      6  C   UNL     1       3.927   7.710  17.741  0.00  0.00    +0.000 A 
ATOM      7  C   UNL     1       4.778   6.701  17.285  0.00  0.00    +0.000 A 
ATOM      8  C   UNL     1       4.274   5.402  17.275  0.00  0.00    +0.000 A 
ATOM      9  C   UNL     1       3.000   5.094  17.745  0.00  0.00    +0.000 A 
ATOM     10  C   UNL     1       2.905   3.693  17.586  0.00  0.00    +0.000 A 
ATOM     11  N   UNL     1       4.022   3.147  17.093  0.00  0.00    +0.000 NA
ATOM     12  N   UNL     1       4.808   4.214  16.838  0.00  0.00    +0.000 N 
ATOM     13  C   UNL     1       2.154   6.126  18.207  0.00  0.00    +0.000 A 
BRANCH  12  14
ATOM     14  C   UNL     1       6.045   4.028  16.117  0.00  0.00    +0.000 C 
BRANCH  14  15
ATOM     15  C   UNL     1       5.987   4.591  14.725  0.00  0.00    +0.000 C 
ATOM     16  O   UNL     1       5.282   4.118  13.841  0.00  0.00    +0.000 OA
BRANCH  15  17
ATOM     17  O   UNL     1       6.833   5.617  14.483  0.00  0.00    +0.000 OA
ATOM     18  H   UNL     1       7.783   5.368  14.464  0.00  0.00    +0.000 HD
ENDBRANCH  15  17
ENDBRANCH  14  15
ENDBRANCH  12  14
ENDBRANCH   3   5
BRANCH   1  22
ATOM     19  N   UNL     1      -2.403  11.415  18.243  0.00  0.00    +0.000 N 
ATOM     20  C   UNL     1      -1.403  11.181  19.183  0.00  0.00    +0.000 A 
ATOM     21  C   UNL     1      -0.520  10.151  18.993  0.00  0.00    +0.000 A 
ATOM     22  C   UNL     1       0.404   9.917  19.987  0.00  0.00    +0.000 A 
ATOM     23  N   UNL     1       0.528  10.649  21.112  0.00  0.00    +0.000 NA
ATOM     24  C   UNL     1      -0.365  11.644  21.195  0.00  0.00    +0.000 A 
ATOM     25  N   UNL     1      -1.330  11.930  20.301  0.00  0.00    +0.000 NA
BRANCH  19  26
ATOM     26  C   UNL     1      -3.642  11.976  18.785  0.00  0.00    +0.000 C 
BRANCH  26  28
ATOM     27  C   UNL     1      -6.008  11.690  17.772  0.00  0.00    +0.000 C 
ATOM     28  C   UNL     1      -4.895  11.102  18.632  0.00  0.00    +0.000 C 
ENDBRANCH  26  28
ENDBRANCH  19  26
BRANCH  19  29
ATOM     29  C   UNL     1      -2.061  11.437  16.819  0.00  0.00    +0.000 C 
BRANCH  29  30
ATOM     30  C   UNL     1      -3.078  10.830  15.875  0.00  0.00    +0.000 C 
ATOM     31  C   UNL     1      -2.847  10.164  14.482  0.00  0.00    +0.000 C 
ATOM     32  C   UNL     1      -3.084   9.366  15.748  0.00  0.00    +0.000 C 
ENDBRANCH  29  30
ENDBRANCH  19  29
ENDBRANCH   1  22
TORSDOF 9
ENDMDL
MODEL 9
REMARK VINA RESULT:      -7.4      3.383      9.598
REMARK  Name = 
REMARK  10 active torsions:
REMARK  status: ('A' for Active; 'I' for Inactive)
REMARK    1  A    between atoms: C_1  and  C_2
REMARK    2  A    between atoms: C_2  and  C_3
REMARK    3  A    between atoms: C_3  and  N_4
REMARK    4  A    between atoms: N_4  and  C_5
REMARK    5  A    between atoms: C_5  and  C_6
REMARK    6  A    between atoms: C_11  and  C_12
REMARK    7  A    between atoms: N_14  and  C_15
REMARK    8  A    between atoms: N_22  and  C_23
REMARK    9  A    between atoms: C_23  and  C_24
REMARK   10  A    between atoms: C_24  and  O_26
REMARK                            x       y       z     vdW  Elec       q    Type
REMARK                         _______ _______ _______ _____ _____    ______ ____
ROOT
ATOM      1  C   UNL     1       1.976   5.944  20.222  0.00  0.00    +0.000 C 
ATOM      2  O   UNL     1       0.888   5.463  20.531  0.00  0.00    +0.000 OA
ATOM      3  N   UNL     1       2.280   7.293  20.164  0.00  0.00    +0.000 N 
ATOM      4  H   UNL     1       3.172   7.531  19.739  0.00  0.00    +0.000 HD
ENDROOT
BRANCH   3   5
ATOM      5  C   UNL     1       1.358   8.325  20.459  0.00  0.00    +0.000 A 
ATOM      6  C   UNL     1       0.966   9.263  19.494  0.00  0.00    +0.000 A 
ATOM      7  C   UNL     1       0.148  10.352  19.804  0.00  0.00    +0.000 A 
ATOM      8  C   UNL     1      -0.281  10.468  21.124  0.00  0.00    +0.000 A 
ATOM      9  C   UNL     1       0.034   9.523  22.096  0.00  0.00    +0.000 A 
ATOM     10  C   UNL     1      -0.611   9.997  23.260  0.00  0.00    +0.000 A 
ATOM     11  N   UNL     1      -1.305  11.122  23.050  0.00  0.00    +0.000 NA
ATOM     12  N   UNL     1      -1.022  11.431  21.767  0.00  0.00    +0.000 N 
ATOM     13  C   UNL     1       0.858   8.424  21.764  0.00  0.00    +0.000 A 
BRANCH  12  14
ATOM     14  C   UNL     1      -1.452  12.700  21.231  0.00  0.00    +0.000 C 
BRANCH  14  15
ATOM     15  C   UNL     1      -0.390  13.758  21.342  0.00  0.00    +0.000 C 
ATOM     16  O   UNL     1       0.659  13.592  21.953  0.00  0.00    +0.000 OA
BRANCH  15  17
ATOM     17  O   UNL     1      -0.703  14.949  20.783  0.00  0.00    +0.000 OA
ATOM     18  H   UNL     1      -1.660  15.168  20.800  0.00  0.00    +0.000 HD
ENDBRANCH  15  17
ENDBRANCH  14  15
ENDBRANCH  12  14
ENDBRANCH   3   5
BRANCH   1  22
ATOM     19  N   UNL     1       5.843   5.023  17.495  0.00  0.00    +0.000 N 
ATOM     20  C   UNL     1       4.932   4.611  18.465  0.00  0.00    +0.000 A 
ATOM     21  C   UNL     1       3.883   5.425  18.800  0.00  0.00    +0.000 A 
ATOM     22  C   UNL     1       3.053   5.004  19.815  0.00  0.00    +0.000 A 
ATOM     23  N   UNL     1       3.175   3.836  20.475  0.00  0.00    +0.000 NA
ATOM     24  C   UNL     1       4.216   3.102  20.062  0.00  0.00    +0.000 A 
ATOM     25  N   UNL     1       5.106   3.440  19.110  0.00  0.00    +0.000 NA
BRANCH  19  26
ATOM     26  C   UNL     1       7.208   4.527  17.679  0.00  0.00    +0.000 C 
BRANCH  26  28
ATOM     27  C   UNL     1       7.963   6.849  18.542  0.00  0.00    +0.000 C 
ATOM     28  C   UNL     1       8.088   5.333  18.646  0.00  0.00    +0.000 C 
ENDBRANCH  26  28
ENDBRANCH  19  26
BRANCH  19  29
ATOM     29  C   UNL     1       5.348   5.580  16.235  0.00  0.00    +0.000 C 
BRANCH  29  30
ATOM     30  C   UNL     1       6.080   5.153  14.979  0.00  0.00    +0.000 C 
ATOM     31  C   UNL     1       6.343   3.711  14.440  0.00  0.00    +0.000 C 
ATOM     32  C   UNL     1       5.266   4.618  13.879  0.00  0.00    +0.000 C 
ENDBRANCH  29  30
ENDBRANCH  19  29
ENDBRANCH   1  22
TORSDOF 9
ENDMDL
