MODEL 1
REMARK VINA RESULT:      -8.6      0.000      0.000
REMARK  Name = 
REMARK  8 active torsions:
REMARK  status: ('A' for Active; 'I' for Inactive)
REMARK    1  A    between atoms: C_1  and  C_2
REMARK    2  A    between atoms: C_2  and  C_3
REMARK    3  A    between atoms: C_3  and  N_4
REMARK    4  A    between atoms: N_4  and  C_5
REMARK    5  A    between atoms: N_9  and  C_10
REMARK    6  A    between atoms: C_10  and  C_11
REMARK    7  A    between atoms: C_14  and  C_15
REMARK    8  A    between atoms: N_32  and  C_33
REMARK                            x       y       z     vdW  Elec       q    Type
REMARK                         _______ _______ _______ _____ _____    ______ ____
ROOT
ATOM      1  C   UNL     1       1.876   7.714  19.221  0.00  0.00    +0.000 A 
ATOM      2  C   UNL     1       2.756   6.698  18.919  0.00  0.00    +0.000 A 
ATOM      3  C   UNL     1       3.488   7.114  17.802  0.00  0.00    +0.000 A 
ATOM      4  N   UNL     1       3.192   8.357  17.445  0.00  0.00    +0.000 NA
ATOM      5  N   UNL     1       2.108   8.664  18.231  0.00  0.00    +0.000 N 
ATOM      6  N   UNL     1       4.289   6.205  17.225  0.00  0.00    +0.000 N 
ATOM      7  C   UNL     1       4.052   4.881  17.428  0.00  0.00    +0.000 C 
ATOM      8  N   UNL     1       4.777   4.040  16.734  0.00  0.00    +0.000 NA
ATOM      9  C   UNL     1       5.759   4.940  16.015  0.00  0.00    +0.000 C 
ATOM     10  C   UNL     1       7.172   4.629  16.506  0.00  0.00    +0.000 C 
ATOM     11  C   UNL     1       7.288   5.432  17.794  0.00  0.00    +0.000 C 
ATOM     12  C   UNL     1       6.645   6.764  17.425  0.00  0.00    +0.000 C 
ATOM     13  C   UNL     1       5.487   6.410  16.477  0.00  0.00    +0.000 C 
ATOM     14  N   UNL     1       3.120   4.456  18.348  0.00  0.00    +0.000 N 
ATOM     15  C   UNL     1       1.876   3.951  17.808  0.00  0.00    +0.000 C 
ATOM     16  C   UNL     1       2.904   5.343  19.395  0.00  0.00    +0.000 C 
ATOM     17  O   UNL     1       2.919   4.999  20.575  0.00  0.00    +0.000 OA
ENDROOT
BRANCH   1  18
ATOM     18  N   UNL     1       0.900   7.788  20.165  0.00  0.00    +0.000 N 
ATOM     19  H   UNL     1      -0.021   7.371  20.052  0.00  0.00    +0.000 HD
BRANCH  18  20
ATOM     20  C   UNL     1       1.133   8.439  21.451  0.00  0.00    +0.000 C 
BRANCH  20  22
ATOM     21  C   UNL     1       0.074   9.573  23.442  0.00  0.00    +0.000 C 
ATOM     22  C   UNL     1      -0.170   8.825  22.140  0.00  0.00    +0.000 C 
ENDBRANCH  20  22
ENDBRANCH  18  20
ENDBRANCH   1  18
BRANCH   5  23
ATOM     23  C   UNL     1       1.323   9.803  17.754  0.00  0.00    +0.000 C 
BRANCH  23  24
ATOM     24  C   UNL     1       0.676  10.726  18.749  0.00  0.00    +0.000 A 
ATOM     25  C   UNL     1      -0.717  10.756  18.856  0.00  0.00    +0.000 A 
ATOM     26  C   UNL     1      -1.326  11.475  19.890  0.00  0.00    +0.000 A 
ATOM     27  C   UNL     1      -0.569  12.173  20.846  0.00  0.00    +0.000 A 
ATOM     28  C   UNL     1       0.824  12.214  20.665  0.00  0.00    +0.000 A 
ATOM     29  C   UNL     1       1.440  11.492  19.633  0.00  0.00    +0.000 A 
BRANCH  27  30
ATOM     30  C   UNL     1      -1.211  12.782  22.028  0.00  0.00    +0.000 A 
ATOM     31  C   UNL     1      -0.680  13.925  22.641  0.00  0.00    +0.000 A 
ATOM     32  C   UNL     1      -1.333  14.489  23.731  0.00  0.00    +0.000 A 
ATOM     33  C   UNL     1      -2.501  13.899  24.189  0.00  0.00    +0.000 A 
ATOM     34  C   UNL     1      -2.965  12.775  23.528  0.00  0.00    +0.000 A 
ATOM     35  F   UNL     1      -4.093  12.202  23.973  0.00  0.00    +0.000 F 
ATOM     36  N   UNL     1      -2.358  12.210  22.462  0.00  0.00    +0.000 NA
ENDBRANCH  27  30
ENDBRANCH  23  24
ENDBRANCH   5  23
TORSDOF 6
ENDMDL
MODEL 2
REMARK VINA RESULT:      -8.6      0.891      1.119
REMARK  Name = 
REMARK  8 active torsions:
REMARK  status: ('A' for Active; 'I' for Inactive)
REMARK    1  A    between atoms: C_1  and  C_2
REMARK    2  A    between atoms: C_2  and  C_3
REMARK    3  A    between atoms: C_3  and  N_4
REMARK    4  A    between atoms: N_4  and  C_5
REMARK    5  A    between atoms: N_9  and  C_10
REMARK    6  A    between atoms: C_10  and  C_11
REMARK    7  A    between atoms: C_14  and  C_15
REMARK    8  A    between atoms: N_32  and  C_33
REMARK                            x       y       z     vdW  Elec       q    Type
REMARK                         _______ _______ _______ _____ _____    ______ ____
ROOT
ATOM      1  C   UNL     1       1.858   7.789  19.199  0.00  0.00    +0.000 A 
ATOM      2  C   UNL     1       2.721   6.757  18.905  0.00  0.00    +0.000 A 
ATOM      3  C   UNL     1       3.487   7.168  17.809  0.00  0.00    +0.000 A 
ATOM      4  N   UNL     1       3.227   8.421  17.460  0.00  0.00    +0.000 NA
ATOM      5  N   UNL     1       2.133   8.744  18.225  0.00  0.00    +0.000 N 
ATOM      6  N   UNL     1       4.280   6.247  17.240  0.00  0.00    +0.000 N 
ATOM      7  C   UNL     1       4.009   4.927  17.423  0.00  0.00    +0.000 C 
ATOM      8  N   UNL     1       4.730   4.077  16.736  0.00  0.00    +0.000 NA
ATOM      9  C   UNL     1       5.748   4.962  16.049  0.00  0.00    +0.000 C 
ATOM     10  C   UNL     1       7.142   4.613  16.567  0.00  0.00    +0.000 C 
ATOM     11  C   UNL     1       7.247   5.400  17.867  0.00  0.00    +0.000 C 
ATOM     12  C   UNL     1       6.643   6.750  17.499  0.00  0.00    +0.000 C 
ATOM     13  C   UNL     1       5.499   6.432  16.521  0.00  0.00    +0.000 C 
ATOM     14  N   UNL     1       3.047   4.513  18.317  0.00  0.00    +0.000 N 
ATOM     15  C   UNL     1       1.805   4.042  17.744  0.00  0.00    +0.000 C 
ATOM     16  C   UNL     1       2.827   5.393  19.369  0.00  0.00    +0.000 C 
ATOM     17  O   UNL     1       2.809   5.036  20.546  0.00  0.00    +0.000 OA
ENDROOT
BRANCH   1  18
ATOM     18  N   UNL     1       0.862   7.874  20.122  0.00  0.00    +0.000 N 
ATOM     19  H   UNL     1      -0.084   7.541  19.957  0.00  0.00    +0.000 HD
BRANCH  18  20
ATOM     20  C   UNL     1       1.107   8.414  21.457  0.00  0.00    +0.000 C 
BRANCH  20  22
ATOM     21  C   UNL     1       0.033   9.618  23.398  0.00  0.00    +0.000 C 
ATOM     22  C   UNL     1      -0.190   8.705  22.202  0.00  0.00    +0.000 C 
ENDBRANCH  20  22
ENDBRANCH  18  20
ENDBRANCH   1  18
BRANCH   5  23
ATOM     23  C   UNL     1       1.385   9.905  17.744  0.00  0.00    +0.000 C 
BRANCH  23  24
ATOM     24  C   UNL     1       0.678  10.793  18.731  0.00  0.00    +0.000 A 
ATOM     25  C   UNL     1      -0.718  10.775  18.797  0.00  0.00    +0.000 A 
ATOM     26  C   UNL     1      -1.380  11.460  19.821  0.00  0.00    +0.000 A 
ATOM     27  C   UNL     1      -0.676  12.170  20.807  0.00  0.00    +0.000 A 
ATOM     28  C   UNL     1       0.720  12.260  20.669  0.00  0.00    +0.000 A 
ATOM     29  C   UNL     1       1.390  11.572  19.647  0.00  0.00    +0.000 A 
BRANCH  27  30
ATOM     30  C   UNL     1      -1.372  12.742  21.978  0.00  0.00    +0.000 A 
ATOM     31  C   UNL     1      -2.609  12.246  22.407  0.00  0.00    +0.000 A 
ATOM     32  C   UNL     1      -3.215  12.787  23.535  0.00  0.00    +0.000 A 
ATOM     33  C   UNL     1      -2.574  13.814  24.210  0.00  0.00    +0.000 A 
ATOM     34  C   UNL     1      -1.351  14.247  23.728  0.00  0.00    +0.000 A 
ATOM     35  F   UNL     1      -0.733  15.242  24.378  0.00  0.00    +0.000 F 
ATOM     36  N   UNL     1      -0.734  13.734  22.641  0.00  0.00    +0.000 NA
ENDBRANCH  27  30
ENDBRANCH  23  24
ENDBRANCH   5  23
TORSDOF 6
ENDMDL
MODEL 3
REMARK VINA RESULT:      -8.5      2.170      2.984
REMARK  Name = 
REMARK  8 active torsions:
REMARK  status: ('A' for Active; 'I' for Inactive)
REMARK    1  A    between atoms: C_1  and  C_2
REMARK    2  A    between atoms: C_2  and  C_3
REMARK    3  A    between atoms: C_3  and  N_4
REMARK    4  A    between atoms: N_4  and  C_5
REMARK    5  A    between atoms: N_9  and  C_10
REMARK    6  A    between atoms: C_10  and  C_11
REMARK    7  A    between atoms: C_14  and  C_15
REMARK    8  A    between atoms: N_32  and  C_33
REMARK                            x       y       z     vdW  Elec       q    Type
REMARK                         _______ _______ _______ _____ _____    ______ ____
ROOT
ATOM      1  C   UNL     1       1.812   8.027  19.513  0.00  0.00    +0.000 A 
ATOM      2  C   UNL     1       2.530   6.909  19.150  0.00  0.00    +0.000 A 
ATOM      3  C   UNL     1       3.308   7.267  18.045  0.00  0.00    +0.000 A 
ATOM      4  N   UNL     1       3.197   8.556  17.752  0.00  0.00    +0.000 NA
ATOM      5  N   UNL     1       2.176   8.980  18.566  0.00  0.00    +0.000 N 
ATOM      6  N   UNL     1       3.962   6.279  17.414  0.00  0.00    +0.000 N 
ATOM      7  C   UNL     1       3.533   4.996  17.557  0.00  0.00    +0.000 C 
ATOM      8  N   UNL     1       4.122   4.093  16.814  0.00  0.00    +0.000 NA
ATOM      9  C   UNL     1       5.221   4.873  16.125  0.00  0.00    +0.000 C 
ATOM     10  C   UNL     1       6.575   4.332  16.581  0.00  0.00    +0.000 C 
ATOM     11  C   UNL     1       6.817   5.046  17.904  0.00  0.00    +0.000 C 
ATOM     12  C   UNL     1       6.376   6.474  17.608  0.00  0.00    +0.000 C 
ATOM     13  C   UNL     1       5.172   6.341  16.660  0.00  0.00    +0.000 C 
ATOM     14  N   UNL     1       2.555   4.668  18.468  0.00  0.00    +0.000 N 
ATOM     15  C   UNL     1       1.246   4.379  17.922  0.00  0.00    +0.000 C 
ATOM     16  C   UNL     1       2.479   5.525  19.559  0.00  0.00    +0.000 C 
ATOM     17  O   UNL     1       2.451   5.125  20.722  0.00  0.00    +0.000 OA
ENDROOT
BRANCH   1  18
ATOM     18  N   UNL     1       0.863   8.198  20.472  0.00  0.00    +0.000 N 
ATOM     19  H   UNL     1      -0.046   7.743  20.447  0.00  0.00    +0.000 HD
BRANCH  18  20
ATOM     20  C   UNL     1       1.114   9.020  21.653  0.00  0.00    +0.000 C 
BRANCH  20  22
ATOM     21  C   UNL     1      -0.555  10.546  22.772  0.00  0.00    +0.000 C 
ATOM     22  C   UNL     1      -0.108   9.108  22.558  0.00  0.00    +0.000 C 
ENDBRANCH  20  22
ENDBRANCH  18  20
ENDBRANCH   1  18
BRANCH   5  23
ATOM     23  C   UNL     1       1.564  10.245  18.155  0.00  0.00    +0.000 C 
BRANCH  23  24
ATOM     24  C   UNL     1       0.088  10.452  18.347  0.00  0.00    +0.000 A 
ATOM     25  C   UNL     1      -0.361  11.461  19.204  0.00  0.00    +0.000 A 
ATOM     26  C   UNL     1      -1.722  11.779  19.260  0.00  0.00    +0.000 A 
ATOM     27  C   UNL     1      -2.667  11.113  18.463  0.00  0.00    +0.000 A 
ATOM     28  C   UNL     1      -2.213  10.036  17.683  0.00  0.00    +0.000 A 
ATOM     29  C   UNL     1      -0.850   9.714  17.619  0.00  0.00    +0.000 A 
BRANCH  27  30
ATOM     30  C   UNL     1      -4.070  11.572  18.401  0.00  0.00    +0.000 A 
ATOM     31  C   UNL     1      -4.749  11.682  17.181  0.00  0.00    +0.000 A 
ATOM     32  C   UNL     1      -6.080  12.084  17.167  0.00  0.00    +0.000 A 
ATOM     33  C   UNL     1      -6.704  12.370  18.371  0.00  0.00    +0.000 A 
ATOM     34  C   UNL     1      -5.968  12.232  19.535  0.00  0.00    +0.000 A 
ATOM     35  F   UNL     1      -6.571  12.511  20.700  0.00  0.00    +0.000 F 
ATOM     36  N   UNL     1      -4.678  11.835  19.581  0.00  0.00    +0.000 NA
ENDBRANCH  27  30
ENDBRANCH  23  24
ENDBRANCH   5  23
TORSDOF 6
ENDMDL
MODEL 4
REMARK VINA RESULT:      -8.5      2.622      3.447
REMARK  Name = 
REMARK  8 active torsions:
REMARK  status: ('A' for Active; 'I' for Inactive)
REMARK    1  A    between atoms: C_1  and  C_2
REMARK    2  A    between atoms: C_2  and  C_3
REMARK    3  A    between atoms: C_3  and  N_4
REMARK    4  A    between atoms: N_4  and  C_5
REMARK    5  A    between atoms: N_9  and  C_10
REMARK    6  A    between atoms: C_10  and  C_11
REMARK    7  A    between atoms: C_14  and  C_15
REMARK    8  A    between atoms: N_32  and  C_33
REMARK                            x       y       z     vdW  Elec       q    Type
REMARK                         _______ _______ _______ _____ _____    ______ ____
ROOT
ATOM      1  C   UNL     1       1.858   8.016  19.394  0.00  0.00    +0.000 A 
ATOM      2  C   UNL     1       2.633   6.939  19.025  0.00  0.00    +0.000 A 
ATOM      3  C   UNL     1       3.350   7.325  17.887  0.00  0.00    +0.000 A 
ATOM      4  N   UNL     1       3.147   8.599  17.578  0.00  0.00    +0.000 NA
ATOM      5  N   UNL     1       2.128   8.972  18.420  0.00  0.00    +0.000 N 
ATOM      6  N   UNL     1       4.044   6.370  17.250  0.00  0.00    +0.000 N 
ATOM      7  C   UNL     1       3.703   5.065  17.428  0.00  0.00    +0.000 C 
ATOM      8  N   UNL     1       4.323   4.187  16.680  0.00  0.00    +0.000 NA
ATOM      9  C   UNL     1       5.346   5.023  15.942  0.00  0.00    +0.000 C 
ATOM     10  C   UNL     1       6.747   4.577  16.359  0.00  0.00    +0.000 C 
ATOM     11  C   UNL     1       6.987   5.328  17.662  0.00  0.00    +0.000 C 
ATOM     12  C   UNL     1       6.446   6.720  17.359  0.00  0.00    +0.000 C 
ATOM     13  C   UNL     1       5.222   6.495  16.455  0.00  0.00    +0.000 C 
ATOM     14  N   UNL     1       2.778   4.692  18.377  0.00  0.00    +0.000 N 
ATOM     15  C   UNL     1       1.473   4.311  17.881  0.00  0.00    +0.000 C 
ATOM     16  C   UNL     1       2.684   5.561  19.457  0.00  0.00    +0.000 C 
ATOM     17  O   UNL     1       2.720   5.182  20.626  0.00  0.00    +0.000 OA
ENDROOT
BRANCH   1  18
ATOM     18  N   UNL     1       0.932   8.143  20.382  0.00  0.00    +0.000 N 
ATOM     19  H   UNL     1      -0.037   7.852  20.283  0.00  0.00    +0.000 HD
BRANCH  18  20
ATOM     20  C   UNL     1       1.291   8.668  21.697  0.00  0.00    +0.000 C 
BRANCH  20  22
ATOM     21  C   UNL     1      -0.154   9.552  23.568  0.00  0.00    +0.000 C 
ATOM     22  C   UNL     1       0.345   9.773  22.148  0.00  0.00    +0.000 C 
ENDBRANCH  20  22
ENDBRANCH  18  20
ENDBRANCH   1  18
BRANCH   5  23
ATOM     23  C   UNL     1       1.424  10.188  18.010  0.00  0.00    +0.000 C 
BRANCH  23  24
ATOM     24  C   UNL     1      -0.073  10.254  18.129  0.00  0.00    +0.000 A 
ATOM     25  C   UNL     1      -0.653  11.105  19.074  0.00  0.00    +0.000 A 
ATOM     26  C   UNL     1      -2.037  11.308  19.080  0.00  0.00    +0.000 A 
ATOM     27  C   UNL     1      -2.877  10.680  18.145  0.00  0.00    +0.000 A 
ATOM     28  C   UNL     1      -2.290   9.752  17.268  0.00  0.00    +0.000 A 
ATOM     29  C   UNL     1      -0.903   9.548  17.254  0.00  0.00    +0.000 A 
BRANCH  27  30
ATOM     30  C   UNL     1      -4.307  11.034  18.048  0.00  0.00    +0.000 A 
ATOM     31  C   UNL     1      -5.293  10.276  18.694  0.00  0.00    +0.000 A 
ATOM     32  C   UNL     1      -6.626  10.663  18.608  0.00  0.00    +0.000 A 
ATOM     33  C   UNL     1      -6.947  11.795  17.876  0.00  0.00    +0.000 A 
ATOM     34  C   UNL     1      -5.917  12.494  17.271  0.00  0.00    +0.000 A 
ATOM     35  F   UNL     1      -6.228  13.587  16.560  0.00  0.00    +0.000 F 
ATOM     36  N   UNL     1      -4.613  12.149  17.345  0.00  0.00    +0.000 NA
ENDBRANCH  27  30
ENDBRANCH  23  24
ENDBRANCH   5  23
TORSDOF 6
ENDMDL
MODEL 5
REMARK VINA RESULT:      -8.3      2.258      2.773
REMARK  Name = 
REMARK  8 active torsions:
REMARK  status: ('A' for Active; 'I' for Inactive)
REMARK    1  A    between atoms: C_1  and  C_2
REMARK    2  A    between atoms: C_2  and  C_3
REMARK    3  A    between atoms: C_3  and  N_4
REMARK    4  A    between atoms: N_4  and  C_5
REMARK    5  A    between atoms: N_9  and  C_10
REMARK    6  A    between atoms: C_10  and  C_11
REMARK    7  A    between atoms: C_14  and  C_15
REMARK    8  A    between atoms: N_32  and  C_33
REMARK                            x       y       z     vdW  Elec       q    Type
REMARK                         _______ _______ _______ _____ _____    ______ ____
ROOT
ATOM      1  C   UNL     1       1.872   8.022  19.284  0.00  0.00    +0.000 A 
ATOM      2  C   UNL     1       2.640   6.922  18.971  0.00  0.00    +0.000 A 
ATOM      3  C   UNL     1       3.438   7.283  17.880  0.00  0.00    +0.000 A 
ATOM      4  N   UNL     1       3.290   8.560  17.553  0.00  0.00    +0.000 NA
ATOM      5  N   UNL     1       2.230   8.965  18.326  0.00  0.00    +0.000 N 
ATOM      6  N   UNL     1       4.146   6.305  17.293  0.00  0.00    +0.000 N 
ATOM      7  C   UNL     1       3.759   5.011  17.455  0.00  0.00    +0.000 C 
ATOM      8  N   UNL     1       4.401   4.112  16.752  0.00  0.00    +0.000 NA
ATOM      9  C   UNL     1       5.492   4.915  16.077  0.00  0.00    +0.000 C 
ATOM     10  C   UNL     1       6.851   4.435  16.586  0.00  0.00    +0.000 C 
ATOM     11  C   UNL     1       7.027   5.187  17.898  0.00  0.00    +0.000 C 
ATOM     12  C   UNL     1       6.544   6.592  17.554  0.00  0.00    +0.000 C 
ATOM     13  C   UNL     1       5.375   6.393  16.574  0.00  0.00    +0.000 C 
ATOM     14  N   UNL     1       2.765   4.669  18.344  0.00  0.00    +0.000 N 
ATOM     15  C   UNL     1       1.485   4.320  17.767  0.00  0.00    +0.000 C 
ATOM     16  C   UNL     1       2.625   5.547  19.411  0.00  0.00    +0.000 C 
ATOM     17  O   UNL     1       2.576   5.174  20.582  0.00  0.00    +0.000 OA
ENDROOT
BRANCH   1  18
ATOM     18  N   UNL     1       0.889   8.180  20.211  0.00  0.00    +0.000 N 
ATOM     19  H   UNL     1      -0.050   7.804  20.101  0.00  0.00    +0.000 HD
BRANCH  18  20
ATOM     20  C   UNL     1       1.138   8.869  21.475  0.00  0.00    +0.000 C 
BRANCH  20  22
ATOM     21  C   UNL     1      -0.394  10.367  22.807  0.00  0.00    +0.000 C 
ATOM     22  C   UNL     1      -0.114   8.947  22.339  0.00  0.00    +0.000 C 
ENDBRANCH  20  22
ENDBRANCH  18  20
ENDBRANCH   1  18
BRANCH   5  23
ATOM     23  C   UNL     1       1.587  10.197  17.866  0.00  0.00    +0.000 C 
BRANCH  23  24
ATOM     24  C   UNL     1       0.180  10.503  18.296  0.00  0.00    +0.000 A 
ATOM     25  C   UNL     1      -0.048  11.503  19.247  0.00  0.00    +0.000 A 
ATOM     26  C   UNL     1      -1.353  11.919  19.528  0.00  0.00    +0.000 A 
ATOM     27  C   UNL     1      -2.462  11.361  18.870  0.00  0.00    +0.000 A 
ATOM     28  C   UNL     1      -2.222  10.291  17.992  0.00  0.00    +0.000 A 
ATOM     29  C   UNL     1      -0.916   9.872  17.702  0.00  0.00    +0.000 A 
BRANCH  27  30
ATOM     30  C   UNL     1      -3.815  11.925  19.046  0.00  0.00    +0.000 A 
ATOM     31  C   UNL     1      -4.174  12.616  20.210  0.00  0.00    +0.000 A 
ATOM     32  C   UNL     1      -5.447  13.163  20.323  0.00  0.00    +0.000 A 
ATOM     33  C   UNL     1      -6.337  13.006  19.271  0.00  0.00    +0.000 A 
ATOM     34  C   UNL     1      -5.907  12.316  18.151  0.00  0.00    +0.000 A 
ATOM     35  F   UNL     1      -6.768  12.162  17.135  0.00  0.00    +0.000 F 
ATOM     36  N   UNL     1      -4.674  11.782  18.009  0.00  0.00    +0.000 NA
ENDBRANCH  27  30
ENDBRANCH  23  24
ENDBRANCH   5  23
TORSDOF 6
ENDMDL
MODEL 6
REMARK VINA RESULT:      -8.1      2.822      3.318
REMARK  Name = 
REMARK  8 active torsions:
REMARK  status: ('A' for Active; 'I' for Inactive)
REMARK    1  A    between atoms: C_1  and  C_2
REMARK    2  A    between atoms: C_2  and  C_3
REMARK    3  A    between atoms: C_3  and  N_4
REMARK    4  A    between atoms: N_4  and  C_5
REMARK    5  A    between atoms: N_9  and  C_10
REMARK    6  A    between atoms: C_10  and  C_11
REMARK    7  A    between atoms: C_14  and  C_15
REMARK    8  A    between atoms: N_32  and  C_33
REMARK                            x       y       z     vdW  Elec       q    Type
REMARK                         _______ _______ _______ _____ _____    ______ ____
ROOT
ATOM      1  C   UNL     1       1.952   7.437  19.530  0.00  0.00    +0.000 A 
ATOM      2  C   UNL     1       2.829   6.480  19.068  0.00  0.00    +0.000 A 
ATOM      3  C   UNL     1       3.407   6.989  17.900  0.00  0.00    +0.000 A 
ATOM      4  N   UNL     1       3.022   8.234  17.654  0.00  0.00    +0.000 NA
ATOM      5  N   UNL     1       2.028   8.448  18.576  0.00  0.00    +0.000 N 
ATOM      6  N   UNL     1       4.170   6.150  17.182  0.00  0.00    +0.000 N 
ATOM      7  C   UNL     1       4.011   4.808  17.333  0.00  0.00    +0.000 C 
ATOM      8  N   UNL     1       4.681   4.039  16.512  0.00  0.00    +0.000 NA
ATOM      9  C   UNL     1       5.534   5.021  15.738  0.00  0.00    +0.000 C 
ATOM     10  C   UNL     1       7.007   4.749  16.042  0.00  0.00    +0.000 C 
ATOM     11  C   UNL     1       7.243   5.486  17.353  0.00  0.00    +0.000 C 
ATOM     12  C   UNL     1       6.509   6.805  17.140  0.00  0.00    +0.000 C 
ATOM     13  C   UNL     1       5.262   6.449  16.313  0.00  0.00    +0.000 C 
ATOM     14  N   UNL     1       3.211   4.291  18.328  0.00  0.00    +0.000 N 
ATOM     15  C   UNL     1       1.933   3.759  17.907  0.00  0.00    +0.000 C 
ATOM     16  C   UNL     1       3.086   5.109  19.443  0.00  0.00    +0.000 C 
ATOM     17  O   UNL     1       3.254   4.704  20.592  0.00  0.00    +0.000 OA
ENDROOT
BRANCH   1  18
ATOM     18  N   UNL     1       1.092   7.415  20.582  0.00  0.00    +0.000 N 
ATOM     19  H   UNL     1       0.423   6.666  20.744  0.00  0.00    +0.000 HD
BRANCH  18  20
ATOM     20  C   UNL     1       1.110   8.461  21.602  0.00  0.00    +0.000 C 
BRANCH  20  22
ATOM     21  C   UNL     1      -0.274   9.858  23.184  0.00  0.00    +0.000 C 
ATOM     22  C   UNL     1      -0.295   8.853  22.042  0.00  0.00    +0.000 C 
ENDBRANCH  20  22
ENDBRANCH  18  20
ENDBRANCH   1  18
BRANCH   5  23
ATOM     23  C   UNL     1       1.148   9.574  18.262  0.00  0.00    +0.000 C 
BRANCH  23  24
ATOM     24  C   UNL     1       1.511  10.954  18.734  0.00  0.00    +0.000 A 
ATOM     25  C   UNL     1       2.374  11.741  17.966  0.00  0.00    +0.000 A 
ATOM     26  C   UNL     1       2.584  13.083  18.299  0.00  0.00    +0.000 A 
ATOM     27  C   UNL     1       1.938  13.679  19.395  0.00  0.00    +0.000 A 
ATOM     28  C   UNL     1       1.153  12.849  20.214  0.00  0.00    +0.000 A 
ATOM     29  C   UNL     1       0.935  11.504  19.883  0.00  0.00    +0.000 A 
BRANCH  27  30
ATOM     30  C   UNL     1       2.029  15.133  19.635  0.00  0.00    +0.000 A 
ATOM     31  C   UNL     1       2.441  15.646  20.872  0.00  0.00    +0.000 A 
ATOM     32  C   UNL     1       2.549  17.021  21.047  0.00  0.00    +0.000 A 
ATOM     33  C   UNL     1       2.239  17.856  19.984  0.00  0.00    +0.000 A 
ATOM     34  C   UNL     1       1.845  17.274  18.792  0.00  0.00    +0.000 A 
ATOM     35  F   UNL     1       1.543  18.081  17.765  0.00  0.00    +0.000 F 
ATOM     36  N   UNL     1       1.741  15.942  18.589  0.00  0.00    +0.000 NA
ENDBRANCH  27  30
ENDBRANCH  23  24
ENDBRANCH   5  23
TORSDOF 6
ENDMDL
MODEL 7
REMARK VINA RESULT:      -8.1      1.031      1.392
REMARK  Name = 
REMARK  8 active torsions:
REMARK  status: ('A' for Active; 'I' for Inactive)
REMARK    1  A    between atoms: C_1  and  C_2
REMARK    2  A    between atoms: C_2  and  C_3
REMARK    3  A    between atoms: C_3  and  N_4
REMARK    4  A    between atoms: N_4  and  C_5
REMARK    5  A    between atoms: N_9  and  C_10
REMARK    6  A    between atoms: C_10  and  C_11
REMARK    7  A    between atoms: C_14  and  C_15
REMARK    8  A    between atoms: N_32  and  C_33
REMARK                            x       y       z     vdW  Elec       q    Type
REMARK                         _______ _______ _______ _____ _____    ______ ____
ROOT
ATOM      1  C   UNL     1       1.909   7.569  19.361  0.00  0.00    +0.000 A 
ATOM      2  C   UNL     1       2.786   6.572  18.995  0.00  0.00    +0.000 A 
ATOM      3  C   UNL     1       3.499   7.045  17.889  0.00  0.00    +0.000 A 
ATOM      4  N   UNL     1       3.195   8.304  17.598  0.00  0.00    +0.000 NA
ATOM      5  N   UNL     1       2.123   8.568  18.415  0.00  0.00    +0.000 N 
ATOM      6  N   UNL     1       4.293   6.169  17.255  0.00  0.00    +0.000 N 
ATOM      7  C   UNL     1       4.063   4.835  17.396  0.00  0.00    +0.000 C 
ATOM      8  N   UNL     1       4.779   4.032  16.651  0.00  0.00    +0.000 NA
ATOM      9  C   UNL     1       5.747   4.970  15.962  0.00  0.00    +0.000 C 
ATOM     10  C   UNL     1       7.168   4.638  16.414  0.00  0.00    +0.000 C 
ATOM     11  C   UNL     1       7.303   5.377  17.738  0.00  0.00    +0.000 C 
ATOM     12  C   UNL     1       6.651   6.724  17.446  0.00  0.00    +0.000 C 
ATOM     13  C   UNL     1       5.479   6.413  16.499  0.00  0.00    +0.000 C 
ATOM     14  N   UNL     1       3.146   4.362  18.308  0.00  0.00    +0.000 N 
ATOM     15  C   UNL     1       1.895   3.880  17.763  0.00  0.00    +0.000 C 
ATOM     16  C   UNL     1       2.944   5.195  19.401  0.00  0.00    +0.000 C 
ATOM     17  O   UNL     1       2.979   4.794  20.563  0.00  0.00    +0.000 OA
ENDROOT
BRANCH   1  18
ATOM     18  N   UNL     1       0.947   7.593  20.322  0.00  0.00    +0.000 N 
ATOM     19  H   UNL     1       0.073   7.077  20.253  0.00  0.00    +0.000 HD
BRANCH  18  20
ATOM     20  C   UNL     1       1.132   8.336  21.566  0.00  0.00    +0.000 C 
BRANCH  20  22
ATOM     21  C   UNL     1      -0.045   9.731  23.308  0.00  0.00    +0.000 C 
ATOM     22  C   UNL     1      -0.193   8.654  22.245  0.00  0.00    +0.000 C 
ENDBRANCH  20  22
ENDBRANCH  18  20
ENDBRANCH   1  18
BRANCH   5  23
ATOM     23  C   UNL     1       1.328   9.727  18.008  0.00  0.00    +0.000 C 
BRANCH  23  24
ATOM     24  C   UNL     1       0.630  10.551  19.053  0.00  0.00    +0.000 A 
ATOM     25  C   UNL     1       1.381  11.378  19.893  0.00  0.00    +0.000 A 
ATOM     26  C   UNL     1       0.738  12.279  20.749  0.00  0.00    +0.000 A 
ATOM     27  C   UNL     1      -0.662  12.386  20.787  0.00  0.00    +0.000 A 
ATOM     28  C   UNL     1      -1.403  11.479  20.010  0.00  0.00    +0.000 A 
ATOM     29  C   UNL     1      -0.764  10.578  19.146  0.00  0.00    +0.000 A 
BRANCH  27  30
ATOM     30  C   UNL     1      -1.323  13.455  21.562  0.00  0.00    +0.000 A 
ATOM     31  C   UNL     1      -2.396  14.184  21.035  0.00  0.00    +0.000 A 
ATOM     32  C   UNL     1      -3.016  15.159  21.810  0.00  0.00    +0.000 A 
ATOM     33  C   UNL     1      -2.548  15.387  23.094  0.00  0.00    +0.000 A 
ATOM     34  C   UNL     1      -1.486  14.622  23.547  0.00  0.00    +0.000 A 
ATOM     35  F   UNL     1      -1.032  14.845  24.788  0.00  0.00    +0.000 F 
ATOM     36  N   UNL     1      -0.872  13.663  22.821  0.00  0.00    +0.000 NA
ENDBRANCH  27  30
ENDBRANCH  23  24
ENDBRANCH   5  23
TORSDOF 6
ENDMDL
MODEL 8
REMARK VINA RESULT:      -8.1      0.900      1.226
REMARK  Name = 
REMARK  8 active torsions:
REMARK  status: ('A' for Active; 'I' for Inactive)
REMARK    1  A    between atoms: C_1  and  C_2
REMARK    2  A    between atoms: C_2  and  C_3
REMARK    3  A    between atoms: C_3  and  N_4
REMARK    4  A    between atoms: N_4  and  C_5
REMARK    5  A    between atoms: N_9  and  C_10
REMARK    6  A    between atoms: C_10  and  C_11
REMARK    7  A    between atoms: C_14  and  C_15
REMARK    8  A    between atoms: N_32  and  C_33
REMARK                            x       y       z     vdW  Elec       q    Type
REMARK                         _______ _______ _______ _____ _____    ______ ____
ROOT
ATOM      1  C   UNL     1       2.009   7.597  19.231  0.00  0.00    +0.000 A 
ATOM      2  C   UNL     1       2.878   6.573  18.924  0.00  0.00    +0.000 A 
ATOM      3  C   UNL     1       3.660   7.012  17.851  0.00  0.00    +0.000 A 
ATOM      4  N   UNL     1       3.404   8.274  17.529  0.00  0.00    +0.000 NA
ATOM      5  N   UNL     1       2.298   8.576  18.285  0.00  0.00    +0.000 N 
ATOM      6  N   UNL     1       4.463   6.107  17.270  0.00  0.00    +0.000 N 
ATOM      7  C   UNL     1       4.191   4.782  17.416  0.00  0.00    +0.000 C 
ATOM      8  N   UNL     1       4.924   3.950  16.720  0.00  0.00    +0.000 NA
ATOM      9  C   UNL     1       5.950   4.854  16.070  0.00  0.00    +0.000 C 
ATOM     10  C   UNL     1       7.337   4.493  16.601  0.00  0.00    +0.000 C 
ATOM     11  C   UNL     1       7.421   5.247  17.921  0.00  0.00    +0.000 C 
ATOM     12  C   UNL     1       6.821   6.605  17.578  0.00  0.00    +0.000 C 
ATOM     13  C   UNL     1       5.692   6.311  16.575  0.00  0.00    +0.000 C 
ATOM     14  N   UNL     1       3.216   4.345  18.285  0.00  0.00    +0.000 N 
ATOM     15  C   UNL     1       1.983   3.888  17.681  0.00  0.00    +0.000 C 
ATOM     16  C   UNL     1       2.979   5.198  19.355  0.00  0.00    +0.000 C 
ATOM     17  O   UNL     1       2.942   4.812  20.522  0.00  0.00    +0.000 OA
ENDROOT
BRANCH   1  18
ATOM     18  N   UNL     1       0.999   7.659  20.139  0.00  0.00    +0.000 N 
ATOM     19  H   UNL     1       0.099   7.205  20.008  0.00  0.00    +0.000 HD
BRANCH  18  20
ATOM     20  C   UNL     1       1.165   8.351  21.415  0.00  0.00    +0.000 C 
BRANCH  20  22
ATOM     21  C   UNL     1      -0.003   9.633  23.247  0.00  0.00    +0.000 C 
ATOM     22  C   UNL     1      -0.172   8.723  22.041  0.00  0.00    +0.000 C 
ENDBRANCH  20  22
ENDBRANCH  18  20
ENDBRANCH   1  18
BRANCH   5  23
ATOM     23  C   UNL     1       1.556   9.749  17.822  0.00  0.00    +0.000 C 
BRANCH  23  24
ATOM     24  C   UNL     1       0.609  10.445  18.759  0.00  0.00    +0.000 A 
ATOM     25  C   UNL     1       1.111  11.348  19.701  0.00  0.00    +0.000 A 
ATOM     26  C   UNL     1       0.234  12.130  20.460  0.00  0.00    +0.000 A 
ATOM     27  C   UNL     1      -1.158  12.043  20.298  0.00  0.00    +0.000 A 
ATOM     28  C   UNL     1      -1.648  11.062  19.419  0.00  0.00    +0.000 A 
ATOM     29  C   UNL     1      -0.774  10.277  18.652  0.00  0.00    +0.000 A 
BRANCH  27  30
ATOM     30  C   UNL     1      -2.065  12.993  20.974  0.00  0.00    +0.000 A 
ATOM     31  C   UNL     1      -2.058  14.358  20.663  0.00  0.00    +0.000 A 
ATOM     32  C   UNL     1      -2.952  15.214  21.296  0.00  0.00    +0.000 A 
ATOM     33  C   UNL     1      -3.832  14.689  22.230  0.00  0.00    +0.000 A 
ATOM     34  C   UNL     1      -3.781  13.328  22.480  0.00  0.00    +0.000 A 
ATOM     35  F   UNL     1      -4.630  12.821  23.385  0.00  0.00    +0.000 F 
ATOM     36  N   UNL     1      -2.931  12.472  21.874  0.00  0.00    +0.000 NA
ENDBRANCH  27  30
ENDBRANCH  23  24
ENDBRANCH   5  23
TORSDOF 6
ENDMDL
MODEL 9
REMARK VINA RESULT:      -8.0      2.439      3.034
REMARK  Name = 
REMARK  8 active torsions:
REMARK  status: ('A' for Active; 'I' for Inactive)
REMARK    1  A    between atoms: C_1  and  C_2
REMARK    2  A    between atoms: C_2  and  C_3
REMARK    3  A    between atoms: C_3  and  N_4
REMARK    4  A    between atoms: N_4  and  C_5
REMARK    5  A    between atoms: N_9  and  C_10
REMARK    6  A    between atoms: C_10  and  C_11
REMARK    7  A    between atoms: C_14  and  C_15
REMARK    8  A    between atoms: N_32  and  C_33
REMARK                            x       y       z     vdW  Elec       q    Type
REMARK                         _______ _______ _______ _____ _____    ______ ____
ROOT
ATOM      1  C   UNL     1       1.996   7.348  19.552  0.00  0.00    +0.000 A 
ATOM      2  C   UNL     1       2.884   6.403  19.088  0.00  0.00    +0.000 A 
ATOM      3  C   UNL     1       3.432   6.907  17.904  0.00  0.00    +0.000 A 
ATOM      4  N   UNL     1       3.018   8.141  17.648  0.00  0.00    +0.000 NA
ATOM      5  N   UNL     1       2.035   8.348  18.584  0.00  0.00    +0.000 N 
ATOM      6  N   UNL     1       4.198   6.073  17.183  0.00  0.00    +0.000 N 
ATOM      7  C   UNL     1       4.068   4.730  17.354  0.00  0.00    +0.000 C 
ATOM      8  N   UNL     1       4.739   3.964  16.532  0.00  0.00    +0.000 NA
ATOM      9  C   UNL     1       5.560   4.952  15.731  0.00  0.00    +0.000 C 
ATOM     10  C   UNL     1       7.042   4.712  16.013  0.00  0.00    +0.000 C 
ATOM     11  C   UNL     1       7.286   5.472  17.310  0.00  0.00    +0.000 C 
ATOM     12  C   UNL     1       6.523   6.773  17.093  0.00  0.00    +0.000 C 
ATOM     13  C   UNL     1       5.269   6.382  16.292  0.00  0.00    +0.000 C 
ATOM     14  N   UNL     1       3.296   4.211  18.370  0.00  0.00    +0.000 N 
ATOM     15  C   UNL     1       2.022   3.649  17.978  0.00  0.00    +0.000 C 
ATOM     16  C   UNL     1       3.173   5.042  19.476  0.00  0.00    +0.000 C 
ATOM     17  O   UNL     1       3.369   4.655  20.627  0.00  0.00    +0.000 OA
ENDROOT
BRANCH   1  18
ATOM     18  N   UNL     1       1.154   7.323  20.620  0.00  0.00    +0.000 N 
ATOM     19  H   UNL     1       0.507   6.561  20.805  0.00  0.00    +0.000 HD
BRANCH  18  20
ATOM     20  C   UNL     1       1.163   8.388  21.620  0.00  0.00    +0.000 C 
BRANCH  20  22
ATOM     21  C   UNL     1      -0.239   9.758  23.209  0.00  0.00    +0.000 C 
ATOM     22  C   UNL     1      -0.245   8.801  22.026  0.00  0.00    +0.000 C 
ENDBRANCH  20  22
ENDBRANCH  18  20
ENDBRANCH   1  18
BRANCH   5  23
ATOM     23  C   UNL     1       1.128   9.452  18.271  0.00  0.00    +0.000 C 
BRANCH  23  24
ATOM     24  C   UNL     1       1.467  10.843  18.728  0.00  0.00    +0.000 A 
ATOM     25  C   UNL     1       2.375  11.609  17.992  0.00  0.00    +0.000 A 
ATOM     26  C   UNL     1       2.568  12.960  18.303  0.00  0.00    +0.000 A 
ATOM     27  C   UNL     1       1.861  13.583  19.344  0.00  0.00    +0.000 A 
ATOM     28  C   UNL     1       1.028  12.775  20.137  0.00  0.00    +0.000 A 
ATOM     29  C   UNL     1       0.826  11.422  19.827  0.00  0.00    +0.000 A 
BRANCH  27  30
ATOM     30  C   UNL     1       1.942  15.043  19.552  0.00  0.00    +0.000 A 
ATOM     31  C   UNL     1       2.681  15.865  18.692  0.00  0.00    +0.000 A 
ATOM     32  C   UNL     1       2.703  17.239  18.900  0.00  0.00    +0.000 A 
ATOM     33  C   UNL     1       1.989  17.764  19.966  0.00  0.00    +0.000 A 
ATOM     34  C   UNL     1       1.279  16.889  20.769  0.00  0.00    +0.000 A 
ATOM     35  F   UNL     1       0.591  17.397  21.801  0.00  0.00    +0.000 F 
ATOM     36  N   UNL     1       1.230  15.552  20.585  0.00  0.00    +0.000 NA
ENDBRANCH  27  30
ENDBRANCH  23  24
ENDBRANCH   5  23
TORSDOF 6
ENDMDL
