MODEL 1
REMARK VINA RESULT:      -8.2      0.000      0.000
REMARK  Name = 
REMARK  12 active torsions:
REMARK  status: ('A' for Active; 'I' for Inactive)
REMARK    1  A    between atoms: C_1  and  O_2
REMARK    2  A    between atoms: O_2  and  C_3
REMARK    3  A    between atoms: C_6  and  O_7
REMARK    4  A    between atoms: O_7  and  C_8
REMARK    5  A    between atoms: C_9  and  C_10
REMARK    6  A    between atoms: C_12  and  C_13
REMARK    7  A    between atoms: N_15  and  C_16
REMARK    8  A    between atoms: C_16  and  C_17
REMARK    9  A    between atoms: C_18  and  C_19
REMARK   10  A    between atoms: C_19  and  O_20
REMARK   11  A    between atoms: O_20  and  C_21
REMARK   12  A    between atoms: N_30  and  C_31
REMARK                            x       y       z     vdW  Elec       q    Type
REMARK                         _______ _______ _______ _____ _____    ______ ____
ROOT
ATOM      1  C   UNL     1       1.888   5.326  20.195  0.00  0.00    +0.000 C 
ATOM      2  O   UNL     1       0.946   4.659  20.602  0.00  0.00    +0.000 OA
ATOM      3  N   UNL     1       2.027   6.661  20.533  0.00  0.00    +0.000 N 
ATOM      4  H   UNL     1       2.889   7.146  20.336  0.00  0.00    +0.000 HD
ENDROOT
BRANCH   1   7
ATOM      5  C   UNL     1       4.532   4.487  17.762  0.00  0.00    +0.000 A 
ATOM      6  C   UNL     1       3.486   5.345  18.184  0.00  0.00    +0.000 A 
ATOM      7  C   UNL     1       2.953   4.820  19.357  0.00  0.00    +0.000 A 
ATOM      8  N   UNL     1       3.658   3.655  19.543  0.00  0.00    +0.000 N 
ATOM      9  C   UNL     1       3.527   2.651  20.572  0.00  0.00    +0.000 C 
ATOM     10  N   UNL     1       4.617   3.455  18.621  0.00  0.00    +0.000 NA
BRANCH   5  15
ATOM     11  C   UNL     1       5.782   4.161  14.220  0.00  0.00    +0.000 A 
ATOM     12  C   UNL     1       7.068   4.674  14.311  0.00  0.00    +0.000 A 
ATOM     13  C   UNL     1       7.558   5.144  15.530  0.00  0.00    +0.000 A 
ATOM     14  C   UNL     1       6.774   5.091  16.693  0.00  0.00    +0.000 A 
ATOM     15  C   UNL     1       5.454   4.595  16.614  0.00  0.00    +0.000 A 
ATOM     16  C   UNL     1       4.983   4.139  15.362  0.00  0.00    +0.000 A 
BRANCH  11  18
ATOM     17  C   UNL     1       6.486   3.383  12.091  0.00  0.00    +0.000 C 
ATOM     18  O   UNL     1       5.423   3.713  12.979  0.00  0.00    +0.000 OA
ENDBRANCH  11  18
BRANCH  14  19
ATOM     19  O   UNL     1       7.244   5.550  17.899  0.00  0.00    +0.000 OA
ATOM     20  C   UNL     1       7.592   6.931  17.959  0.00  0.00    +0.000 C 
ENDBRANCH  14  19
ENDBRANCH   5  15
ENDBRANCH   1   7
BRANCH   3  21
ATOM     21  C   UNL     1       1.089   7.287  21.420  0.00  0.00    +0.000 C 
BRANCH  21  22
ATOM     22  C   UNL     1       0.884   8.742  21.029  0.00  0.00    +0.000 C 
ATOM     23  C   UNL     1       0.708   9.989  20.693  0.00  0.00    +0.000 C 
BRANCH  23  24
ATOM     24  C   UNL     1       0.503  11.443  20.301  0.00  0.00    +0.000 C 
BRANCH  24  25
ATOM     25  O   UNL     1       0.363  11.486  18.869  0.00  0.00    +0.000 OA
BRANCH  25  26
ATOM     26  C   UNL     1      -0.910  11.155  18.488  0.00  0.00    +0.000 A 
ATOM     27  C   UNL     1      -1.968  11.881  19.068  0.00  0.00    +0.000 A 
ATOM     28  C   UNL     1      -3.253  11.803  18.521  0.00  0.00    +0.000 A 
ATOM     29  C   UNL     1      -3.400  11.032  17.389  0.00  0.00    +0.000 A 
ATOM     30  C   UNL     1      -2.380  10.239  16.909  0.00  0.00    +0.000 A 
ATOM     31  C   UNL     1      -1.141  10.218  17.484  0.00  0.00    +0.000 A 
ATOM     32  O   UNL     1      -2.694   9.642  15.727  0.00  0.00    +0.000 OA
ATOM     33  C   UNL     1      -3.827  10.457  15.375  0.00  0.00    +0.000 C 
ATOM     34  O   UNL     1      -4.464  11.032  16.538  0.00  0.00    +0.000 OA
ENDBRANCH  25  26
ENDBRANCH  24  25
ENDBRANCH  23  24
ENDBRANCH  21  22
ENDBRANCH   3  21
TORSDOF 9
ENDMDL
MODEL 2
REMARK VINA RESULT:      -8.0      4.352      7.797
REMARK  Name = 
REMARK  12 active torsions:
REMARK  status: ('A' for Active; 'I' for Inactive)
REMARK    1  A    between atoms: C_1  and  O_2
REMARK    2  A    between atoms: O_2  and  C_3
REMARK    3  A    between atoms: C_6  and  O_7
REMARK    4  A    between atoms: O_7  and  C_8
REMARK    5  A    between atoms: C_9  and  C_10
REMARK    6  A    between atoms: C_12  and  C_13
REMARK    7  A    between atoms: N_15  and  C_16
REMARK    8  A    between atoms: C_16  and  C_17
REMARK    9  A    between atoms: C_18  and  C_19
REMARK   10  A    between atoms: C_19  and  O_20
REMARK   11  A    between atoms: O_20  and  C_21
REMARK   12  A    between atoms: N_30  and  C_31
REMARK                            x       y       z     vdW  Elec       q    Type
REMARK                         _______ _______ _______ _____ _____    ______ ____
ROOT
ATOM      1  C   UNL     1       1.291  11.077  18.613  0.00  0.00    +0.000 C 
ATOM      2  O   UNL     1       0.190  11.538  18.886  0.00  0.00    +0.000 OA
ATOM      3  N   UNL     1       2.317  11.883  18.152  0.00  0.00    +0.000 N 
ATOM      4  H   UNL     1       3.259  11.525  18.099  0.00  0.00    +0.000 HD
ENDROOT
BRANCH   1   7
ATOM      5  C   UNL     1       2.397   7.561  18.453  0.00  0.00    +0.000 A 
ATOM      6  C   UNL     1       2.189   8.808  17.812  0.00  0.00    +0.000 A 
ATOM      7  C   UNL     1       1.658   9.685  18.753  0.00  0.00    +0.000 A 
ATOM      8  N   UNL     1       1.519   8.911  19.880  0.00  0.00    +0.000 N 
ATOM      9  C   UNL     1       0.980   9.253  21.175  0.00  0.00    +0.000 C 
ATOM     10  N   UNL     1       1.977   7.654  19.728  0.00  0.00    +0.000 NA
BRANCH   5  15
ATOM     11  C   UNL     1       2.628   3.902  17.573  0.00  0.00    +0.000 A 
ATOM     12  C   UNL     1       3.909   3.804  17.045  0.00  0.00    +0.000 A 
ATOM     13  C   UNL     1       4.727   4.931  16.960  0.00  0.00    +0.000 A 
ATOM     14  C   UNL     1       4.285   6.181  17.421  0.00  0.00    +0.000 A 
ATOM     15  C   UNL     1       2.977   6.305  17.937  0.00  0.00    +0.000 A 
ATOM     16  C   UNL     1       2.168   5.147  17.999  0.00  0.00    +0.000 A 
BRANCH  11  18
ATOM     17  C   UNL     1       2.603   1.615  18.207  0.00  0.00    +0.000 C 
ATOM     18  O   UNL     1       1.931   2.727  17.624  0.00  0.00    +0.000 OA
ENDBRANCH  11  18
BRANCH  14  19
ATOM     19  O   UNL     1       5.081   7.298  17.342  0.00  0.00    +0.000 OA
ATOM     20  C   UNL     1       6.485   7.070  17.254  0.00  0.00    +0.000 C 
ENDBRANCH  14  19
ENDBRANCH   5  15
ENDBRANCH   1   7
BRANCH   3  21
ATOM     21  C   UNL     1       2.129  13.301  18.033  0.00  0.00    +0.000 C 
BRANCH  21  22
ATOM     22  C   UNL     1       3.464  14.021  18.148  0.00  0.00    +0.000 C 
ATOM     23  C   UNL     1       4.608  14.637  18.246  0.00  0.00    +0.000 C 
BRANCH  23  24
ATOM     24  C   UNL     1       5.942  15.356  18.361  0.00  0.00    +0.000 C 
BRANCH  24  25
ATOM     25  O   UNL     1       6.834  14.762  17.399  0.00  0.00    +0.000 OA
BRANCH  25  26
ATOM     26  C   UNL     1       7.812  14.033  18.020  0.00  0.00    +0.000 A 
ATOM     27  C   UNL     1       8.237  14.467  19.290  0.00  0.00    +0.000 A 
ATOM     28  C   UNL     1       9.007  13.624  20.097  0.00  0.00    +0.000 A 
ATOM     29  C   UNL     1       9.273  12.366  19.604  0.00  0.00    +0.000 A 
ATOM     30  C   UNL     1       8.949  12.004  18.314  0.00  0.00    +0.000 A 
ATOM     31  C   UNL     1       8.285  12.844  17.467  0.00  0.00    +0.000 A 
ATOM     32  O   UNL     1       9.201  10.690  18.061  0.00  0.00    +0.000 OA
ATOM     33  C   UNL     1       9.335  10.237  19.421  0.00  0.00    +0.000 C 
ATOM     34  O   UNL     1       9.748  11.300  20.309  0.00  0.00    +0.000 OA
ENDBRANCH  25  26
ENDBRANCH  24  25
ENDBRANCH  23  24
ENDBRANCH  21  22
ENDBRANCH   3  21
TORSDOF 9
ENDMDL
MODEL 3
REMARK VINA RESULT:      -8.0      4.276      7.632
REMARK  Name = 
REMARK  12 active torsions:
REMARK  status: ('A' for Active; 'I' for Inactive)
REMARK    1  A    between atoms: C_1  and  O_2
REMARK    2  A    between atoms: O_2  and  C_3
REMARK    3  A    between atoms: C_6  and  O_7
REMARK    4  A    between atoms: O_7  and  C_8
REMARK    5  A    between atoms: C_9  and  C_10
REMARK    6  A    between atoms: C_12  and  C_13
REMARK    7  A    between atoms: N_15  and  C_16
REMARK    8  A    between atoms: C_16  and  C_17
REMARK    9  A    between atoms: C_18  and  C_19
REMARK   10  A    between atoms: C_19  and  O_20
REMARK   11  A    between atoms: O_20  and  C_21
REMARK   12  A    between atoms: N_30  and  C_31
REMARK                            x       y       z     vdW  Elec       q    Type
REMARK                         _______ _______ _______ _____ _____    ______ ____
ROOT
ATOM      1  C   UNL     1       1.244  10.570  18.594  0.00  0.00    +0.000 C 
ATOM      2  O   UNL     1       0.080  10.906  18.768  0.00  0.00    +0.000 OA
ATOM      3  N   UNL     1       2.226  11.498  18.291  0.00  0.00    +0.000 N 
ATOM      4  H   UNL     1       3.199  11.234  18.322  0.00  0.00    +0.000 HD
ENDROOT
BRANCH   1   7
ATOM      5  C   UNL     1       2.648   7.167  18.347  0.00  0.00    +0.000 A 
ATOM      6  C   UNL     1       2.318   8.401  17.733  0.00  0.00    +0.000 A 
ATOM      7  C   UNL     1       1.734   9.213  18.701  0.00  0.00    +0.000 A 
ATOM      8  N   UNL     1       1.689   8.412  19.816  0.00  0.00    +0.000 N 
ATOM      9  C   UNL     1       1.151   8.685  21.128  0.00  0.00    +0.000 C 
ATOM     10  N   UNL     1       2.251   7.203  19.632  0.00  0.00    +0.000 NA
BRANCH   5  15
ATOM     11  C   UNL     1       5.298   5.118  16.616  0.00  0.00    +0.000 A 
ATOM     12  C   UNL     1       4.755   3.841  16.651  0.00  0.00    +0.000 A 
ATOM     13  C   UNL     1       3.512   3.616  17.244  0.00  0.00    +0.000 A 
ATOM     14  C   UNL     1       2.775   4.673  17.800  0.00  0.00    +0.000 A 
ATOM     15  C   UNL     1       3.323   5.975  17.796  0.00  0.00    +0.000 A 
ATOM     16  C   UNL     1       4.589   6.168  17.199  0.00  0.00    +0.000 A 
BRANCH  11  18
ATOM     17  C   UNL     1       6.574   4.730  14.653  0.00  0.00    +0.000 C 
ATOM     18  O   UNL     1       6.509   5.216  15.990  0.00  0.00    +0.000 OA
ENDBRANCH  11  18
BRANCH  14  19
ATOM     19  O   UNL     1       1.550   4.465  18.386  0.00  0.00    +0.000 OA
ATOM     20  C   UNL     1       1.170   3.107  18.593  0.00  0.00    +0.000 C 
ENDBRANCH  14  19
ENDBRANCH   5  15
ENDBRANCH   1   7
BRANCH   3  21
ATOM     21  C   UNL     1       1.909  12.896  18.225  0.00  0.00    +0.000 C 
BRANCH  21  22
ATOM     22  C   UNL     1       3.181  13.727  18.266  0.00  0.00    +0.000 C 
ATOM     23  C   UNL     1       4.272  14.440  18.301  0.00  0.00    +0.000 C 
BRANCH  23  24
ATOM     24  C   UNL     1       5.544  15.271  18.342  0.00  0.00    +0.000 C 
BRANCH  24  25
ATOM     25  O   UNL     1       6.436  14.739  17.345  0.00  0.00    +0.000 OA
BRANCH  25  26
ATOM     26  C   UNL     1       7.517  14.132  17.925  0.00  0.00    +0.000 A 
ATOM     27  C   UNL     1       7.992  14.674  19.135  0.00  0.00    +0.000 A 
ATOM     28  C   UNL     1       8.890  13.947  19.923  0.00  0.00    +0.000 A 
ATOM     29  C   UNL     1       9.230  12.689  19.476  0.00  0.00    +0.000 A 
ATOM     30  C   UNL     1       8.847  12.227  18.236  0.00  0.00    +0.000 A 
ATOM     31  C   UNL     1       8.052  12.958  17.400  0.00  0.00    +0.000 A 
ATOM     32  O   UNL     1       9.195  10.927  18.032  0.00  0.00    +0.000 OA
ATOM     33  C   UNL     1       9.467  10.566  19.399  0.00  0.00    +0.000 C 
ATOM     34  O   UNL     1       9.847  11.710  20.197  0.00  0.00    +0.000 OA
ENDBRANCH  25  26
ENDBRANCH  24  25
ENDBRANCH  23  24
ENDBRANCH  21  22
ENDBRANCH   3  21
TORSDOF 9
ENDMDL
MODEL 4
REMARK VINA RESULT:      -7.8      0.868      1.151
REMARK  Name = 
REMARK  12 active torsions:
REMARK  status: ('A' for Active; 'I' for Inactive)
REMARK    1  A    between atoms: C_1  and  O_2
REMARK    2  A    between atoms: O_2  and  C_3
REMARK    3  A    between atoms: C_6  and  O_7
REMARK    4  A    between atoms: O_7  and  C_8
REMARK    5  A    between atoms: C_9  and  C_10
REMARK    6  A    between atoms: C_12  and  C_13
REMARK    7  A    between atoms: N_15  and  C_16
REMARK    8  A    between atoms: C_16  and  C_17
REMARK    9  A    between atoms: C_18  and  C_19
REMARK   10  A    between atoms: C_19  and  O_20
REMARK   11  A    between atoms: O_20  and  C_21
REMARK   12  A    between atoms: N_30  and  C_31
REMARK                            x       y       z     vdW  Elec       q    Type
REMARK                         _______ _______ _______ _____ _____    ______ ____
ROOT
ATOM      1  C   UNL     1       1.942   5.739  20.206  0.00  0.00    +0.000 C 
ATOM      2  O   UNL     1       1.046   5.118  20.764  0.00  0.00    +0.000 OA
ATOM      3  N   UNL     1       2.081   7.107  20.365  0.00  0.00    +0.000 N 
ATOM      4  H   UNL     1       2.916   7.572  20.044  0.00  0.00    +0.000 HD
ENDROOT
BRANCH   1   7
ATOM      5  C   UNL     1       4.492   4.686  17.756  0.00  0.00    +0.000 A 
ATOM      6  C   UNL     1       3.545   5.642  18.202  0.00  0.00    +0.000 A 
ATOM      7  C   UNL     1       2.949   5.143  19.355  0.00  0.00    +0.000 A 
ATOM      8  N   UNL     1       3.518   3.901  19.506  0.00  0.00    +0.000 N 
ATOM      9  C   UNL     1       3.269   2.886  20.502  0.00  0.00    +0.000 C 
ATOM     10  N   UNL     1       4.455   3.624  18.581  0.00  0.00    +0.000 NA
BRANCH   5  15
ATOM     11  C   UNL     1       5.756   4.223  14.234  0.00  0.00    +0.000 A 
ATOM     12  C   UNL     1       7.064   4.679  14.326  0.00  0.00    +0.000 A 
ATOM     13  C   UNL     1       7.565   5.153  15.540  0.00  0.00    +0.000 A 
ATOM     14  C   UNL     1       6.768   5.162  16.696  0.00  0.00    +0.000 A 
ATOM     15  C   UNL     1       5.428   4.726  16.615  0.00  0.00    +0.000 A 
ATOM     16  C   UNL     1       4.947   4.263  15.368  0.00  0.00    +0.000 A 
BRANCH  11  18
ATOM     17  C   UNL     1       6.442   3.355  12.134  0.00  0.00    +0.000 C 
ATOM     18  O   UNL     1       5.388   3.765  13.000  0.00  0.00    +0.000 OA
ENDBRANCH  11  18
BRANCH  14  19
ATOM     19  O   UNL     1       7.249   5.626  17.896  0.00  0.00    +0.000 OA
ATOM     20  C   UNL     1       7.624   7.000  17.939  0.00  0.00    +0.000 C 
ENDBRANCH  14  19
ENDBRANCH   5  15
ENDBRANCH   1   7
BRANCH   3  21
ATOM     21  C   UNL     1       1.202   7.829  21.240  0.00  0.00    +0.000 C 
BRANCH  21  22
ATOM     22  C   UNL     1       0.974   9.237  20.713  0.00  0.00    +0.000 C 
ATOM     23  C   UNL     1       0.779  10.443  20.261  0.00  0.00    +0.000 C 
BRANCH  23  24
ATOM     24  C   UNL     1       0.552  11.851  19.733  0.00  0.00    +0.000 C 
BRANCH  24  25
ATOM     25  O   UNL     1      -0.197  11.735  18.510  0.00  0.00    +0.000 OA
BRANCH  25  26
ATOM     26  C   UNL     1      -1.540  11.657  18.760  0.00  0.00    +0.000 A 
ATOM     27  C   UNL     1      -2.037  12.381  19.861  0.00  0.00    +0.000 A 
ATOM     28  C   UNL     1      -3.414  12.582  20.003  0.00  0.00    +0.000 A 
ATOM     29  C   UNL     1      -4.220  12.083  19.003  0.00  0.00    +0.000 A 
ATOM     30  C   UNL     1      -3.725  11.279  17.999  0.00  0.00    +0.000 A 
ATOM     31  C   UNL     1      -2.397  10.981  17.893  0.00  0.00    +0.000 A 
ATOM     32  O   UNL     1      -4.663  10.980  17.059  0.00  0.00    +0.000 OA
ATOM     33  C   UNL     1      -5.631  11.990  17.400  0.00  0.00    +0.000 C 
ATOM     34  O   UNL     1      -5.529  12.394  18.784  0.00  0.00    +0.000 OA
ENDBRANCH  25  26
ENDBRANCH  24  25
ENDBRANCH  23  24
ENDBRANCH  21  22
ENDBRANCH   3  21
TORSDOF 9
ENDMDL
MODEL 5
REMARK VINA RESULT:      -7.7      5.492      8.355
REMARK  Name = 
REMARK  12 active torsions:
REMARK  status: ('A' for Active; 'I' for Inactive)
REMARK    1  A    between atoms: C_1  and  O_2
REMARK    2  A    between atoms: O_2  and  C_3
REMARK    3  A    between atoms: C_6  and  O_7
REMARK    4  A    between atoms: O_7  and  C_8
REMARK    5  A    between atoms: C_9  and  C_10
REMARK    6  A    between atoms: C_12  and  C_13
REMARK    7  A    between atoms: N_15  and  C_16
REMARK    8  A    between atoms: C_16  and  C_17
REMARK    9  A    between atoms: C_18  and  C_19
REMARK   10  A    between atoms: C_19  and  O_20
REMARK   11  A    between atoms: O_20  and  C_21
REMARK   12  A    between atoms: N_30  and  C_31
REMARK                            x       y       z     vdW  Elec       q    Type
REMARK                         _______ _______ _______ _____ _____    ______ ____
ROOT
ATOM      1  C   UNL     1       1.132  10.850  18.587  0.00  0.00    +0.000 C 
ATOM      2  O   UNL     1      -0.022  11.234  18.727  0.00  0.00    +0.000 OA
ATOM      3  N   UNL     1       2.153  11.731  18.277  0.00  0.00    +0.000 N 
ATOM      4  H   UNL     1       3.115  11.433  18.336  0.00  0.00    +0.000 HD
ENDROOT
BRANCH   1   7
ATOM      5  C   UNL     1       2.367   7.376  18.454  0.00  0.00    +0.000 A 
ATOM      6  C   UNL     1       2.053   8.589  17.790  0.00  0.00    +0.000 A 
ATOM      7  C   UNL     1       1.567   9.479  18.743  0.00  0.00    +0.000 A 
ATOM      8  N   UNL     1       1.557   8.744  19.903  0.00  0.00    +0.000 N 
ATOM      9  C   UNL     1       1.116   9.114  21.227  0.00  0.00    +0.000 C 
ATOM     10  N   UNL     1       2.053   7.502  19.756  0.00  0.00    +0.000 NA
BRANCH   5  15
ATOM     11  C   UNL     1       2.606   3.727  17.536  0.00  0.00    +0.000 A 
ATOM     12  C   UNL     1       3.896   3.632  17.030  0.00  0.00    +0.000 A 
ATOM     13  C   UNL     1       4.718   4.759  16.972  0.00  0.00    +0.000 A 
ATOM     14  C   UNL     1       4.270   6.004  17.439  0.00  0.00    +0.000 A 
ATOM     15  C   UNL     1       2.953   6.125  17.933  0.00  0.00    +0.000 A 
ATOM     16  C   UNL     1       2.141   4.968  17.968  0.00  0.00    +0.000 A 
BRANCH  11  18
ATOM     17  C   UNL     1       1.189   2.267  18.757  0.00  0.00    +0.000 C 
ATOM     18  O   UNL     1       1.906   2.553  17.561  0.00  0.00    +0.000 OA
ENDBRANCH  11  18
BRANCH  14  19
ATOM     19  O   UNL     1       5.070   7.120  17.388  0.00  0.00    +0.000 OA
ATOM     20  C   UNL     1       6.475   6.890  17.315  0.00  0.00    +0.000 C 
ENDBRANCH  14  19
ENDBRANCH   5  15
ENDBRANCH   1   7
BRANCH   3  21
ATOM     21  C   UNL     1       1.891  13.138  18.164  0.00  0.00    +0.000 C 
BRANCH  21  22
ATOM     22  C   UNL     1       3.191  13.923  18.228  0.00  0.00    +0.000 C 
ATOM     23  C   UNL     1       4.305  14.597  18.283  0.00  0.00    +0.000 C 
BRANCH  23  24
ATOM     24  C   UNL     1       5.605  15.383  18.347  0.00  0.00    +0.000 C 
BRANCH  24  25
ATOM     25  O   UNL     1       6.371  14.857  19.446  0.00  0.00    +0.000 OA
BRANCH  25  26
ATOM     26  C   UNL     1       7.714  14.947  19.198  0.00  0.00    +0.000 A 
ATOM     27  C   UNL     1       8.468  13.760  19.276  0.00  0.00    +0.000 A 
ATOM     28  C   UNL     1       9.767  13.720  18.758  0.00  0.00    +0.000 A 
ATOM     29  C   UNL     1      10.226  14.865  18.146  0.00  0.00    +0.000 A 
ATOM     30  C   UNL     1       9.519  16.047  18.185  0.00  0.00    +0.000 A 
ATOM     31  C   UNL     1       8.290  16.142  18.773  0.00  0.00    +0.000 A 
ATOM     32  O   UNL     1      10.095  17.026  17.434  0.00  0.00    +0.000 OA
ATOM     33  C   UNL     1      10.978  16.199  16.654  0.00  0.00    +0.000 C 
ATOM     34  O   UNL     1      11.320  14.973  17.340  0.00  0.00    +0.000 OA
ENDBRANCH  25  26
ENDBRANCH  24  25
ENDBRANCH  23  24
ENDBRANCH  21  22
ENDBRANCH   3  21
TORSDOF 9
ENDMDL
MODEL 6
REMARK VINA RESULT:      -7.5      4.807      7.902
REMARK  Name = 
REMARK  12 active torsions:
REMARK  status: ('A' for Active; 'I' for Inactive)
REMARK    1  A    between atoms: C_1  and  O_2
REMARK    2  A    between atoms: O_2  and  C_3
REMARK    3  A    between atoms: C_6  and  O_7
REMARK    4  A    between atoms: O_7  and  C_8
REMARK    5  A    between atoms: C_9  and  C_10
REMARK    6  A    between atoms: C_12  and  C_13
REMARK    7  A    between atoms: N_15  and  C_16
REMARK    8  A    between atoms: C_16  and  C_17
REMARK    9  A    between atoms: C_18  and  C_19
REMARK   10  A    between atoms: C_19  and  O_20
REMARK   11  A    between atoms: O_20  and  C_21
REMARK   12  A    between atoms: N_30  and  C_31
REMARK                            x       y       z     vdW  Elec       q    Type
REMARK                         _______ _______ _______ _____ _____    ______ ____
ROOT
ATOM      1  C   UNL     1       1.150  10.779  18.616  0.00  0.00    +0.000 C 
ATOM      2  O   UNL     1       0.020  11.177  18.867  0.00  0.00    +0.000 OA
ATOM      3  N   UNL     1       2.139  11.642  18.177  0.00  0.00    +0.000 N 
ATOM      4  H   UNL     1       3.100  11.337  18.142  0.00  0.00    +0.000 HD
ENDROOT
BRANCH   1   7
ATOM      5  C   UNL     1       2.398   7.311  18.459  0.00  0.00    +0.000 A 
ATOM      6  C   UNL     1       2.077   8.526  17.804  0.00  0.00    +0.000 A 
ATOM      7  C   UNL     1       1.592   9.409  18.763  0.00  0.00    +0.000 A 
ATOM      8  N   UNL     1       1.590   8.667  19.920  0.00  0.00    +0.000 N 
ATOM      9  C   UNL     1       1.152   9.028  21.247  0.00  0.00    +0.000 C 
ATOM     10  N   UNL     1       2.090   7.427  19.763  0.00  0.00    +0.000 NA
BRANCH   5  15
ATOM     11  C   UNL     1       2.657   3.663  17.540  0.00  0.00    +0.000 A 
ATOM     12  C   UNL     1       3.937   3.580  17.011  0.00  0.00    +0.000 A 
ATOM     13  C   UNL     1       4.747   4.715  16.937  0.00  0.00    +0.000 A 
ATOM     14  C   UNL     1       4.296   5.956  17.411  0.00  0.00    +0.000 A 
ATOM     15  C   UNL     1       2.987   6.064  17.929  0.00  0.00    +0.000 A 
ATOM     16  C   UNL     1       2.188   4.900  17.979  0.00  0.00    +0.000 A 
BRANCH  11  18
ATOM     17  C   UNL     1       1.507   2.058  18.858  0.00  0.00    +0.000 C 
ATOM     18  O   UNL     1       1.969   2.482  17.579  0.00  0.00    +0.000 OA
ENDBRANCH  11  18
BRANCH  14  19
ATOM     19  O   UNL     1       5.083   7.080  17.344  0.00  0.00    +0.000 OA
ATOM     20  C   UNL     1       6.490   6.864  17.269  0.00  0.00    +0.000 C 
ENDBRANCH  14  19
ENDBRANCH   5  15
ENDBRANCH   1   7
BRANCH   3  21
ATOM     21  C   UNL     1       1.874  13.048  18.054  0.00  0.00    +0.000 C 
BRANCH  21  22
ATOM     22  C   UNL     1       2.899  13.847  18.842  0.00  0.00    +0.000 C 
ATOM     23  C   UNL     1       3.778  14.533  19.518  0.00  0.00    +0.000 C 
BRANCH  23  24
ATOM     24  C   UNL     1       4.802  15.333  20.306  0.00  0.00    +0.000 C 
BRANCH  24  25
ATOM     25  O   UNL     1       5.817  15.761  19.380  0.00  0.00    +0.000 OA
BRANCH  25  26
ATOM     26  C   UNL     1       6.835  14.848  19.309  0.00  0.00    +0.000 A 
ATOM     27  C   UNL     1       7.154  14.331  18.039  0.00  0.00    +0.000 A 
ATOM     28  C   UNL     1       8.349  13.631  17.848  0.00  0.00    +0.000 A 
ATOM     29  C   UNL     1       9.188  13.526  18.935  0.00  0.00    +0.000 A 
ATOM     30  C   UNL     1       8.805  13.937  20.194  0.00  0.00    +0.000 A 
ATOM     31  C   UNL     1       7.600  14.533  20.430  0.00  0.00    +0.000 A 
ATOM     32  O   UNL     1       9.814  13.843  21.103  0.00  0.00    +0.000 OA
ATOM     33  C   UNL     1      10.913  13.710  20.184  0.00  0.00    +0.000 C 
ATOM     34  O   UNL     1      10.497  13.148  18.919  0.00  0.00    +0.000 OA
ENDBRANCH  25  26
ENDBRANCH  24  25
ENDBRANCH  23  24
ENDBRANCH  21  22
ENDBRANCH   3  21
TORSDOF 9
ENDMDL
MODEL 7
REMARK VINA RESULT:      -7.5      3.613     11.292
REMARK  Name = 
REMARK  12 active torsions:
REMARK  status: ('A' for Active; 'I' for Inactive)
REMARK    1  A    between atoms: C_1  and  O_2
REMARK    2  A    between atoms: O_2  and  C_3
REMARK    3  A    between atoms: C_6  and  O_7
REMARK    4  A    between atoms: O_7  and  C_8
REMARK    5  A    between atoms: C_9  and  C_10
REMARK    6  A    between atoms: C_12  and  C_13
REMARK    7  A    between atoms: N_15  and  C_16
REMARK    8  A    between atoms: C_16  and  C_17
REMARK    9  A    between atoms: C_18  and  C_19
REMARK   10  A    between atoms: C_19  and  O_20
REMARK   11  A    between atoms: O_20  and  C_21
REMARK   12  A    between atoms: N_30  and  C_31
REMARK                            x       y       z     vdW  Elec       q    Type
REMARK                         _______ _______ _______ _____ _____    ______ ____
ROOT
ATOM      1  C   UNL     1       0.754  10.068  19.606  0.00  0.00    +0.000 C 
ATOM      2  O   UNL     1       0.750  10.664  18.537  0.00  0.00    +0.000 OA
ATOM      3  N   UNL     1       1.347   8.824  19.738  0.00  0.00    +0.000 N 
ATOM      4  H   UNL     1       1.494   8.427  20.654  0.00  0.00    +0.000 HD
ENDROOT
BRANCH   1   7
ATOM      5  C   UNL     1      -0.991  11.704  22.415  0.00  0.00    +0.000 A 
ATOM      6  C   UNL     1      -0.715  11.623  21.027  0.00  0.00    +0.000 A 
ATOM      7  C   UNL     1       0.180  10.576  20.834  0.00  0.00    +0.000 A 
ATOM      8  N   UNL     1       0.438  10.126  22.106  0.00  0.00    +0.000 N 
ATOM      9  C   UNL     1       1.326   9.080  22.553  0.00  0.00    +0.000 C 
ATOM     10  N   UNL     1      -0.268  10.768  23.056  0.00  0.00    +0.000 NA
BRANCH   5  15
ATOM     11  C   UNL     1      -4.128  12.863  24.156  0.00  0.00    +0.000 A 
ATOM     12  C   UNL     1      -3.796  14.155  24.538  0.00  0.00    +0.000 A 
ATOM     13  C   UNL     1      -2.537  14.680  24.240  0.00  0.00    +0.000 A 
ATOM     14  C   UNL     1      -1.589  13.924  23.534  0.00  0.00    +0.000 A 
ATOM     15  C   UNL     1      -1.900  12.598  23.160  0.00  0.00    +0.000 A 
ATOM     16  C   UNL     1      -3.179  12.092  23.487  0.00  0.00    +0.000 A 
BRANCH  11  18
ATOM     17  C   UNL     1      -6.407  12.707  23.511  0.00  0.00    +0.000 C 
ATOM     18  O   UNL     1      -5.396  12.470  24.485  0.00  0.00    +0.000 OA
ENDBRANCH  11  18
BRANCH  14  19
ATOM     19  O   UNL     1      -0.347  14.428  23.234  0.00  0.00    +0.000 OA
ATOM     20  C   UNL     1      -0.238  15.848  23.172  0.00  0.00    +0.000 C 
ENDBRANCH  14  19
ENDBRANCH   5  15
ENDBRANCH   1   7
BRANCH   3  21
ATOM     21  C   UNL     1       2.026   8.222  18.626  0.00  0.00    +0.000 C 
BRANCH  21  22
ATOM     22  C   UNL     1       2.656   6.903  19.045  0.00  0.00    +0.000 C 
ATOM     23  C   UNL     1       3.197   5.773  19.405  0.00  0.00    +0.000 C 
BRANCH  23  24
ATOM     24  C   UNL     1       3.828   4.456  19.825  0.00  0.00    +0.000 C 
BRANCH  24  25
ATOM     25  O   UNL     1       4.061   3.691  18.628  0.00  0.00    +0.000 OA
BRANCH  25  26
ATOM     26  C   UNL     1       4.918   4.345  17.785  0.00  0.00    +0.000 A 
ATOM     27  C   UNL     1       6.199   4.659  18.279  0.00  0.00    +0.000 A 
ATOM     28  C   UNL     1       7.211   5.057  17.400  0.00  0.00    +0.000 A 
ATOM     29  C   UNL     1       6.896   5.075  16.059  0.00  0.00    +0.000 A 
ATOM     30  C   UNL     1       5.608   4.878  15.609  0.00  0.00    +0.000 A 
ATOM     31  C   UNL     1       4.577   4.588  16.456  0.00  0.00    +0.000 A 
ATOM     32  O   UNL     1       5.530   4.832  14.251  0.00  0.00    +0.000 OA
ATOM     33  C   UNL     1       6.927   4.632  13.968  0.00  0.00    +0.000 C 
ATOM     34  O   UNL     1       7.773   5.151  15.018  0.00  0.00    +0.000 OA
ENDBRANCH  25  26
ENDBRANCH  24  25
ENDBRANCH  23  24
ENDBRANCH  21  22
ENDBRANCH   3  21
TORSDOF 9
ENDMDL
MODEL 8
REMARK VINA RESULT:      -7.4      4.700      7.396
REMARK  Name = 
REMARK  12 active torsions:
REMARK  status: ('A' for Active; 'I' for Inactive)
REMARK    1  A    between atoms: C_1  and  O_2
REMARK    2  A    between atoms: O_2  and  C_3
REMARK    3  A    between atoms: C_6  and  O_7
REMARK    4  A    between atoms: O_7  and  C_8
REMARK    5  A    between atoms: C_9  and  C_10
REMARK    6  A    between atoms: C_12  and  C_13
REMARK    7  A    between atoms: N_15  and  C_16
REMARK    8  A    between atoms: C_16  and  C_17
REMARK    9  A    between atoms: C_18  and  C_19
REMARK   10  A    between atoms: C_19  and  O_20
REMARK   11  A    between atoms: O_20  and  C_21
REMARK   12  A    between atoms: N_30  and  C_31
REMARK                            x       y       z     vdW  Elec       q    Type
REMARK                         _______ _______ _______ _____ _____    ______ ____
ROOT
ATOM      1  C   UNL     1       0.766  10.511  18.754  0.00  0.00    +0.000 C 
ATOM      2  O   UNL     1      -0.439  10.670  18.901  0.00  0.00    +0.000 OA
ATOM      3  N   UNL     1       1.614  11.582  18.535  0.00  0.00    +0.000 N 
ATOM      4  H   UNL     1       2.614  11.456  18.589  0.00  0.00    +0.000 HD
ENDROOT
BRANCH   1   7
ATOM      5  C   UNL     1       2.582   7.322  18.369  0.00  0.00    +0.000 A 
ATOM      6  C   UNL     1       2.035   8.496  17.792  0.00  0.00    +0.000 A 
ATOM      7  C   UNL     1       1.440   9.232  18.812  0.00  0.00    +0.000 A 
ATOM      8  N   UNL     1       1.605   8.443  19.924  0.00  0.00    +0.000 N 
ATOM      9  C   UNL     1       1.159   8.655  21.281  0.00  0.00    +0.000 C 
ATOM     10  N   UNL     1       2.304   7.317  19.685  0.00  0.00    +0.000 NA
BRANCH   5  15
ATOM     11  C   UNL     1       5.348   5.621  16.454  0.00  0.00    +0.000 A 
ATOM     12  C   UNL     1       4.955   4.290  16.484  0.00  0.00    +0.000 A 
ATOM     13  C   UNL     1       3.778   3.914  17.134  0.00  0.00    +0.000 A 
ATOM     14  C   UNL     1       2.958   4.870  17.753  0.00  0.00    +0.000 A 
ATOM     15  C   UNL     1       3.356   6.225  17.755  0.00  0.00    +0.000 A 
ATOM     16  C   UNL     1       4.559   6.572  17.098  0.00  0.00    +0.000 A 
BRANCH  11  18
ATOM     17  C   UNL     1       7.009   4.803  14.969  0.00  0.00    +0.000 C 
ATOM     18  O   UNL     1       6.506   5.868  15.770  0.00  0.00    +0.000 OA
ENDBRANCH  11  18
BRANCH  14  19
ATOM     19  O   UNL     1       1.798   4.513  18.396  0.00  0.00    +0.000 OA
ATOM     20  C   UNL     1       1.467   3.127  18.382  0.00  0.00    +0.000 C 
ENDBRANCH  14  19
ENDBRANCH   5  15
ENDBRANCH   1   7
BRANCH   3  21
ATOM     21  C   UNL     1       1.104  12.924  18.527  0.00  0.00    +0.000 C 
BRANCH  21  22
ATOM     22  C   UNL     1       2.227  13.913  18.259  0.00  0.00    +0.000 C 
ATOM     23  C   UNL     1       3.190  14.761  18.028  0.00  0.00    +0.000 C 
BRANCH  23  24
ATOM     24  C   UNL     1       4.313  15.749  17.760  0.00  0.00    +0.000 C 
BRANCH  24  25
ATOM     25  O   UNL     1       4.737  16.273  19.031  0.00  0.00    +0.000 OA
BRANCH  25  26
ATOM     26  C   UNL     1       5.959  15.770  19.389  0.00  0.00    +0.000 A 
ATOM     27  C   UNL     1       6.106  15.305  20.710  0.00  0.00    +0.000 A 
ATOM     28  C   UNL     1       7.212  14.523  21.058  0.00  0.00    +0.000 A 
ATOM     29  C   UNL     1       8.092  14.209  20.047  0.00  0.00    +0.000 A 
ATOM     30  C   UNL     1       7.992  14.769  18.792  0.00  0.00    +0.000 A 
ATOM     31  C   UNL     1       6.978  15.617  18.452  0.00  0.00    +0.000 A 
ATOM     32  O   UNL     1       8.892  14.248  17.913  0.00  0.00    +0.000 OA
ATOM     33  C   UNL     1       9.259  13.073  18.661  0.00  0.00    +0.000 C 
ATOM     34  O   UNL     1       9.062  13.251  20.082  0.00  0.00    +0.000 OA
ENDBRANCH  25  26
ENDBRANCH  24  25
ENDBRANCH  23  24
ENDBRANCH  21  22
ENDBRANCH   3  21
TORSDOF 9
ENDMDL
MODEL 9
REMARK VINA RESULT:      -7.4      1.118      1.644
REMARK  Name = 
REMARK  12 active torsions:
REMARK  status: ('A' for Active; 'I' for Inactive)
REMARK    1  A    between atoms: C_1  and  O_2
REMARK    2  A    between atoms: O_2  and  C_3
REMARK    3  A    between atoms: C_6  and  O_7
REMARK    4  A    between atoms: O_7  and  C_8
REMARK    5  A    between atoms: C_9  and  C_10
REMARK    6  A    between atoms: C_12  and  C_13
REMARK    7  A    between atoms: N_15  and  C_16
REMARK    8  A    between atoms: C_16  and  C_17
REMARK    9  A    between atoms: C_18  and  C_19
REMARK   10  A    between atoms: C_19  and  O_20
REMARK   11  A    between atoms: O_20  and  C_21
REMARK   12  A    between atoms: N_30  and  C_31
REMARK                            x       y       z     vdW  Elec       q    Type
REMARK                         _______ _______ _______ _____ _____    ______ ____
ROOT
ATOM      1  C   UNL     1       2.236   5.033  20.091  0.00  0.00    +0.000 C 
ATOM      2  O   UNL     1       1.719   4.336  20.954  0.00  0.00    +0.000 OA
ATOM      3  N   UNL     1       2.137   6.413  20.121  0.00  0.00    +0.000 N 
ATOM      4  H   UNL     1       2.708   6.976  19.508  0.00  0.00    +0.000 HD
ENDROOT
BRANCH   1   7
ATOM      5  C   UNL     1       4.376   4.254  17.188  0.00  0.00    +0.000 A 
ATOM      6  C   UNL     1       3.815   5.208  18.073  0.00  0.00    +0.000 A 
ATOM      7  C   UNL     1       3.009   4.525  18.978  0.00  0.00    +0.000 A 
ATOM      8  N   UNL     1       3.079   3.219  18.557  0.00  0.00    +0.000 N 
ATOM      9  C   UNL     1       2.418   2.045  19.077  0.00  0.00    +0.000 C 
ATOM     10  N   UNL     1       3.907   3.035  17.512  0.00  0.00    +0.000 NA
BRANCH   5  15
ATOM     11  C   UNL     1       5.800   3.973  13.708  0.00  0.00    +0.000 A 
ATOM     12  C   UNL     1       7.027   4.610  13.837  0.00  0.00    +0.000 A 
ATOM     13  C   UNL     1       7.418   5.150  15.063  0.00  0.00    +0.000 A 
ATOM     14  C   UNL     1       6.594   5.047  16.194  0.00  0.00    +0.000 A 
ATOM     15  C   UNL     1       5.332   4.425  16.075  0.00  0.00    +0.000 A 
ATOM     16  C   UNL     1       4.959   3.899  14.817  0.00  0.00    +0.000 A 
BRANCH  11  18
ATOM     17  C   UNL     1       6.640   2.896  11.767  0.00  0.00    +0.000 C 
ATOM     18  O   UNL     1       5.538   3.466  12.465  0.00  0.00    +0.000 OA
ENDBRANCH  11  18
BRANCH  14  19
ATOM     19  O   UNL     1       6.967   5.575  17.405  0.00  0.00    +0.000 OA
ATOM     20  C   UNL     1       7.855   4.785  18.193  0.00  0.00    +0.000 C 
ENDBRANCH  14  19
ENDBRANCH   5  15
ENDBRANCH   1   7
BRANCH   3  21
ATOM     21  C   UNL     1       1.465   7.069  21.206  0.00  0.00    +0.000 C 
BRANCH  21  22
ATOM     22  C   UNL     1       0.994   8.450  20.776  0.00  0.00    +0.000 C 
ATOM     23  C   UNL     1       0.591   9.633  20.407  0.00  0.00    +0.000 C 
BRANCH  23  24
ATOM     24  C   UNL     1       0.120  11.012  19.977  0.00  0.00    +0.000 C 
BRANCH  24  25
ATOM     25  O   UNL     1      -0.012  10.993  18.543  0.00  0.00    +0.000 OA
BRANCH  25  26
ATOM     26  C   UNL     1      -1.327  11.063  18.169  0.00  0.00    +0.000 A 
ATOM     27  C   UNL     1      -1.817  10.042  17.332  0.00  0.00    +0.000 A 
ATOM     28  C   UNL     1      -3.195   9.886  17.150  0.00  0.00    +0.000 A 
ATOM     29  C   UNL     1      -4.014  10.739  17.856  0.00  0.00    +0.000 A 
ATOM     30  C   UNL     1      -3.514  11.803  18.575  0.00  0.00    +0.000 A 
ATOM     31  C   UNL     1      -2.174  12.039  18.689  0.00  0.00    +0.000 A 
ATOM     32  O   UNL     1      -4.477  12.455  19.282  0.00  0.00    +0.000 OA
ATOM     33  C   UNL     1      -5.504  11.449  19.214  0.00  0.00    +0.000 C 
ATOM     34  O   UNL     1      -5.356  10.599  18.055  0.00  0.00    +0.000 OA
ENDBRANCH  25  26
ENDBRANCH  24  25
ENDBRANCH  23  24
ENDBRANCH  21  22
ENDBRANCH   3  21
TORSDOF 9
ENDMDL
