MODEL 1
REMARK VINA RESULT:      -6.9      0.000      0.000
REMARK  Name = 
REMARK  7 active torsions:
REMARK  status: ('A' for Active; 'I' for Inactive)
REMARK    1  A    between atoms: C_1  and  C_2
REMARK    2  A    between atoms: C_2  and  C_3
REMARK    3  A    between atoms: C_2  and  C_4
REMARK    4  A    between atoms: C_4  and  N_5
REMARK    5  A    between atoms: C_4  and  C_10
REMARK    6  A    between atoms: N_5  and  S_6
REMARK    7  A    between atoms: S_6  and  C_7
REMARK                            x       y       z     vdW  Elec       q    Type
REMARK                         _______ _______ _______ _____ _____    ______ ____
ROOT
ATOM      1  C   UNL     1       4.855   5.009  17.374  0.00  0.00    +0.000 C 
ENDROOT
BRANCH   1   2
ATOM      2  C   UNL     1       3.548   4.617  18.043  0.00  0.00    +0.000 A 
ATOM      3  C   UNL     1       2.613   3.749  17.457  0.00  0.00    +0.000 A 
ATOM      4  C   UNL     1       1.487   3.329  18.175  0.00  0.00    +0.000 A 
ATOM      5  C   UNL     1       1.305   3.744  19.490  0.00  0.00    +0.000 A 
ATOM      6  F   UNL     1       0.254   3.293  20.186  0.00  0.00    +0.000 F 
ATOM      7  C   UNL     1       2.196   4.618  20.088  0.00  0.00    +0.000 A 
ATOM      8  C   UNL     1       3.289   5.064  19.353  0.00  0.00    +0.000 A 
ATOM      9  F   UNL     1       4.140   5.917  19.943  0.00  0.00    +0.000 F 
ENDBRANCH   1   2
BRANCH   1  11
ATOM     10  C   UNL     1       5.920   3.703  15.443  0.00  0.00    +0.000 C 
ATOM     11  C   UNL     1       4.907   4.803  15.822  0.00  0.00    +0.000 C 
ATOM     12  C   UNL     1       5.262   6.067  15.031  0.00  0.00    +0.000 C 
ENDBRANCH   1  11
BRANCH   1  13
ATOM     13  N   UNL     1       6.020   4.265  17.920  0.00  0.00    +0.000 NA
ATOM     14  H   UNL     1       5.772   3.472  18.514  0.00  0.00    +0.000 HD
BRANCH  13  15
ATOM     15  S   UNL     1       7.415   4.979  18.494  0.00  0.00    +0.000 S 
ATOM     16  C   UNL     1       7.464   6.574  17.700  0.00  0.00    +0.000 C 
ATOM     17  O   UNL     1       7.289   5.153  19.919  0.00  0.00    +0.000 OA
ATOM     18  O   UNL     1       8.494   4.178  17.955  0.00  0.00    +0.000 OA
ENDBRANCH  13  15
ENDBRANCH   1  13
TORSDOF 4
ENDMDL
MODEL 2
REMARK VINA RESULT:      -6.8      1.174      1.270
REMARK  Name = 
REMARK  7 active torsions:
REMARK  status: ('A' for Active; 'I' for Inactive)
REMARK    1  A    between atoms: C_1  and  C_2
REMARK    2  A    between atoms: C_2  and  C_3
REMARK    3  A    between atoms: C_2  and  C_4
REMARK    4  A    between atoms: C_4  and  N_5
REMARK    5  A    between atoms: C_4  and  C_10
REMARK    6  A    between atoms: N_5  and  S_6
REMARK    7  A    between atoms: S_6  and  C_7
REMARK                            x       y       z     vdW  Elec       q    Type
REMARK                         _______ _______ _______ _____ _____    ______ ____
ROOT
ATOM      1  C   UNL     1       4.908   4.936  17.096  0.00  0.00    +0.000 C 
ENDROOT
BRANCH   1   2
ATOM      2  C   UNL     1       3.679   4.125  17.474  0.00  0.00    +0.000 A 
ATOM      3  C   UNL     1       3.674   2.723  17.549  0.00  0.00    +0.000 A 
ATOM      4  C   UNL     1       2.546   2.042  18.022  0.00  0.00    +0.000 A 
ATOM      5  C   UNL     1       1.433   2.754  18.454  0.00  0.00    +0.000 A 
ATOM      6  F   UNL     1       0.381   2.095  18.957  0.00  0.00    +0.000 F 
ATOM      7  C   UNL     1       1.398   4.136  18.371  0.00  0.00    +0.000 A 
ATOM      8  C   UNL     1       2.506   4.802  17.860  0.00  0.00    +0.000 A 
ATOM      9  F   UNL     1       2.454   6.140  17.778  0.00  0.00    +0.000 F 
ENDBRANCH   1   2
BRANCH   1  11
ATOM     10  C   UNL     1       6.402   4.449  15.071  0.00  0.00    +0.000 C 
ATOM     11  C   UNL     1       5.122   5.158  15.560  0.00  0.00    +0.000 C 
ATOM     12  C   UNL     1       5.209   6.631  15.143  0.00  0.00    +0.000 C 
ENDBRANCH   1  11
BRANCH   1  13
ATOM     13  N   UNL     1       6.168   4.327  17.596  0.00  0.00    +0.000 NA
ATOM     14  H   UNL     1       6.082   3.346  17.868  0.00  0.00    +0.000 HD
BRANCH  13  15
ATOM     15  S   UNL     1       7.256   5.093  18.602  0.00  0.00    +0.000 S 
ATOM     16  C   UNL     1       7.478   6.708  17.879  0.00  0.00    +0.000 C 
ATOM     17  O   UNL     1       6.659   5.228  19.907  0.00  0.00    +0.000 OA
ATOM     18  O   UNL     1       8.493   4.359  18.445  0.00  0.00    +0.000 OA
ENDBRANCH  13  15
ENDBRANCH   1  13
TORSDOF 4
ENDMDL
MODEL 3
REMARK VINA RESULT:      -6.6      1.572      1.831
REMARK  Name = 
REMARK  7 active torsions:
REMARK  status: ('A' for Active; 'I' for Inactive)
REMARK    1  A    between atoms: C_1  and  C_2
REMARK    2  A    between atoms: C_2  and  C_3
REMARK    3  A    between atoms: C_2  and  C_4
REMARK    4  A    between atoms: C_4  and  N_5
REMARK    5  A    between atoms: C_4  and  C_10
REMARK    6  A    between atoms: N_5  and  S_6
REMARK    7  A    between atoms: S_6  and  C_7
REMARK                            x       y       z     vdW  Elec       q    Type
REMARK                         _______ _______ _______ _____ _____    ______ ____
ROOT
ATOM      1  C   UNL     1       4.664   5.590  18.606  0.00  0.00    +0.000 C 
ENDROOT
BRANCH   1   2
ATOM      2  C   UNL     1       3.757   4.686  19.424  0.00  0.00    +0.000 A 
ATOM      3  C   UNL     1       3.954   3.300  19.541  0.00  0.00    +0.000 A 
ATOM      4  C   UNL     1       3.158   2.541  20.407  0.00  0.00    +0.000 A 
ATOM      5  C   UNL     1       2.186   3.163  21.185  0.00  0.00    +0.000 A 
ATOM      6  F   UNL     1       1.468   2.436  22.050  0.00  0.00    +0.000 F 
ATOM      7  C   UNL     1       1.953   4.523  21.075  0.00  0.00    +0.000 A 
ATOM      8  C   UNL     1       2.719   5.262  20.180  0.00  0.00    +0.000 A 
ATOM      9  F   UNL     1       2.475   6.578  20.079  0.00  0.00    +0.000 F 
ENDBRANCH   1   2
BRANCH   1  11
ATOM     10  C   UNL     1       4.999   6.017  16.101  0.00  0.00    +0.000 C 
ATOM     11  C   UNL     1       4.033   6.170  17.295  0.00  0.00    +0.000 C 
ATOM     12  C   UNL     1       3.629   7.646  17.390  0.00  0.00    +0.000 C 
ENDBRANCH   1  11
BRANCH   1  13
ATOM     13  N   UNL     1       5.917   4.911  18.186  0.00  0.00    +0.000 NA
ATOM     14  H   UNL     1       5.838   3.895  18.104  0.00  0.00    +0.000 HD
BRANCH  13  15
ATOM     15  S   UNL     1       7.442   5.310  18.735  0.00  0.00    +0.000 S 
ATOM     16  C   UNL     1       7.733   6.950  18.099  0.00  0.00    +0.000 C 
ATOM     17  O   UNL     1       7.415   5.349  20.175  0.00  0.00    +0.000 OA
ATOM     18  O   UNL     1       8.336   4.400  18.052  0.00  0.00    +0.000 OA
ENDBRANCH  13  15
ENDBRANCH   1  13
TORSDOF 4
ENDMDL
MODEL 4
REMARK VINA RESULT:      -6.5      1.383      1.553
REMARK  Name = 
REMARK  7 active torsions:
REMARK  status: ('A' for Active; 'I' for Inactive)
REMARK    1  A    between atoms: C_1  and  C_2
REMARK    2  A    between atoms: C_2  and  C_3
REMARK    3  A    between atoms: C_2  and  C_4
REMARK    4  A    between atoms: C_4  and  N_5
REMARK    5  A    between atoms: C_4  and  C_10
REMARK    6  A    between atoms: N_5  and  S_6
REMARK    7  A    between atoms: S_6  and  C_7
REMARK                            x       y       z     vdW  Elec       q    Type
REMARK                         _______ _______ _______ _____ _____    ______ ____
ROOT
ATOM      1  C   UNL     1       4.923   4.770  16.878  0.00  0.00    +0.000 C 
ENDROOT
BRANCH   1   2
ATOM      2  C   UNL     1       3.690   4.062  17.413  0.00  0.00    +0.000 A 
ATOM      3  C   UNL     1       3.613   2.669  17.581  0.00  0.00    +0.000 A 
ATOM      4  C   UNL     1       2.496   2.089  18.193  0.00  0.00    +0.000 A 
ATOM      5  C   UNL     1       1.467   2.894  18.671  0.00  0.00    +0.000 A 
ATOM      6  F   UNL     1       0.429   2.332  19.304  0.00  0.00    +0.000 F 
ATOM      7  C   UNL     1       1.503   4.267  18.500  0.00  0.00    +0.000 A 
ATOM      8  C   UNL     1       2.596   4.831  17.853  0.00  0.00    +0.000 A 
ATOM      9  F   UNL     1       2.612   6.163  17.688  0.00  0.00    +0.000 F 
ENDBRANCH   1   2
BRANCH   1  11
ATOM     10  C   UNL     1       6.091   3.917  14.762  0.00  0.00    +0.000 C 
ATOM     11  C   UNL     1       5.017   4.875  15.318  0.00  0.00    +0.000 C 
ATOM     12  C   UNL     1       5.325   6.284  14.799  0.00  0.00    +0.000 C 
ENDBRANCH   1  11
BRANCH   1  13
ATOM     13  N   UNL     1       6.187   4.123  17.317  0.00  0.00    +0.000 NA
ATOM     14  H   UNL     1       6.056   3.262  17.850  0.00  0.00    +0.000 HD
BRANCH  13  15
ATOM     15  S   UNL     1       7.519   4.944  17.898  0.00  0.00    +0.000 S 
ATOM     16  C   UNL     1       7.050   5.456  19.540  0.00  0.00    +0.000 C 
ATOM     17  O   UNL     1       8.626   4.024  17.978  0.00  0.00    +0.000 OA
ATOM     18  O   UNL     1       7.620   6.127  17.072  0.00  0.00    +0.000 OA
ENDBRANCH  13  15
ENDBRANCH   1  13
TORSDOF 4
ENDMDL
MODEL 5
REMARK VINA RESULT:      -6.5      1.330      1.656
REMARK  Name = 
REMARK  7 active torsions:
REMARK  status: ('A' for Active; 'I' for Inactive)
REMARK    1  A    between atoms: C_1  and  C_2
REMARK    2  A    between atoms: C_2  and  C_3
REMARK    3  A    between atoms: C_2  and  C_4
REMARK    4  A    between atoms: C_4  and  N_5
REMARK    5  A    between atoms: C_4  and  C_10
REMARK    6  A    between atoms: N_5  and  S_6
REMARK    7  A    between atoms: S_6  and  C_7
REMARK                            x       y       z     vdW  Elec       q    Type
REMARK                         _______ _______ _______ _____ _____    ______ ____
ROOT
ATOM      1  C   UNL     1       4.914   4.780  17.318  0.00  0.00    +0.000 C 
ENDROOT
BRANCH   1   2
ATOM      2  C   UNL     1       3.655   4.199  17.940  0.00  0.00    +0.000 A 
ATOM      3  C   UNL     1       2.670   4.983  18.562  0.00  0.00    +0.000 A 
ATOM      4  C   UNL     1       1.476   4.402  19.007  0.00  0.00    +0.000 A 
ATOM      5  C   UNL     1       1.245   3.045  18.804  0.00  0.00    +0.000 A 
ATOM      6  F   UNL     1       0.077   2.511  19.184  0.00  0.00    +0.000 F 
ATOM      7  C   UNL     1       2.206   2.242  18.216  0.00  0.00    +0.000 A 
ATOM      8  C   UNL     1       3.406   2.819  17.816  0.00  0.00    +0.000 A 
ATOM      9  F   UNL     1       4.331   2.025  17.254  0.00  0.00    +0.000 F 
ENDBRANCH   1   2
BRANCH   1  11
ATOM     10  C   UNL     1       6.102   3.766  15.286  0.00  0.00    +0.000 C 
ATOM     11  C   UNL     1       4.983   4.719  15.754  0.00  0.00    +0.000 C 
ATOM     12  C   UNL     1       5.207   6.078  15.080  0.00  0.00    +0.000 C 
ENDBRANCH   1  11
BRANCH   1  13
ATOM     13  N   UNL     1       6.150   4.113  17.804  0.00  0.00    +0.000 NA
ATOM     14  H   UNL     1       5.987   3.237  18.303  0.00  0.00    +0.000 HD
BRANCH  13  15
ATOM     15  S   UNL     1       7.452   4.908  18.481  0.00  0.00    +0.000 S 
ATOM     16  C   UNL     1       7.459   6.509  17.696  0.00  0.00    +0.000 C 
ATOM     17  O   UNL     1       7.211   5.065  19.893  0.00  0.00    +0.000 OA
ATOM     18  O   UNL     1       8.615   4.180  18.022  0.00  0.00    +0.000 OA
ENDBRANCH  13  15
ENDBRANCH   1  13
TORSDOF 4
ENDMDL
MODEL 6
REMARK VINA RESULT:      -6.5      1.564      2.159
REMARK  Name = 
REMARK  7 active torsions:
REMARK  status: ('A' for Active; 'I' for Inactive)
REMARK    1  A    between atoms: C_1  and  C_2
REMARK    2  A    between atoms: C_2  and  C_3
REMARK    3  A    between atoms: C_2  and  C_4
REMARK    4  A    between atoms: C_4  and  N_5
REMARK    5  A    between atoms: C_4  and  C_10
REMARK    6  A    between atoms: N_5  and  S_6
REMARK    7  A    between atoms: S_6  and  C_7
REMARK                            x       y       z     vdW  Elec       q    Type
REMARK                         _______ _______ _______ _____ _____    ______ ____
ROOT
ATOM      1  C   UNL     1       4.690   4.748  18.390  0.00  0.00    +0.000 C 
ENDROOT
BRANCH   1   2
ATOM      2  C   UNL     1       3.774   4.309  19.520  0.00  0.00    +0.000 A 
ATOM      3  C   UNL     1       2.799   5.143  20.090  0.00  0.00    +0.000 A 
ATOM      4  C   UNL     1       1.904   4.641  21.042  0.00  0.00    +0.000 A 
ATOM      5  C   UNL     1       1.955   3.299  21.406  0.00  0.00    +0.000 A 
ATOM      6  F   UNL     1       1.060   2.817  22.277  0.00  0.00    +0.000 F 
ATOM      7  C   UNL     1       2.920   2.457  20.880  0.00  0.00    +0.000 A 
ATOM      8  C   UNL     1       3.831   2.975  19.966  0.00  0.00    +0.000 A 
ATOM      9  F   UNL     1       4.765   2.148  19.471  0.00  0.00    +0.000 F 
ENDBRANCH   1   2
BRANCH   1  11
ATOM     10  C   UNL     1       2.888   3.585  16.987  0.00  0.00    +0.000 C 
ATOM     11  C   UNL     1       4.182   4.423  16.944  0.00  0.00    +0.000 C 
ATOM     12  C   UNL     1       5.199   3.679  16.071  0.00  0.00    +0.000 C 
ENDBRANCH   1  11
BRANCH   1  13
ATOM     13  N   UNL     1       6.045   4.145  18.487  0.00  0.00    +0.000 NA
ATOM     14  H   UNL     1       6.127   3.407  19.189  0.00  0.00    +0.000 HD
BRANCH  13  15
ATOM     15  S   UNL     1       7.473   5.005  18.410  0.00  0.00    +0.000 S 
ATOM     16  C   UNL     1       7.032   6.539  17.615  0.00  0.00    +0.000 C 
ATOM     17  O   UNL     1       7.923   5.270  19.753  0.00  0.00    +0.000 OA
ATOM     18  O   UNL     1       8.313   4.255  17.500  0.00  0.00    +0.000 OA
ENDBRANCH  13  15
ENDBRANCH   1  13
TORSDOF 4
ENDMDL
MODEL 7
REMARK VINA RESULT:      -6.5      1.543      1.806
REMARK  Name = 
REMARK  7 active torsions:
REMARK  status: ('A' for Active; 'I' for Inactive)
REMARK    1  A    between atoms: C_1  and  C_2
REMARK    2  A    between atoms: C_2  and  C_3
REMARK    3  A    between atoms: C_2  and  C_4
REMARK    4  A    between atoms: C_4  and  N_5
REMARK    5  A    between atoms: C_4  and  C_10
REMARK    6  A    between atoms: N_5  and  S_6
REMARK    7  A    between atoms: S_6  and  C_7
REMARK                            x       y       z     vdW  Elec       q    Type
REMARK                         _______ _______ _______ _____ _____    ______ ____
ROOT
ATOM      1  C   UNL     1       4.849   5.179  18.469  0.00  0.00    +0.000 C 
ENDROOT
BRANCH   1   2
ATOM      2  C   UNL     1       3.828   4.623  19.447  0.00  0.00    +0.000 A 
ATOM      3  C   UNL     1       2.836   5.409  20.055  0.00  0.00    +0.000 A 
ATOM      4  C   UNL     1       1.849   4.816  20.851  0.00  0.00    +0.000 A 
ATOM      5  C   UNL     1       1.826   3.435  21.017  0.00  0.00    +0.000 A 
ATOM      6  F   UNL     1       0.846   2.872  21.734  0.00  0.00    +0.000 F 
ATOM      7  C   UNL     1       2.803   2.635  20.449  0.00  0.00    +0.000 A 
ATOM      8  C   UNL     1       3.804   3.238  19.696  0.00  0.00    +0.000 A 
ATOM      9  F   UNL     1       4.749   2.450  19.159  0.00  0.00    +0.000 F 
ENDBRANCH   1   2
BRANCH   1  11
ATOM     10  C   UNL     1       5.005   4.128  16.136  0.00  0.00    +0.000 C 
ATOM     11  C   UNL     1       4.380   5.261  16.976  0.00  0.00    +0.000 C 
ATOM     12  C   UNL     1       4.699   6.593  16.288  0.00  0.00    +0.000 C 
ENDBRANCH   1  11
BRANCH   1  13
ATOM     13  N   UNL     1       6.111   4.393  18.453  0.00  0.00    +0.000 NA
ATOM     14  H   UNL     1       6.038   3.473  18.890  0.00  0.00    +0.000 HD
BRANCH  13  15
ATOM     15  S   UNL     1       7.627   5.029  18.738  0.00  0.00    +0.000 S 
ATOM     16  C   UNL     1       7.592   6.637  17.968  0.00  0.00    +0.000 C 
ATOM     17  O   UNL     1       7.802   5.179  20.161  0.00  0.00    +0.000 OA
ATOM     18  O   UNL     1       8.533   4.191  17.982  0.00  0.00    +0.000 OA
ENDBRANCH  13  15
ENDBRANCH   1  13
TORSDOF 4
ENDMDL
MODEL 8
REMARK VINA RESULT:      -6.4      3.264      5.337
REMARK  Name = 
REMARK  7 active torsions:
REMARK  status: ('A' for Active; 'I' for Inactive)
REMARK    1  A    between atoms: C_1  and  C_2
REMARK    2  A    between atoms: C_2  and  C_3
REMARK    3  A    between atoms: C_2  and  C_4
REMARK    4  A    between atoms: C_4  and  N_5
REMARK    5  A    between atoms: C_4  and  C_10
REMARK    6  A    between atoms: N_5  and  S_6
REMARK    7  A    between atoms: S_6  and  C_7
REMARK                            x       y       z     vdW  Elec       q    Type
REMARK                         _______ _______ _______ _____ _____    ______ ____
ROOT
ATOM      1  C   UNL     1       2.920   5.712  18.947  0.00  0.00    +0.000 C 
ENDROOT
BRANCH   1   2
ATOM      2  C   UNL     1       4.080   5.432  18.007  0.00  0.00    +0.000 A 
ATOM      3  C   UNL     1       5.291   6.143  18.045  0.00  0.00    +0.000 A 
ATOM      4  C   UNL     1       6.366   5.757  17.236  0.00  0.00    +0.000 A 
ATOM      5  C   UNL     1       6.251   4.642  16.411  0.00  0.00    +0.000 A 
ATOM      6  F   UNL     1       7.304   4.249  15.683  0.00  0.00    +0.000 F 
ATOM      7  C   UNL     1       5.064   3.935  16.334  0.00  0.00    +0.000 A 
ATOM      8  C   UNL     1       3.987   4.352  17.109  0.00  0.00    +0.000 A 
ATOM      9  F   UNL     1       2.841   3.661  17.018  0.00  0.00    +0.000 F 
ENDBRANCH   1   2
BRANCH   1  11
ATOM     10  C   UNL     1       1.679   7.380  20.447  0.00  0.00    +0.000 C 
ATOM     11  C   UNL     1       2.655   7.224  19.263  0.00  0.00    +0.000 C 
ATOM     12  C   UNL     1       2.098   8.025  18.081  0.00  0.00    +0.000 C 
ENDBRANCH   1  11
BRANCH   1  13
ATOM     13  N   UNL     1       3.082   5.046  20.266  0.00  0.00    +0.000 NA
ATOM     14  H   UNL     1       4.000   5.180  20.695  0.00  0.00    +0.000 HD
BRANCH  13  15
ATOM     15  S   UNL     1       2.508   3.523  20.636  0.00  0.00    +0.000 S 
ATOM     16  C   UNL     1       0.937   3.419  19.801  0.00  0.00    +0.000 C 
ATOM     17  O   UNL     1       3.413   2.546  20.084  0.00  0.00    +0.000 OA
ATOM     18  O   UNL     1       2.257   3.553  22.061  0.00  0.00    +0.000 OA
ENDBRANCH  13  15
ENDBRANCH   1  13
TORSDOF 4
ENDMDL
MODEL 9
REMARK VINA RESULT:      -6.4      0.871      1.040
REMARK  Name = 
REMARK  7 active torsions:
REMARK  status: ('A' for Active; 'I' for Inactive)
REMARK    1  A    between atoms: C_1  and  C_2
REMARK    2  A    between atoms: C_2  and  C_3
REMARK    3  A    between atoms: C_2  and  C_4
REMARK    4  A    between atoms: C_4  and  N_5
REMARK    5  A    between atoms: C_4  and  C_10
REMARK    6  A    between atoms: N_5  and  S_6
REMARK    7  A    between atoms: S_6  and  C_7
REMARK                            x       y       z     vdW  Elec       q    Type
REMARK                         _______ _______ _______ _____ _____    ______ ____
ROOT
ATOM      1  C   UNL     1       4.897   4.978  17.252  0.00  0.00    +0.000 C 
ENDROOT
BRANCH   1   2
ATOM      2  C   UNL     1       3.620   4.587  17.975  0.00  0.00    +0.000 A 
ATOM      3  C   UNL     1       2.651   3.735  17.421  0.00  0.00    +0.000 A 
ATOM      4  C   UNL     1       1.555   3.314  18.185  0.00  0.00    +0.000 A 
ATOM      5  C   UNL     1       1.439   3.711  19.513  0.00  0.00    +0.000 A 
ATOM      6  F   UNL     1       0.417   3.258  20.250  0.00  0.00    +0.000 F 
ATOM      7  C   UNL     1       2.365   4.569  20.081  0.00  0.00    +0.000 A 
ATOM      8  C   UNL     1       3.426   5.016  19.302  0.00  0.00    +0.000 A 
ATOM      9  F   UNL     1       4.311   5.854  19.865  0.00  0.00    +0.000 F 
ENDBRANCH   1   2
BRANCH   1  11
ATOM     10  C   UNL     1       5.875   3.534  15.374  0.00  0.00    +0.000 C 
ATOM     11  C   UNL     1       4.915   4.693  15.712  0.00  0.00    +0.000 C 
ATOM     12  C   UNL     1       5.310   5.900  14.852  0.00  0.00    +0.000 C 
ENDBRANCH   1  11
BRANCH   1  13
ATOM     13  N   UNL     1       6.097   4.295  17.804  0.00  0.00    +0.000 NA
ATOM     14  H   UNL     1       5.901   3.669  18.586  0.00  0.00    +0.000 HD
BRANCH  13  15
ATOM     15  S   UNL     1       7.582   5.022  18.027  0.00  0.00    +0.000 S 
ATOM     16  C   UNL     1       7.557   5.587  19.718  0.00  0.00    +0.000 C 
ATOM     17  O   UNL     1       8.610   4.024  17.867  0.00  0.00    +0.000 OA
ATOM     18  O   UNL     1       7.563   6.185  17.166  0.00  0.00    +0.000 OA
ENDBRANCH  13  15
ENDBRANCH   1  13
TORSDOF 4
ENDMDL
