MODEL 1
REMARK VINA RESULT:      -7.0      0.000      0.000
REMARK  Name = 
REMARK  8 active torsions:
REMARK  status: ('A' for Active; 'I' for Inactive)
REMARK    1  A    between atoms: C_1  and  C_2
REMARK    2  A    between atoms: C_2  and  C_3
REMARK    3  A    between atoms: C_2  and  C_4
REMARK    4  A    between atoms: C_2  and  C_5
REMARK    5  A    between atoms: C_5  and  N_6
REMARK    6  A    between atoms: N_10  and  C_11
REMARK    7  A    between atoms: C_11  and  C_12
REMARK    8  A    between atoms: C_12  and  N_13
REMARK                            x       y       z     vdW  Elec       q    Type
REMARK                         _______ _______ _______ _____ _____    ______ ____
ROOT
ATOM      1  N   UNL     1       4.568   3.687  18.193  0.00  0.00    +0.000 NA
ATOM      2  C   UNL     1       3.349   3.970  17.411  0.00  0.00    +0.000 C 
ATOM      3  C   UNL     1       2.244   2.910  17.416  0.00  0.00    +0.000 C 
ATOM      4  C   UNL     1       1.788   2.297  18.736  0.00  0.00    +0.000 C 
ATOM      5  N   UNL     1       1.910   3.068  19.965  0.00  0.00    +0.000 NA
ATOM      6  C   UNL     1       3.301   3.062  20.415  0.00  0.00    +0.000 C 
ATOM      7  C   UNL     1       4.343   3.893  19.637  0.00  0.00    +0.000 C 
ENDROOT
BRANCH   1   8
ATOM      8  C   UNL     1       5.649   4.610  17.714  0.00  0.00    +0.000 C 
BRANCH   8  10
ATOM      9  C   UNL     1       5.296   5.926  15.573  0.00  0.00    +0.000 C 
ATOM     10  C   UNL     1       5.993   4.701  16.186  0.00  0.00    +0.000 C 
ATOM     11  C   UNL     1       5.690   3.445  15.343  0.00  0.00    +0.000 C 
ATOM     12  C   UNL     1       7.526   4.894  16.070  0.00  0.00    +0.000 C 
ENDBRANCH   8  10
ENDBRANCH   1   8
BRANCH   5  13
ATOM     13  C   UNL     1       1.304   4.404  19.995  0.00  0.00    +0.000 C 
BRANCH  13  14
ATOM     14  C   UNL     1       2.215   5.502  20.554  0.00  0.00    +0.000 C 
BRANCH  14  15
ATOM     15  N   UNL     1       2.103   6.731  19.779  0.00  0.00    +0.000 N 
ATOM     16  C   UNL     1       2.609   6.877  18.511  0.00  0.00    +0.000 A 
ATOM     17  C   UNL     1       2.348   8.162  18.096  0.00  0.00    +0.000 A 
ATOM     18  C   UNL     1       1.651   8.822  19.137  0.00  0.00    +0.000 A 
ATOM     19  C   UNL     1       1.136  10.125  19.280  0.00  0.00    +0.000 A 
ATOM     20  C   UNL     1       0.472  10.478  20.457  0.00  0.00    +0.000 A 
ATOM     21  C   UNL     1       0.313   9.552  21.478  0.00  0.00    +0.000 A 
ATOM     22 BR   UNL     1      -0.601  10.051  23.060  0.00  0.00    +0.000 Br
ATOM     23  C   UNL     1       0.820   8.248  21.369  0.00  0.00    +0.000 A 
ATOM     24  C   UNL     1       1.494   7.903  20.182  0.00  0.00    +0.000 A 
ENDBRANCH  14  15
ENDBRANCH  13  14
ENDBRANCH   5  13
TORSDOF 5
ENDMDL
MODEL 2
REMARK VINA RESULT:      -7.0      0.847      1.022
REMARK  Name = 
REMARK  8 active torsions:
REMARK  status: ('A' for Active; 'I' for Inactive)
REMARK    1  A    between atoms: C_1  and  C_2
REMARK    2  A    between atoms: C_2  and  C_3
REMARK    3  A    between atoms: C_2  and  C_4
REMARK    4  A    between atoms: C_2  and  C_5
REMARK    5  A    between atoms: C_5  and  N_6
REMARK    6  A    between atoms: N_10  and  C_11
REMARK    7  A    between atoms: C_11  and  C_12
REMARK    8  A    between atoms: C_12  and  N_13
REMARK                            x       y       z     vdW  Elec       q    Type
REMARK                         _______ _______ _______ _____ _____    ______ ____
ROOT
ATOM      1  N   UNL     1       4.669   4.393  17.657  0.00  0.00    +0.000 NA
ATOM      2  C   UNL     1       3.330   4.098  17.111  0.00  0.00    +0.000 C 
ATOM      3  C   UNL     1       2.653   2.801  17.563  0.00  0.00    +0.000 C 
ATOM      4  C   UNL     1       2.613   2.443  19.046  0.00  0.00    +0.000 C 
ATOM      5  N   UNL     1       2.639   3.506  20.040  0.00  0.00    +0.000 NA
ATOM      6  C   UNL     1       4.000   4.021  20.177  0.00  0.00    +0.000 C 
ATOM      7  C   UNL     1       4.589   4.890  19.045  0.00  0.00    +0.000 C 
ENDROOT
BRANCH   1   8
ATOM      8  C   UNL     1       5.304   5.434  16.785  0.00  0.00    +0.000 C 
BRANCH   8  10
ATOM      9  C   UNL     1       7.426   6.824  16.869  0.00  0.00    +0.000 C 
ATOM     10  C   UNL     1       6.856   5.433  16.551  0.00  0.00    +0.000 C 
ATOM     11  C   UNL     1       7.334   4.971  15.159  0.00  0.00    +0.000 C 
ATOM     12  C   UNL     1       7.469   4.409  17.538  0.00  0.00    +0.000 C 
ENDBRANCH   8  10
ENDBRANCH   1   8
BRANCH   5  13
ATOM     13  C   UNL     1       1.633   4.568  19.930  0.00  0.00    +0.000 C 
BRANCH  13  14
ATOM     14  C   UNL     1       1.939   5.821  20.756  0.00  0.00    +0.000 C 
BRANCH  14  15
ATOM     15  N   UNL     1       1.859   7.027  19.942  0.00  0.00    +0.000 N 
ATOM     16  C   UNL     1       2.393   7.129  18.681  0.00  0.00    +0.000 A 
ATOM     17  C   UNL     1       2.156   8.404  18.222  0.00  0.00    +0.000 A 
ATOM     18  C   UNL     1       1.446   9.103  19.228  0.00  0.00    +0.000 A 
ATOM     19  C   UNL     1       0.944  10.416  19.319  0.00  0.00    +0.000 A 
ATOM     20  C   UNL     1       0.260  10.812  20.471  0.00  0.00    +0.000 A 
ATOM     21  C   UNL     1       0.069   9.919  21.516  0.00  0.00    +0.000 A 
ATOM     22 BR   UNL     1      -0.872  10.477  23.062  0.00  0.00    +0.000 Br
ATOM     23  C   UNL     1       0.562   8.607  21.458  0.00  0.00    +0.000 A 
ATOM     24  C   UNL     1       1.256   8.218  20.296  0.00  0.00    +0.000 A 
ENDBRANCH  14  15
ENDBRANCH  13  14
ENDBRANCH   5  13
TORSDOF 5
ENDMDL
MODEL 3
REMARK VINA RESULT:      -7.0      3.222      7.162
REMARK  Name = 
REMARK  8 active torsions:
REMARK  status: ('A' for Active; 'I' for Inactive)
REMARK    1  A    between atoms: C_1  and  C_2
REMARK    2  A    between atoms: C_2  and  C_3
REMARK    3  A    between atoms: C_2  and  C_4
REMARK    4  A    between atoms: C_2  and  C_5
REMARK    5  A    between atoms: C_5  and  N_6
REMARK    6  A    between atoms: N_10  and  C_11
REMARK    7  A    between atoms: C_11  and  C_12
REMARK    8  A    between atoms: C_12  and  N_13
REMARK                            x       y       z     vdW  Elec       q    Type
REMARK                         _______ _______ _______ _____ _____    ______ ____
ROOT
ATOM      1  N   UNL     1       1.500   6.114  20.108  0.00  0.00    +0.000 NA
ATOM      2  C   UNL     1       1.828   5.011  21.031  0.00  0.00    +0.000 C 
ATOM      3  C   UNL     1       1.081   3.687  20.843  0.00  0.00    +0.000 C 
ATOM      4  C   UNL     1       0.961   3.075  19.451  0.00  0.00    +0.000 C 
ATOM      5  N   UNL     1       1.986   3.353  18.455  0.00  0.00    +0.000 NA
ATOM      6  C   UNL     1       1.792   4.696  17.909  0.00  0.00    +0.000 C 
ATOM      7  C   UNL     1       2.131   5.918  18.787  0.00  0.00    +0.000 C 
ENDROOT
BRANCH   1   8
ATOM      8  C   UNL     1       1.997   7.390  20.719  0.00  0.00    +0.000 C 
BRANCH   8  10
ATOM      9  C   UNL     1       1.532   9.327  22.292  0.00  0.00    +0.000 C 
ATOM     10  C   UNL     1       0.990   8.534  21.093  0.00  0.00    +0.000 C 
ATOM     11  C   UNL     1      -0.465   8.098  21.363  0.00  0.00    +0.000 C 
ATOM     12  C   UNL     1       0.897   9.484  19.872  0.00  0.00    +0.000 C 
ENDBRANCH   8  10
ENDBRANCH   1   8
BRANCH   5  13
ATOM     13  C   UNL     1       3.381   3.079  18.817  0.00  0.00    +0.000 C 
BRANCH  13  14
ATOM     14  C   UNL     1       4.273   2.669  17.641  0.00  0.00    +0.000 C 
BRANCH  14  15
ATOM     15  N   UNL     1       5.286   3.679  17.364  0.00  0.00    +0.000 N 
ATOM     16  C   UNL     1       5.841   4.482  18.330  0.00  0.00    +0.000 A 
ATOM     17  C   UNL     1       6.734   5.329  17.715  0.00  0.00    +0.000 A 
ATOM     18  C   UNL     1       6.734   5.030  16.330  0.00  0.00    +0.000 A 
ATOM     19  C   UNL     1       7.431   5.561  15.228  0.00  0.00    +0.000 A 
ATOM     20  C   UNL     1       7.213   5.030  13.954  0.00  0.00    +0.000 A 
ATOM     21  C   UNL     1       6.321   3.983  13.775  0.00  0.00    +0.000 A 
ATOM     22 BR   UNL     1       6.051   3.272  12.040  0.00  0.00    +0.000 Br
ATOM     23  C   UNL     1       5.606   3.436  14.851  0.00  0.00    +0.000 A 
ATOM     24  C   UNL     1       5.828   3.982  16.130  0.00  0.00    +0.000 A 
ENDBRANCH  14  15
ENDBRANCH  13  14
ENDBRANCH   5  13
TORSDOF 5
ENDMDL
MODEL 4
REMARK VINA RESULT:      -6.8      3.154      6.761
REMARK  Name = 
REMARK  8 active torsions:
REMARK  status: ('A' for Active; 'I' for Inactive)
REMARK    1  A    between atoms: C_1  and  C_2
REMARK    2  A    between atoms: C_2  and  C_3
REMARK    3  A    between atoms: C_2  and  C_4
REMARK    4  A    between atoms: C_2  and  C_5
REMARK    5  A    between atoms: C_5  and  N_6
REMARK    6  A    between atoms: N_10  and  C_11
REMARK    7  A    between atoms: C_11  and  C_12
REMARK    8  A    between atoms: C_12  and  N_13
REMARK                            x       y       z     vdW  Elec       q    Type
REMARK                         _______ _______ _______ _____ _____    ______ ____
ROOT
ATOM      1  N   UNL     1       1.740   6.630  18.921  0.00  0.00    +0.000 NA
ATOM      2  C   UNL     1       2.202   6.124  20.228  0.00  0.00    +0.000 C 
ATOM      3  C   UNL     1       1.406   4.980  20.863  0.00  0.00    +0.000 C 
ATOM      4  C   UNL     1       1.032   3.761  20.026  0.00  0.00    +0.000 C 
ATOM      5  N   UNL     1       1.871   3.379  18.900  0.00  0.00    +0.000 NA
ATOM      6  C   UNL     1       1.611   4.267  17.767  0.00  0.00    +0.000 C 
ATOM      7  C   UNL     1       2.124   5.721  17.823  0.00  0.00    +0.000 C 
ENDROOT
BRANCH   1   8
ATOM      8  C   UNL     1       2.362   7.977  18.701  0.00  0.00    +0.000 C 
BRANCH   8  10
ATOM      9  C   UNL     1       0.964   9.662  19.984  0.00  0.00    +0.000 C 
ATOM     10  C   UNL     1       1.462   9.257  18.588  0.00  0.00    +0.000 C 
ATOM     11  C   UNL     1       0.273   9.169  17.608  0.00  0.00    +0.000 C 
ATOM     12  C   UNL     1       2.350  10.397  18.029  0.00  0.00    +0.000 C 
ENDBRANCH   8  10
ENDBRANCH   1   8
BRANCH   5  13
ATOM     13  C   UNL     1       3.302   3.177  19.153  0.00  0.00    +0.000 C 
BRANCH  13  14
ATOM     14  C   UNL     1       4.124   2.823  17.910  0.00  0.00    +0.000 C 
BRANCH  14  15
ATOM     15  N   UNL     1       5.150   3.823  17.647  0.00  0.00    +0.000 N 
ATOM     16  C   UNL     1       5.682   4.637  18.617  0.00  0.00    +0.000 A 
ATOM     17  C   UNL     1       6.598   5.469  18.017  0.00  0.00    +0.000 A 
ATOM     18  C   UNL     1       6.637   5.149  16.637  0.00  0.00    +0.000 A 
ATOM     19  C   UNL     1       7.370   5.659  15.549  0.00  0.00    +0.000 A 
ATOM     20  C   UNL     1       7.187   5.110  14.277  0.00  0.00    +0.000 A 
ATOM     21  C   UNL     1       6.294   4.065  14.087  0.00  0.00    +0.000 A 
ATOM     22 BR   UNL     1       6.072   3.329  12.356  0.00  0.00    +0.000 Br
ATOM     23  C   UNL     1       5.544   3.539  15.150  0.00  0.00    +0.000 A 
ATOM     24  C   UNL     1       5.731   4.103  16.426  0.00  0.00    +0.000 A 
ENDBRANCH  14  15
ENDBRANCH  13  14
ENDBRANCH   5  13
TORSDOF 5
ENDMDL
MODEL 5
REMARK VINA RESULT:      -6.8      1.176      1.703
REMARK  Name = 
REMARK  8 active torsions:
REMARK  status: ('A' for Active; 'I' for Inactive)
REMARK    1  A    between atoms: C_1  and  C_2
REMARK    2  A    between atoms: C_2  and  C_3
REMARK    3  A    between atoms: C_2  and  C_4
REMARK    4  A    between atoms: C_2  and  C_5
REMARK    5  A    between atoms: C_5  and  N_6
REMARK    6  A    between atoms: N_10  and  C_11
REMARK    7  A    between atoms: C_11  and  C_12
REMARK    8  A    between atoms: C_12  and  N_13
REMARK                            x       y       z     vdW  Elec       q    Type
REMARK                         _______ _______ _______ _____ _____    ______ ____
ROOT
ATOM      1  N   UNL     1       4.138   3.405  17.522  0.00  0.00    +0.000 NA
ATOM      2  C   UNL     1       3.003   4.235  17.075  0.00  0.00    +0.000 C 
ATOM      3  C   UNL     1       1.665   4.049  17.798  0.00  0.00    +0.000 C 
ATOM      4  C   UNL     1       1.623   4.029  19.322  0.00  0.00    +0.000 C 
ATOM      5  N   UNL     1       2.638   4.750  20.077  0.00  0.00    +0.000 NA
ATOM      6  C   UNL     1       3.887   3.988  20.077  0.00  0.00    +0.000 C 
ATOM      7  C   UNL     1       4.718   3.915  18.780  0.00  0.00    +0.000 C 
ENDROOT
BRANCH   1   8
ATOM      8  C   UNL     1       5.178   3.426  16.442  0.00  0.00    +0.000 C 
BRANCH   8  10
ATOM      9  C   UNL     1       7.279   4.545  17.321  0.00  0.00    +0.000 C 
ATOM     10  C   UNL     1       6.142   4.655  16.294  0.00  0.00    +0.000 C 
ATOM     11  C   UNL     1       5.486   6.049  16.380  0.00  0.00    +0.000 C 
ATOM     12  C   UNL     1       6.752   4.593  14.871  0.00  0.00    +0.000 C 
ENDBRANCH   8  10
ENDBRANCH   1   8
BRANCH   5  13
ATOM     13  C   UNL     1       2.833   6.171  19.772  0.00  0.00    +0.000 C 
BRANCH  13  14
ATOM     14  C   UNL     1       1.816   7.108  20.431  0.00  0.00    +0.000 C 
BRANCH  14  15
ATOM     15  N   UNL     1       1.590   8.300  19.624  0.00  0.00    +0.000 N 
ATOM     16  C   UNL     1       2.061   8.449  18.343  0.00  0.00    +0.000 A 
ATOM     17  C   UNL     1       1.687   9.696  17.897  0.00  0.00    +0.000 A 
ATOM     18  C   UNL     1       0.955  10.327  18.932  0.00  0.00    +0.000 A 
ATOM     19  C   UNL     1       0.336  11.586  19.047  0.00  0.00    +0.000 A 
ATOM     20  C   UNL     1      -0.336  11.918  20.227  0.00  0.00    +0.000 A 
ATOM     21  C   UNL     1      -0.400  11.012  21.276  0.00  0.00    +0.000 A 
ATOM     22 BR   UNL     1      -1.327  11.481  22.860  0.00  0.00    +0.000 Br
ATOM     23  C   UNL     1       0.212   9.752  21.195  0.00  0.00    +0.000 A 
ATOM     24  C   UNL     1       0.892   9.429  20.005  0.00  0.00    +0.000 A 
ENDBRANCH  14  15
ENDBRANCH  13  14
ENDBRANCH   5  13
TORSDOF 5
ENDMDL
MODEL 6
REMARK VINA RESULT:      -6.8      3.057      5.351
REMARK  Name = 
REMARK  8 active torsions:
REMARK  status: ('A' for Active; 'I' for Inactive)
REMARK    1  A    between atoms: C_1  and  C_2
REMARK    2  A    between atoms: C_2  and  C_3
REMARK    3  A    between atoms: C_2  and  C_4
REMARK    4  A    between atoms: C_2  and  C_5
REMARK    5  A    between atoms: C_5  and  N_6
REMARK    6  A    between atoms: N_10  and  C_11
REMARK    7  A    between atoms: C_11  and  C_12
REMARK    8  A    between atoms: C_12  and  N_13
REMARK                            x       y       z     vdW  Elec       q    Type
REMARK                         _______ _______ _______ _____ _____    ______ ____
ROOT
ATOM      1  N   UNL     1       6.189   4.534  14.617  0.00  0.00    +0.000 NA
ATOM      2  C   UNL     1       6.604   4.041  15.944  0.00  0.00    +0.000 C 
ATOM      3  C   UNL     1       7.565   4.917  16.754  0.00  0.00    +0.000 C 
ATOM      4  C   UNL     1       7.287   6.409  16.905  0.00  0.00    +0.000 C 
ATOM      5  N   UNL     1       5.915   6.892  16.842  0.00  0.00    +0.000 NA
ATOM      6  C   UNL     1       5.467   6.925  15.451  0.00  0.00    +0.000 C 
ATOM      7  C   UNL     1       5.168   5.595  14.730  0.00  0.00    +0.000 C 
ENDROOT
BRANCH   1   8
ATOM      8  C   UNL     1       5.629   3.375  13.848  0.00  0.00    +0.000 C 
BRANCH   8  10
ATOM      9  C   UNL     1       4.555   3.660  11.566  0.00  0.00    +0.000 C 
ATOM     10  C   UNL     1       5.849   3.271  12.297  0.00  0.00    +0.000 C 
ATOM     11  C   UNL     1       6.366   1.916  11.772  0.00  0.00    +0.000 C 
ATOM     12  C   UNL     1       6.955   4.288  11.921  0.00  0.00    +0.000 C 
ENDBRANCH   8  10
ENDBRANCH   1   8
BRANCH   5  13
ATOM     13  C   UNL     1       4.935   6.281  17.746  0.00  0.00    +0.000 C 
BRANCH  13  14
ATOM     14  C   UNL     1       3.615   7.050  17.865  0.00  0.00    +0.000 C 
BRANCH  14  15
ATOM     15  N   UNL     1       2.801   6.543  18.961  0.00  0.00    +0.000 N 
ATOM     16  C   UNL     1       2.080   7.349  19.807  0.00  0.00    +0.000 A 
ATOM     17  C   UNL     1       1.456   6.543  20.732  0.00  0.00    +0.000 A 
ATOM     18  C   UNL     1       1.796   5.200  20.437  0.00  0.00    +0.000 A 
ATOM     19  C   UNL     1       1.461   3.968  21.030  0.00  0.00    +0.000 A 
ATOM     20  C   UNL     1       1.962   2.783  20.485  0.00  0.00    +0.000 A 
ATOM     21  C   UNL     1       2.779   2.817  19.364  0.00  0.00    +0.000 A 
ATOM     22 BR   UNL     1       3.435   1.196  18.636  0.00  0.00    +0.000 Br
ATOM     23  C   UNL     1       3.135   4.028  18.753  0.00  0.00    +0.000 A 
ATOM     24  C   UNL     1       2.631   5.218  19.314  0.00  0.00    +0.000 A 
ENDBRANCH  14  15
ENDBRANCH  13  14
ENDBRANCH   5  13
TORSDOF 5
ENDMDL
MODEL 7
REMARK VINA RESULT:      -6.7      0.960      1.246
REMARK  Name = 
REMARK  8 active torsions:
REMARK  status: ('A' for Active; 'I' for Inactive)
REMARK    1  A    between atoms: C_1  and  C_2
REMARK    2  A    between atoms: C_2  and  C_3
REMARK    3  A    between atoms: C_2  and  C_4
REMARK    4  A    between atoms: C_2  and  C_5
REMARK    5  A    between atoms: C_5  and  N_6
REMARK    6  A    between atoms: N_10  and  C_11
REMARK    7  A    between atoms: C_11  and  C_12
REMARK    8  A    between atoms: C_12  and  N_13
REMARK                            x       y       z     vdW  Elec       q    Type
REMARK                         _______ _______ _______ _____ _____    ______ ____
ROOT
ATOM      1  N   UNL     1       4.157   4.423  17.908  0.00  0.00    +0.000 NA
ATOM      2  C   UNL     1       2.759   4.458  17.436  0.00  0.00    +0.000 C 
ATOM      3  C   UNL     1       1.814   3.365  17.946  0.00  0.00    +0.000 C 
ATOM      4  C   UNL     1       1.769   3.037  19.435  0.00  0.00    +0.000 C 
ATOM      5  N   UNL     1       2.104   4.067  20.407  0.00  0.00    +0.000 NA
ATOM      6  C   UNL     1       3.555   4.238  20.465  0.00  0.00    +0.000 C 
ATOM      7  C   UNL     1       4.273   4.932  19.289  0.00  0.00    +0.000 C 
ENDROOT
BRANCH   1   8
ATOM      8  C   UNL     1       4.977   5.275  16.985  0.00  0.00    +0.000 C 
BRANCH   8  10
ATOM      9  C   UNL     1       6.014   3.434  15.580  0.00  0.00    +0.000 C 
ATOM     10  C   UNL     1       6.308   4.720  16.368  0.00  0.00    +0.000 C 
ATOM     11  C   UNL     1       7.469   4.480  17.356  0.00  0.00    +0.000 C 
ATOM     12  C   UNL     1       6.842   5.792  15.385  0.00  0.00    +0.000 C 
ENDBRANCH   8  10
ENDBRANCH   1   8
BRANCH   5  13
ATOM     13  C   UNL     1       1.379   5.340  20.329  0.00  0.00    +0.000 C 
BRANCH  13  14
ATOM     14  C   UNL     1       2.211   6.569  20.710  0.00  0.00    +0.000 C 
BRANCH  14  15
ATOM     15  N   UNL     1       1.903   7.707  19.853  0.00  0.00    +0.000 N 
ATOM     16  C   UNL     1       2.346   7.824  18.559  0.00  0.00    +0.000 A 
ATOM     17  C   UNL     1       1.892   9.024  18.062  0.00  0.00    +0.000 A 
ATOM     18  C   UNL     1       1.139   9.658  19.080  0.00  0.00    +0.000 A 
ATOM     19  C   UNL     1       0.448  10.883  19.149  0.00  0.00    +0.000 A 
ATOM     20  C   UNL     1      -0.224  11.230  20.323  0.00  0.00    +0.000 A 
ATOM     21  C   UNL     1      -0.219  10.372  21.414  0.00  0.00    +0.000 A 
ATOM     22 BR   UNL     1      -1.149  10.859  22.991  0.00  0.00    +0.000 Br
ATOM     23  C   UNL     1       0.465   9.148  21.380  0.00  0.00    +0.000 A 
ATOM     24  C   UNL     1       1.146   8.810  20.194  0.00  0.00    +0.000 A 
ENDBRANCH  14  15
ENDBRANCH  13  14
ENDBRANCH   5  13
TORSDOF 5
ENDMDL
MODEL 8
REMARK VINA RESULT:      -6.6      0.703      1.254
REMARK  Name = 
REMARK  8 active torsions:
REMARK  status: ('A' for Active; 'I' for Inactive)
REMARK    1  A    between atoms: C_1  and  C_2
REMARK    2  A    between atoms: C_2  and  C_3
REMARK    3  A    between atoms: C_2  and  C_4
REMARK    4  A    between atoms: C_2  and  C_5
REMARK    5  A    between atoms: C_5  and  N_6
REMARK    6  A    between atoms: N_10  and  C_11
REMARK    7  A    between atoms: C_11  and  C_12
REMARK    8  A    between atoms: C_12  and  N_13
REMARK                            x       y       z     vdW  Elec       q    Type
REMARK                         _______ _______ _______ _____ _____    ______ ____
ROOT
ATOM      1  N   UNL     1       4.295   3.286  17.793  0.00  0.00    +0.000 NA
ATOM      2  C   UNL     1       2.909   3.285  17.288  0.00  0.00    +0.000 C 
ATOM      3  C   UNL     1       1.963   2.206  17.825  0.00  0.00    +0.000 C 
ATOM      4  C   UNL     1       1.885   1.945  19.325  0.00  0.00    +0.000 C 
ATOM      5  N   UNL     1       2.187   3.022  20.257  0.00  0.00    +0.000 NA
ATOM      6  C   UNL     1       3.635   3.212  20.341  0.00  0.00    +0.000 C 
ATOM      7  C   UNL     1       4.374   3.859  19.152  0.00  0.00    +0.000 C 
ENDROOT
BRANCH   1   8
ATOM      8  C   UNL     1       5.129   4.104  16.852  0.00  0.00    +0.000 C 
BRANCH   8  10
ATOM      9  C   UNL     1       7.608   4.420  17.293  0.00  0.00    +0.000 C 
ATOM     10  C   UNL     1       6.225   5.080  17.408  0.00  0.00    +0.000 C 
ATOM     11  C   UNL     1       6.007   5.603  18.843  0.00  0.00    +0.000 C 
ATOM     12  C   UNL     1       6.206   6.348  16.519  0.00  0.00    +0.000 C 
ENDBRANCH   8  10
ENDBRANCH   1   8
BRANCH   5  13
ATOM     13  C   UNL     1       1.452   4.282  20.104  0.00  0.00    +0.000 C 
BRANCH  13  14
ATOM     14  C   UNL     1       2.115   5.490  20.775  0.00  0.00    +0.000 C 
BRANCH  14  15
ATOM     15  N   UNL     1       2.043   6.675  19.930  0.00  0.00    +0.000 N 
ATOM     16  C   UNL     1       2.563   6.734  18.661  0.00  0.00    +0.000 A 
ATOM     17  C   UNL     1       2.340   7.999  18.170  0.00  0.00    +0.000 A 
ATOM     18  C   UNL     1       1.653   8.737  19.165  0.00  0.00    +0.000 A 
ATOM     19  C   UNL     1       1.173  10.059  19.228  0.00  0.00    +0.000 A 
ATOM     20  C   UNL     1       0.509  10.497  20.377  0.00  0.00    +0.000 A 
ATOM     21  C   UNL     1       0.317   9.635  21.448  0.00  0.00    +0.000 A 
ATOM     22 BR   UNL     1      -0.596  10.249  22.989  0.00  0.00    +0.000 Br
ATOM     23  C   UNL     1       0.789   8.315  21.419  0.00  0.00    +0.000 A 
ATOM     24  C   UNL     1       1.463   7.884  20.259  0.00  0.00    +0.000 A 
ENDBRANCH  14  15
ENDBRANCH  13  14
ENDBRANCH   5  13
TORSDOF 5
ENDMDL
MODEL 9
REMARK VINA RESULT:      -6.6      1.402      1.874
REMARK  Name = 
REMARK  8 active torsions:
REMARK  status: ('A' for Active; 'I' for Inactive)
REMARK    1  A    between atoms: C_1  and  C_2
REMARK    2  A    between atoms: C_2  and  C_3
REMARK    3  A    between atoms: C_2  and  C_4
REMARK    4  A    between atoms: C_2  and  C_5
REMARK    5  A    between atoms: C_5  and  N_6
REMARK    6  A    between atoms: N_10  and  C_11
REMARK    7  A    between atoms: C_11  and  C_12
REMARK    8  A    between atoms: C_12  and  N_13
REMARK                            x       y       z     vdW  Elec       q    Type
REMARK                         _______ _______ _______ _____ _____    ______ ____
ROOT
ATOM      1  N   UNL     1       6.245   4.016  17.205  0.00  0.00    +0.000 NA
ATOM      2  C   UNL     1       4.851   3.700  16.836  0.00  0.00    +0.000 C 
ATOM      3  C   UNL     1       3.983   3.004  17.889  0.00  0.00    +0.000 C 
ATOM      4  C   UNL     1       3.950   3.536  19.318  0.00  0.00    +0.000 C 
ATOM      5  N   UNL     1       4.204   4.949  19.562  0.00  0.00    +0.000 NA
ATOM      6  C   UNL     1       5.639   5.215  19.470  0.00  0.00    +0.000 C 
ATOM      7  C   UNL     1       6.315   5.201  18.083  0.00  0.00    +0.000 C 
ENDROOT
BRANCH   1   8
ATOM      8  C   UNL     1       7.008   4.279  15.942  0.00  0.00    +0.000 C 
BRANCH   8  10
ATOM      9  C   UNL     1       5.426   6.062  15.073  0.00  0.00    +0.000 C 
ATOM     10  C   UNL     1       6.275   4.845  14.675  0.00  0.00    +0.000 C 
ATOM     11  C   UNL     1       5.417   3.840  13.879  0.00  0.00    +0.000 C 
ATOM     12  C   UNL     1       7.367   5.307  13.679  0.00  0.00    +0.000 C 
ENDBRANCH   8  10
ENDBRANCH   1   8
BRANCH   5  13
ATOM     13  C   UNL     1       3.392   5.925  18.828  0.00  0.00    +0.000 C 
BRANCH  13  14
ATOM     14  C   UNL     1       2.336   6.640  19.678  0.00  0.00    +0.000 C 
BRANCH  14  15
ATOM     15  N   UNL     1       2.013   7.951  19.132  0.00  0.00    +0.000 N 
ATOM     16  C   UNL     1       2.395   8.368  17.880  0.00  0.00    +0.000 A 
ATOM     17  C   UNL     1       1.945   9.656  17.706  0.00  0.00    +0.000 A 
ATOM     18  C   UNL     1       1.256  10.038  18.883  0.00  0.00    +0.000 A 
ATOM     19  C   UNL     1       0.597  11.219  19.275  0.00  0.00    +0.000 A 
ATOM     20  C   UNL     1      -0.011  11.284  20.532  0.00  0.00    +0.000 A 
ATOM     21  C   UNL     1       0.028  10.192  21.387  0.00  0.00    +0.000 A 
ATOM     22 BR   UNL     1      -0.814  10.300  23.080  0.00  0.00    +0.000 Br
ATOM     23  C   UNL     1       0.682   9.004  21.028  0.00  0.00    +0.000 A 
ATOM     24  C   UNL     1       1.297   8.950  19.763  0.00  0.00    +0.000 A 
ENDBRANCH  14  15
ENDBRANCH  13  14
ENDBRANCH   5  13
TORSDOF 5
ENDMDL
