MODEL 1
REMARK VINA RESULT:      -8.0      0.000      0.000
REMARK  Name = 
REMARK  6 active torsions:
REMARK  status: ('A' for Active; 'I' for Inactive)
REMARK    1  A    between atoms: C_1  and  C_2
REMARK    2  A    between atoms: C_6  and  C_7
REMARK    3  A    between atoms: C_8  and  N_9
REMARK    4  A    between atoms: C_10  and  C_12
REMARK    5  A    between atoms: C_16  and  N_17
REMARK    6  A    between atoms: C_23  and  C_24
REMARK                            x       y       z     vdW  Elec       q    Type
REMARK                         _______ _______ _______ _____ _____    ______ ____
ROOT
ATOM      1  C   UNL     1      -0.578  11.136  20.724  0.00  0.00    +0.000 A 
ATOM      2  C   UNL     1      -1.348  11.561  19.639  0.00  0.00    +0.000 A 
ATOM      3  C   UNL     1      -1.159  10.999  18.378  0.00  0.00    +0.000 A 
ATOM      4  C   UNL     1      -0.196  10.002  18.199  0.00  0.00    +0.000 A 
ATOM      5  C   UNL     1       0.602   9.560  19.264  0.00  0.00    +0.000 A 
ATOM      6  C   UNL     1       0.411  10.161  20.521  0.00  0.00    +0.000 A 
ENDROOT
BRANCH   5   7
ATOM      7  N   UNL     1       1.561   8.525  19.078  0.00  0.00    +0.000 N 
ATOM      8  C   UNL     1       1.806   7.500  19.985  0.00  0.00    +0.000 C 
ATOM      9  O   UNL     1       1.166   7.142  20.961  0.00  0.00    +0.000 OA
ATOM     10  C   UNL     1       3.098   6.869  19.552  0.00  0.00    +0.000 C 
ATOM     11  C   UNL     1       3.386   5.432  19.937  0.00  0.00    +0.000 C 
ATOM     12  C   UNL     1       4.684   4.986  19.246  0.00  0.00    +0.000 C 
ATOM     13  C   UNL     1       4.683   5.227  17.718  0.00  0.00    +0.000 C 
ATOM     14  C   UNL     1       3.760   4.222  17.016  0.00  0.00    +0.000 C 
ATOM     15  C   UNL     1       4.294   6.688  17.380  0.00  0.00    +0.000 C 
ATOM     16  C   UNL     1       2.977   7.024  18.052  0.00  0.00    +0.000 C 
ATOM     17  C   UNL     1       2.404   8.410  17.974  0.00  0.00    +0.000 C 
ATOM     18  O   UNL     1       2.639   9.213  17.086  0.00  0.00    +0.000 OA
ENDBRANCH   5   7
BRANCH   1  20
ATOM     19  N   UNL     1      -1.600  12.895  22.054  0.00  0.00    +0.000 N 
ATOM     20  C   UNL     1      -0.867  11.717  22.075  0.00  0.00    +0.000 C 
ATOM     21  O   UNL     1      -0.362  11.198  23.063  0.00  0.00    +0.000 OA
ATOM     22  H   UNL     1      -1.608  13.362  21.157  0.00  0.00    +0.000 HD
BRANCH  19  30
ATOM     23  C   UNL     1      -3.834  12.589  24.055  0.00  0.00    +0.000 C 
ATOM     24  C   UNL     1      -2.772  13.653  24.110  0.00  0.00    +0.000 A 
ATOM     25  C   UNL     1      -2.867  14.616  25.133  0.00  0.00    +0.000 A 
ATOM     26  C   UNL     1      -1.968  15.676  25.215  0.00  0.00    +0.000 A 
ATOM     27  C   UNL     1      -0.947  15.789  24.279  0.00  0.00    +0.000 A 
ATOM     28  C   UNL     1      -0.819  14.848  23.246  0.00  0.00    +0.000 A 
ATOM     29  C   UNL     1       0.343  14.983  22.298  0.00  0.00    +0.000 C 
ATOM     30  C   UNL     1      -1.733  13.767  23.163  0.00  0.00    +0.000 A 
ENDBRANCH  19  30
ENDBRANCH   1  20
TORSDOF 3
ENDMDL
MODEL 2
REMARK VINA RESULT:      -8.0      0.216      1.630
REMARK  Name = 
REMARK  6 active torsions:
REMARK  status: ('A' for Active; 'I' for Inactive)
REMARK    1  A    between atoms: C_1  and  C_2
REMARK    2  A    between atoms: C_6  and  C_7
REMARK    3  A    between atoms: C_8  and  N_9
REMARK    4  A    between atoms: C_10  and  C_12
REMARK    5  A    between atoms: C_16  and  N_17
REMARK    6  A    between atoms: C_23  and  C_24
REMARK                            x       y       z     vdW  Elec       q    Type
REMARK                         _______ _______ _______ _____ _____    ______ ____
ROOT
ATOM      1  C   UNL     1      -0.687  11.275  20.778  0.00  0.00    +0.000 A 
ATOM      2  C   UNL     1      -1.484  11.671  19.702  0.00  0.00    +0.000 A 
ATOM      3  C   UNL     1      -1.326  11.076  18.452  0.00  0.00    +0.000 A 
ATOM      4  C   UNL     1      -0.368  10.075  18.275  0.00  0.00    +0.000 A 
ATOM      5  C   UNL     1       0.457   9.661  19.330  0.00  0.00    +0.000 A 
ATOM      6  C   UNL     1       0.298  10.295  20.576  0.00  0.00    +0.000 A 
ENDROOT
BRANCH   5   7
ATOM      7  N   UNL     1       1.412   8.621  19.148  0.00  0.00    +0.000 N 
ATOM      8  C   UNL     1       1.658   7.602  20.060  0.00  0.00    +0.000 C 
ATOM      9  O   UNL     1       1.021   7.253  21.041  0.00  0.00    +0.000 OA
ATOM     10  C   UNL     1       2.946   6.963  19.626  0.00  0.00    +0.000 C 
ATOM     11  C   UNL     1       3.231   5.528  20.020  0.00  0.00    +0.000 C 
ATOM     12  C   UNL     1       4.524   5.073  19.325  0.00  0.00    +0.000 C 
ATOM     13  C   UNL     1       4.516   5.304  17.796  0.00  0.00    +0.000 C 
ATOM     14  C   UNL     1       3.587   4.297  17.105  0.00  0.00    +0.000 C 
ATOM     15  C   UNL     1       4.131   6.764  17.449  0.00  0.00    +0.000 C 
ATOM     16  C   UNL     1       2.818   7.109  18.125  0.00  0.00    +0.000 C 
ATOM     17  C   UNL     1       2.249   8.496  18.040  0.00  0.00    +0.000 C 
ATOM     18  O   UNL     1       2.483   9.292  17.145  0.00  0.00    +0.000 OA
ENDBRANCH   5   7
BRANCH   1  20
ATOM     19  N   UNL     1      -1.707  13.048  22.091  0.00  0.00    +0.000 N 
ATOM     20  C   UNL     1      -0.942  11.891  22.120  0.00  0.00    +0.000 C 
ATOM     21  O   UNL     1      -0.387  11.416  23.104  0.00  0.00    +0.000 OA
ATOM     22  H   UNL     1      -1.760  13.486  21.181  0.00  0.00    +0.000 HD
BRANCH  19  30
ATOM     23  C   UNL     1       0.324  15.224  22.568  0.00  0.00    +0.000 C 
ATOM     24  C   UNL     1      -0.884  14.974  23.428  0.00  0.00    +0.000 A 
ATOM     25  C   UNL     1      -1.042  15.771  24.578  0.00  0.00    +0.000 A 
ATOM     26  C   UNL     1      -2.092  15.559  25.467  0.00  0.00    +0.000 A 
ATOM     27  C   UNL     1      -3.013  14.549  25.219  0.00  0.00    +0.000 A 
ATOM     28  C   UNL     1      -2.891  13.735  24.083  0.00  0.00    +0.000 A 
ATOM     29  C   UNL     1      -3.954  12.699  23.830  0.00  0.00    +0.000 C 
ATOM     30  C   UNL     1      -1.823  13.951  23.176  0.00  0.00    +0.000 A 
ENDBRANCH  19  30
ENDBRANCH   1  20
TORSDOF 3
ENDMDL
MODEL 3
REMARK VINA RESULT:      -8.0      1.980      9.406
REMARK  Name = 
REMARK  6 active torsions:
REMARK  status: ('A' for Active; 'I' for Inactive)
REMARK    1  A    between atoms: C_1  and  C_2
REMARK    2  A    between atoms: C_6  and  C_7
REMARK    3  A    between atoms: C_8  and  N_9
REMARK    4  A    between atoms: C_10  and  C_12
REMARK    5  A    between atoms: C_16  and  N_17
REMARK    6  A    between atoms: C_23  and  C_24
REMARK                            x       y       z     vdW  Elec       q    Type
REMARK                         _______ _______ _______ _____ _____    ______ ____
ROOT
ATOM      1  C   UNL     1       1.887   8.184  19.131  0.00  0.00    +0.000 A 
ATOM      2  C   UNL     1       2.541   8.845  18.090  0.00  0.00    +0.000 A 
ATOM      3  C   UNL     1       2.233  10.171  17.793  0.00  0.00    +0.000 A 
ATOM      4  C   UNL     1       1.266  10.844  18.544  0.00  0.00    +0.000 A 
ATOM      5  C   UNL     1       0.581  10.207  19.589  0.00  0.00    +0.000 A 
ATOM      6  C   UNL     1       0.891   8.861  19.853  0.00  0.00    +0.000 A 
ENDROOT
BRANCH   5   7
ATOM      7  N   UNL     1      -0.382  10.909  20.367  0.00  0.00    +0.000 N 
ATOM      8  C   UNL     1      -0.353  11.022  21.752  0.00  0.00    +0.000 C 
ATOM      9  O   UNL     1       0.539  10.764  22.544  0.00  0.00    +0.000 OA
ATOM     10  C   UNL     1      -1.710  11.527  22.152  0.00  0.00    +0.000 C 
ATOM     11  C   UNL     1      -1.865  12.275  23.461  0.00  0.00    +0.000 C 
ATOM     12  C   UNL     1      -3.302  12.813  23.554  0.00  0.00    +0.000 C 
ATOM     13  C   UNL     1      -3.733  13.636  22.318  0.00  0.00    +0.000 C 
ATOM     14  C   UNL     1      -3.037  15.004  22.313  0.00  0.00    +0.000 C 
ATOM     15  C   UNL     1      -3.468  12.859  21.004  0.00  0.00    +0.000 C 
ATOM     16  C   UNL     1      -2.018  12.418  20.968  0.00  0.00    +0.000 C 
ATOM     17  C   UNL     1      -1.501  11.559  19.849  0.00  0.00    +0.000 C 
ATOM     18  O   UNL     1      -1.984  11.509  18.729  0.00  0.00    +0.000 OA
ENDBRANCH   5   7
BRANCH   1  20
ATOM     19  N   UNL     1       3.015   6.139  18.458  0.00  0.00    +0.000 N 
ATOM     20  C   UNL     1       2.304   6.783  19.461  0.00  0.00    +0.000 C 
ATOM     21  O   UNL     1       1.909   6.278  20.505  0.00  0.00    +0.000 OA
ATOM     22  H   UNL     1       2.925   6.567  17.547  0.00  0.00    +0.000 HD
BRANCH  19  30
ATOM     23  C   UNL     1       0.934   4.209  17.442  0.00  0.00    +0.000 C 
ATOM     24  C   UNL     1       2.290   3.815  17.959  0.00  0.00    +0.000 A 
ATOM     25  C   UNL     1       2.584   2.440  18.036  0.00  0.00    +0.000 A 
ATOM     26  C   UNL     1       3.788   1.986  18.568  0.00  0.00    +0.000 A 
ATOM     27  C   UNL     1       4.728   2.900  19.026  0.00  0.00    +0.000 A 
ATOM     28  C   UNL     1       4.473   4.278  18.964  0.00  0.00    +0.000 A 
ATOM     29  C   UNL     1       5.553   5.225  19.416  0.00  0.00    +0.000 C 
ATOM     30  C   UNL     1       3.248   4.742  18.421  0.00  0.00    +0.000 A 
ENDBRANCH  19  30
ENDBRANCH   1  20
TORSDOF 3
ENDMDL
MODEL 4
REMARK VINA RESULT:      -8.0      1.630      2.220
REMARK  Name = 
REMARK  6 active torsions:
REMARK  status: ('A' for Active; 'I' for Inactive)
REMARK    1  A    between atoms: C_1  and  C_2
REMARK    2  A    between atoms: C_6  and  C_7
REMARK    3  A    between atoms: C_8  and  N_9
REMARK    4  A    between atoms: C_10  and  C_12
REMARK    5  A    between atoms: C_16  and  N_17
REMARK    6  A    between atoms: C_23  and  C_24
REMARK                            x       y       z     vdW  Elec       q    Type
REMARK                         _______ _______ _______ _____ _____    ______ ____
ROOT
ATOM      1  C   UNL     1       0.964  10.076  20.196  0.00  0.00    +0.000 A 
ATOM      2  C   UNL     1       0.795  10.631  18.926  0.00  0.00    +0.000 A 
ATOM      3  C   UNL     1       1.165   9.913  17.790  0.00  0.00    +0.000 A 
ATOM      4  C   UNL     1       1.703   8.631  17.922  0.00  0.00    +0.000 A 
ATOM      5  C   UNL     1       1.896   8.048  19.183  0.00  0.00    +0.000 A 
ATOM      6  C   UNL     1       1.541   8.802  20.317  0.00  0.00    +0.000 A 
ENDROOT
BRANCH   5   7
ATOM      7  N   UNL     1       2.419   6.731  19.308  0.00  0.00    +0.000 N 
ATOM      8  C   UNL     1       2.000   5.797  20.248  0.00  0.00    +0.000 C 
ATOM      9  O   UNL     1       1.021   5.799  20.977  0.00  0.00    +0.000 OA
ATOM     10  C   UNL     1       3.037   4.711  20.240  0.00  0.00    +0.000 C 
ATOM     11  C   UNL     1       2.654   3.318  20.699  0.00  0.00    +0.000 C 
ATOM     12  C   UNL     1       3.839   2.373  20.446  0.00  0.00    +0.000 C 
ATOM     13  C   UNL     1       4.367   2.420  18.993  0.00  0.00    +0.000 C 
ATOM     14  C   UNL     1       3.385   1.724  18.041  0.00  0.00    +0.000 C 
ATOM     15  C   UNL     1       4.655   3.876  18.547  0.00  0.00    +0.000 C 
ATOM     16  C   UNL     1       3.419   4.723  18.776  0.00  0.00    +0.000 C 
ATOM     17  C   UNL     1       3.441   6.203  18.520  0.00  0.00    +0.000 C 
ATOM     18  O   UNL     1       4.200   6.765  17.747  0.00  0.00    +0.000 OA
ENDBRANCH   5   7
BRANCH   1  20
ATOM     19  N   UNL     1      -0.132  12.059  21.077  0.00  0.00    +0.000 N 
ATOM     20  C   UNL     1       0.485  10.855  21.384  0.00  0.00    +0.000 C 
ATOM     21  O   UNL     1       0.758  10.449  22.507  0.00  0.00    +0.000 OA
ATOM     22  H   UNL     1       0.061  12.397  20.143  0.00  0.00    +0.000 HD
BRANCH  19  30
ATOM     23  C   UNL     1      -2.412  11.871  23.039  0.00  0.00    +0.000 C 
ATOM     24  C   UNL     1      -1.454  13.025  22.946  0.00  0.00    +0.000 A 
ATOM     25  C   UNL     1      -1.678  14.129  23.792  0.00  0.00    +0.000 A 
ATOM     26  C   UNL     1      -0.882  15.269  23.721  0.00  0.00    +0.000 A 
ATOM     27  C   UNL     1       0.163  15.325  22.807  0.00  0.00    +0.000 A 
ATOM     28  C   UNL     1       0.419  14.245  21.949  0.00  0.00    +0.000 A 
ATOM     29  C   UNL     1       1.604  14.336  21.024  0.00  0.00    +0.000 C 
ATOM     30  C   UNL     1      -0.390  13.083  22.021  0.00  0.00    +0.000 A 
ENDBRANCH  19  30
ENDBRANCH   1  20
TORSDOF 3
ENDMDL
MODEL 5
REMARK VINA RESULT:      -7.9      2.946      4.024
REMARK  Name = 
REMARK  6 active torsions:
REMARK  status: ('A' for Active; 'I' for Inactive)
REMARK    1  A    between atoms: C_1  and  C_2
REMARK    2  A    between atoms: C_6  and  C_7
REMARK    3  A    between atoms: C_8  and  N_9
REMARK    4  A    between atoms: C_10  and  C_12
REMARK    5  A    between atoms: C_16  and  N_17
REMARK    6  A    between atoms: C_23  and  C_24
REMARK                            x       y       z     vdW  Elec       q    Type
REMARK                         _______ _______ _______ _____ _____    ______ ____
ROOT
ATOM      1  C   UNL     1      -1.689  11.459  18.936  0.00  0.00    +0.000 A 
ATOM      2  C   UNL     1      -1.009  12.678  18.975  0.00  0.00    +0.000 A 
ATOM      3  C   UNL     1       0.382  12.705  19.055  0.00  0.00    +0.000 A 
ATOM      4  C   UNL     1       1.100  11.507  19.092  0.00  0.00    +0.000 A 
ATOM      5  C   UNL     1       0.448  10.266  19.065  0.00  0.00    +0.000 A 
ATOM      6  C   UNL     1      -0.957  10.263  19.011  0.00  0.00    +0.000 A 
ENDROOT
BRANCH   5   7
ATOM      7  N   UNL     1       1.189   9.051  19.075  0.00  0.00    +0.000 N 
ATOM      8  C   UNL     1       1.219   8.149  20.132  0.00  0.00    +0.000 C 
ATOM      9  O   UNL     1       0.510   8.075  21.124  0.00  0.00    +0.000 OA
ATOM     10  C   UNL     1       2.368   7.224  19.853  0.00  0.00    +0.000 C 
ATOM     11  C   UNL     1       2.365   5.835  20.458  0.00  0.00    +0.000 C 
ATOM     12  C   UNL     1       3.559   5.049  19.895  0.00  0.00    +0.000 C 
ATOM     13  C   UNL     1       3.623   5.048  18.349  0.00  0.00    +0.000 C 
ATOM     14  C   UNL     1       2.530   4.142  17.766  0.00  0.00    +0.000 C 
ATOM     15  C   UNL     1       3.530   6.487  17.782  0.00  0.00    +0.000 C 
ATOM     16  C   UNL     1       2.297   7.167  18.342  0.00  0.00    +0.000 C 
ATOM     17  C   UNL     1       2.006   8.609  18.036  0.00  0.00    +0.000 C 
ATOM     18  O   UNL     1       2.404   9.205  17.048  0.00  0.00    +0.000 OA
ENDBRANCH   5   7
BRANCH   1  20
ATOM     19  N   UNL     1      -3.801  12.614  19.275  0.00  0.00    +0.000 N 
ATOM     20  C   UNL     1      -3.179  11.478  18.776  0.00  0.00    +0.000 C 
ATOM     21  O   UNL     1      -3.741  10.482  18.336  0.00  0.00    +0.000 OA
ATOM     22  H   UNL     1      -3.233  13.146  19.921  0.00  0.00    +0.000 HD
BRANCH  19  30
ATOM     23  C   UNL     1      -5.779  12.720  17.003  0.00  0.00    +0.000 C 
ATOM     24  C   UNL     1      -6.142  12.780  18.461  0.00  0.00    +0.000 A 
ATOM     25  C   UNL     1      -7.500  12.967  18.787  0.00  0.00    +0.000 A 
ATOM     26  C   UNL     1      -7.914  13.105  20.109  0.00  0.00    +0.000 A 
ATOM     27  C   UNL     1      -6.978  13.050  21.135  0.00  0.00    +0.000 A 
ATOM     28  C   UNL     1      -5.617  12.863  20.850  0.00  0.00    +0.000 A 
ATOM     29  C   UNL     1      -4.657  12.748  22.004  0.00  0.00    +0.000 C 
ATOM     30  C   UNL     1      -5.194  12.721  19.504  0.00  0.00    +0.000 A 
ENDBRANCH  19  30
ENDBRANCH   1  20
TORSDOF 3
ENDMDL
MODEL 6
REMARK VINA RESULT:      -7.9      2.015      9.529
REMARK  Name = 
REMARK  6 active torsions:
REMARK  status: ('A' for Active; 'I' for Inactive)
REMARK    1  A    between atoms: C_1  and  C_2
REMARK    2  A    between atoms: C_6  and  C_7
REMARK    3  A    between atoms: C_8  and  N_9
REMARK    4  A    between atoms: C_10  and  C_12
REMARK    5  A    between atoms: C_16  and  N_17
REMARK    6  A    between atoms: C_23  and  C_24
REMARK                            x       y       z     vdW  Elec       q    Type
REMARK                         _______ _______ _______ _____ _____    ______ ____
ROOT
ATOM      1  C   UNL     1       1.944   8.072  19.084  0.00  0.00    +0.000 A 
ATOM      2  C   UNL     1       2.571   8.697  18.004  0.00  0.00    +0.000 A 
ATOM      3  C   UNL     1       2.245  10.009  17.664  0.00  0.00    +0.000 A 
ATOM      4  C   UNL     1       1.290  10.703  18.409  0.00  0.00    +0.000 A 
ATOM      5  C   UNL     1       0.634  10.102  19.494  0.00  0.00    +0.000 A 
ATOM      6  C   UNL     1       0.959   8.769  19.801  0.00  0.00    +0.000 A 
ENDROOT
BRANCH   5   7
ATOM      7  N   UNL     1      -0.318  10.826  20.265  0.00  0.00    +0.000 N 
ATOM      8  C   UNL     1      -0.267  10.981  21.645  0.00  0.00    +0.000 C 
ATOM      9  O   UNL     1       0.637  10.747  22.431  0.00  0.00    +0.000 OA
ATOM     10  C   UNL     1      -1.618  11.497  22.052  0.00  0.00    +0.000 C 
ATOM     11  C   UNL     1      -1.753  12.283  23.340  0.00  0.00    +0.000 C 
ATOM     12  C   UNL     1      -3.188  12.823  23.440  0.00  0.00    +0.000 C 
ATOM     13  C   UNL     1      -3.641  13.609  22.186  0.00  0.00    +0.000 C 
ATOM     14  C   UNL     1      -2.946  14.976  22.129  0.00  0.00    +0.000 C 
ATOM     15  C   UNL     1      -3.395  12.792  20.893  0.00  0.00    +0.000 C 
ATOM     16  C   UNL     1      -1.946  12.351  20.846  0.00  0.00    +0.000 C 
ATOM     17  C   UNL     1      -1.446  11.460  19.745  0.00  0.00    +0.000 C 
ATOM     18  O   UNL     1      -1.947  11.375  18.636  0.00  0.00    +0.000 OA
ENDBRANCH   5   7
BRANCH   1  20
ATOM     19  N   UNL     1       3.046   5.999  18.454  0.00  0.00    +0.000 N 
ATOM     20  C   UNL     1       2.379   6.687  19.457  0.00  0.00    +0.000 C 
ATOM     21  O   UNL     1       2.033   6.229  20.540  0.00  0.00    +0.000 OA
ATOM     22  H   UNL     1       2.914   6.386  17.529  0.00  0.00    +0.000 HD
BRANCH  19  30
ATOM     23  C   UNL     1       5.635   4.836  19.470  0.00  0.00    +0.000 C 
ATOM     24  C   UNL     1       4.485   4.030  18.932  0.00  0.00    +0.000 A 
ATOM     25  C   UNL     1       4.655   2.636  18.834  0.00  0.00    +0.000 A 
ATOM     26  C   UNL     1       3.669   1.823  18.281  0.00  0.00    +0.000 A 
ATOM     27  C   UNL     1       2.486   2.388  17.823  0.00  0.00    +0.000 A 
ATOM     28  C   UNL     1       2.278   3.773  17.905  0.00  0.00    +0.000 A 
ATOM     29  C   UNL     1       0.951   4.323  17.453  0.00  0.00    +0.000 C 
ATOM     30  C   UNL     1       3.281   4.602  18.469  0.00  0.00    +0.000 A 
ENDBRANCH  19  30
ENDBRANCH   1  20
TORSDOF 3
ENDMDL
MODEL 7
REMARK VINA RESULT:      -7.9      1.950      9.434
REMARK  Name = 
REMARK  6 active torsions:
REMARK  status: ('A' for Active; 'I' for Inactive)
REMARK    1  A    between atoms: C_1  and  C_2
REMARK    2  A    between atoms: C_6  and  C_7
REMARK    3  A    between atoms: C_8  and  N_9
REMARK    4  A    between atoms: C_10  and  C_12
REMARK    5  A    between atoms: C_16  and  N_17
REMARK    6  A    between atoms: C_23  and  C_24
REMARK                            x       y       z     vdW  Elec       q    Type
REMARK                         _______ _______ _______ _____ _____    ______ ____
ROOT
ATOM      1  C   UNL     1       1.959   8.082  18.994  0.00  0.00    +0.000 A 
ATOM      2  C   UNL     1       2.611   8.638  17.891  0.00  0.00    +0.000 A 
ATOM      3  C   UNL     1       2.344   9.949  17.501  0.00  0.00    +0.000 A 
ATOM      4  C   UNL     1       1.422  10.713  18.220  0.00  0.00    +0.000 A 
ATOM      5  C   UNL     1       0.741  10.183  19.327  0.00  0.00    +0.000 A 
ATOM      6  C   UNL     1       1.008   8.849  19.685  0.00  0.00    +0.000 A 
ENDROOT
BRANCH   5   7
ATOM      7  N   UNL     1      -0.176  10.978  20.070  0.00  0.00    +0.000 N 
ATOM      8  C   UNL     1      -1.439  11.353  19.628  0.00  0.00    +0.000 C 
ATOM      9  O   UNL     1      -2.095  10.945  18.683  0.00  0.00    +0.000 OA
ATOM     10  C   UNL     1      -1.894  12.442  20.557  0.00  0.00    +0.000 C 
ATOM     11  C   UNL     1      -3.377  12.695  20.731  0.00  0.00    +0.000 C 
ATOM     12  C   UNL     1      -3.572  13.741  21.839  0.00  0.00    +0.000 C 
ATOM     13  C   UNL     1      -2.848  13.384  23.159  0.00  0.00    +0.000 C 
ATOM     14  C   UNL     1      -3.573  12.236  23.876  0.00  0.00    +0.000 C 
ATOM     15  C   UNL     1      -1.357  13.046  22.908  0.00  0.00    +0.000 C 
ATOM     16  C   UNL     1      -1.260  11.968  21.847  0.00  0.00    +0.000 C 
ATOM     17  C   UNL     1       0.076  11.510  21.333  0.00  0.00    +0.000 C 
ATOM     18  O   UNL     1       1.123  11.586  21.954  0.00  0.00    +0.000 OA
ENDBRANCH   5   7
BRANCH   1  20
ATOM     19  N   UNL     1       3.056   5.975  18.478  0.00  0.00    +0.000 N 
ATOM     20  C   UNL     1       2.333   6.695  19.419  0.00  0.00    +0.000 C 
ATOM     21  O   UNL     1       1.897   6.263  20.480  0.00  0.00    +0.000 OA
ATOM     22  H   UNL     1       3.001   6.349  17.541  0.00  0.00    +0.000 HD
BRANCH  19  30
ATOM     23  C   UNL     1       0.925   4.033  17.597  0.00  0.00    +0.000 C 
ATOM     24  C   UNL     1       2.274   3.641  18.134  0.00  0.00    +0.000 A 
ATOM     25  C   UNL     1       2.536   2.268  18.301  0.00  0.00    +0.000 A 
ATOM     26  C   UNL     1       3.731   1.821  18.858  0.00  0.00    +0.000 A 
ATOM     27  C   UNL     1       4.694   2.741  19.253  0.00  0.00    +0.000 A 
ATOM     28  C   UNL     1       4.471   4.118  19.102  0.00  0.00    +0.000 A 
ATOM     29  C   UNL     1       5.576   5.065  19.488  0.00  0.00    +0.000 C 
ATOM     30  C   UNL     1       3.255   4.574  18.533  0.00  0.00    +0.000 A 
ENDBRANCH  19  30
ENDBRANCH   1  20
TORSDOF 3
ENDMDL
MODEL 8
REMARK VINA RESULT:      -7.8      2.085      9.359
REMARK  Name = 
REMARK  6 active torsions:
REMARK  status: ('A' for Active; 'I' for Inactive)
REMARK    1  A    between atoms: C_1  and  C_2
REMARK    2  A    between atoms: C_6  and  C_7
REMARK    3  A    between atoms: C_8  and  N_9
REMARK    4  A    between atoms: C_10  and  C_12
REMARK    5  A    between atoms: C_16  and  N_17
REMARK    6  A    between atoms: C_23  and  C_24
REMARK                            x       y       z     vdW  Elec       q    Type
REMARK                         _______ _______ _______ _____ _____    ______ ____
ROOT
ATOM      1  C   UNL     1       2.179   7.907  18.883  0.00  0.00    +0.000 A 
ATOM      2  C   UNL     1       2.773   8.578  17.812  0.00  0.00    +0.000 A 
ATOM      3  C   UNL     1       2.420   9.895  17.524  0.00  0.00    +0.000 A 
ATOM      4  C   UNL     1       1.472  10.549  18.314  0.00  0.00    +0.000 A 
ATOM      5  C   UNL     1       0.849   9.902  19.391  0.00  0.00    +0.000 A 
ATOM      6  C   UNL     1       1.201   8.564  19.646  0.00  0.00    +0.000 A 
ENDROOT
BRANCH   5   7
ATOM      7  N   UNL     1      -0.096  10.585  20.208  0.00  0.00    +0.000 N 
ATOM      8  C   UNL     1      -0.024  10.680  21.592  0.00  0.00    +0.000 C 
ATOM      9  O   UNL     1       0.895  10.421  22.353  0.00  0.00    +0.000 OA
ATOM     10  C   UNL     1      -1.371  11.168  22.042  0.00  0.00    +0.000 C 
ATOM     11  C   UNL     1      -1.492  11.898  23.364  0.00  0.00    +0.000 C 
ATOM     12  C   UNL     1      -2.929  12.421  23.509  0.00  0.00    +0.000 C 
ATOM     13  C   UNL     1      -3.407  13.256  22.298  0.00  0.00    +0.000 C 
ATOM     14  C   UNL     1      -2.724  14.630  22.289  0.00  0.00    +0.000 C 
ATOM     15  C   UNL     1      -3.177  12.497  20.967  0.00  0.00    +0.000 C 
ATOM     16  C   UNL     1      -1.725  12.070  20.879  0.00  0.00    +0.000 C 
ATOM     17  C   UNL     1      -1.236  11.231  19.734  0.00  0.00    +0.000 C 
ATOM     18  O   UNL     1      -1.754  11.190  18.630  0.00  0.00    +0.000 OA
ENDBRANCH   5   7
BRANCH   1  20
ATOM     19  N   UNL     1       2.467   5.600  18.172  0.00  0.00    +0.000 N 
ATOM     20  C   UNL     1       2.643   6.517  19.199  0.00  0.00    +0.000 C 
ATOM     21  O   UNL     1       3.026   6.264  20.335  0.00  0.00    +0.000 OA
ATOM     22  H   UNL     1       1.810   5.895  17.462  0.00  0.00    +0.000 HD
BRANCH  19  30
ATOM     23  C   UNL     1       0.639   4.116  20.055  0.00  0.00    +0.000 C 
ATOM     24  C   UNL     1       1.712   3.476  19.218  0.00  0.00    +0.000 A 
ATOM     25  C   UNL     1       1.923   2.093  19.374  0.00  0.00    +0.000 A 
ATOM     26  C   UNL     1       2.942   1.434  18.692  0.00  0.00    +0.000 A 
ATOM     27  C   UNL     1       3.767   2.145  17.830  0.00  0.00    +0.000 A 
ATOM     28  C   UNL     1       3.587   3.524  17.645  0.00  0.00    +0.000 A 
ATOM     29  C   UNL     1       4.469   4.231  16.651  0.00  0.00    +0.000 C 
ATOM     30  C   UNL     1       2.549   4.196  18.339  0.00  0.00    +0.000 A 
ENDBRANCH  19  30
ENDBRANCH   1  20
TORSDOF 3
ENDMDL
MODEL 9
REMARK VINA RESULT:      -7.8      2.922      4.658
REMARK  Name = 
REMARK  6 active torsions:
REMARK  status: ('A' for Active; 'I' for Inactive)
REMARK    1  A    between atoms: C_1  and  C_2
REMARK    2  A    between atoms: C_6  and  C_7
REMARK    3  A    between atoms: C_8  and  N_9
REMARK    4  A    between atoms: C_10  and  C_12
REMARK    5  A    between atoms: C_16  and  N_17
REMARK    6  A    between atoms: C_23  and  C_24
REMARK                            x       y       z     vdW  Elec       q    Type
REMARK                         _______ _______ _______ _____ _____    ______ ____
ROOT
ATOM      1  C   UNL     1      -0.345  10.250  20.263  0.00  0.00    +0.000 A 
ATOM      2  C   UNL     1      -0.217  10.310  21.652  0.00  0.00    +0.000 A 
ATOM      3  C   UNL     1       0.694   9.487  22.312  0.00  0.00    +0.000 A 
ATOM      4  C   UNL     1       1.485   8.599  21.579  0.00  0.00    +0.000 A 
ATOM      5  C   UNL     1       1.375   8.505  20.184  0.00  0.00    +0.000 A 
ATOM      6  C   UNL     1       0.430   9.327  19.543  0.00  0.00    +0.000 A 
ENDROOT
BRANCH   5   7
ATOM      7  N   UNL     1       2.204   7.617  19.443  0.00  0.00    +0.000 N 
ATOM      8  C   UNL     1       2.817   7.928  18.235  0.00  0.00    +0.000 C 
ATOM      9  O   UNL     1       2.963   9.006  17.680  0.00  0.00    +0.000 OA
ATOM     10  C   UNL     1       3.286   6.621  17.663  0.00  0.00    +0.000 C 
ATOM     11  C   UNL     1       4.438   6.614  16.679  0.00  0.00    +0.000 C 
ATOM     12  C   UNL     1       4.817   5.156  16.373  0.00  0.00    +0.000 C 
ATOM     13  C   UNL     1       5.081   4.309  17.640  0.00  0.00    +0.000 C 
ATOM     14  C   UNL     1       6.419   4.703  18.281  0.00  0.00    +0.000 C 
ATOM     15  C   UNL     1       3.911   4.426  18.649  0.00  0.00    +0.000 C 
ATOM     16  C   UNL     1       3.644   5.890  18.938  0.00  0.00    +0.000 C 
ATOM     17  C   UNL     1       2.497   6.306  19.814  0.00  0.00    +0.000 C 
ATOM     18  O   UNL     1       1.991   5.608  20.677  0.00  0.00    +0.000 OA
ENDBRANCH   5   7
BRANCH   1  20
ATOM     19  N   UNL     1      -2.592  10.756  19.487  0.00  0.00    +0.000 N 
ATOM     20  C   UNL     1      -1.283  11.206  19.590  0.00  0.00    +0.000 C 
ATOM     21  O   UNL     1      -0.831  12.231  19.095  0.00  0.00    +0.000 OA
ATOM     22  H   UNL     1      -2.698   9.758  19.612  0.00  0.00    +0.000 HD
BRANCH  19  30
ATOM     23  C   UNL     1      -4.640  12.701  20.541  0.00  0.00    +0.000 C 
ATOM     24  C   UNL     1      -4.543  12.248  19.110  0.00  0.00    +0.000 A 
ATOM     25  C   UNL     1      -5.522  12.714  18.211  0.00  0.00    +0.000 A 
ATOM     26  C   UNL     1      -5.548  12.289  16.886  0.00  0.00    +0.000 A 
ATOM     27  C   UNL     1      -4.590  11.393  16.429  0.00  0.00    +0.000 A 
ATOM     28  C   UNL     1      -3.597  10.908  17.294  0.00  0.00    +0.000 A 
ATOM     29  C   UNL     1      -2.546   9.989  16.729  0.00  0.00    +0.000 C 
ATOM     30  C   UNL     1      -3.568  11.341  18.643  0.00  0.00    +0.000 A 
ENDBRANCH  19  30
ENDBRANCH   1  20
TORSDOF 3
ENDMDL
