MODEL 1
REMARK VINA RESULT:      -8.6      0.000      0.000
REMARK  Name = 
REMARK  8 active torsions:
REMARK  status: ('A' for Active; 'I' for Inactive)
REMARK    1  A    between atoms: C_1  and  C_2
REMARK    2  A    between atoms: C_2  and  C_3
REMARK    3  A    between atoms: C_8  and  N_9
REMARK    4  A    between atoms: C_10  and  C_12
REMARK    5  A    between atoms: C_12  and  N_13
REMARK    6  A    between atoms: C_18  and  C_19
REMARK    7  A    between atoms: N_21  and  C_22
REMARK    8  A    between atoms: C_22  and  C_23
REMARK                            x       y       z     vdW  Elec       q    Type
REMARK                         _______ _______ _______ _____ _____    ______ ____
ROOT
ATOM      1  N   UNL     1      -0.924  11.705  22.027  0.00  0.00    +0.000 N 
ATOM      2  N   UNL     1      -0.983  11.996  20.670  0.00  0.00    +0.000 NA
ATOM      3  C   UNL     1      -0.252  11.068  20.135  0.00  0.00    +0.000 A 
ATOM      4  C   UNL     1       0.086  10.872  18.710  0.00  0.00    +0.000 A 
ATOM      5  C   UNL     1       0.875   9.829  18.390  0.00  0.00    +0.000 A 
ATOM      6  C   UNL     1       1.382   8.890  19.399  0.00  0.00    +0.000 A 
ATOM      7  C   UNL     1       1.066   9.117  20.684  0.00  0.00    +0.000 A 
ATOM      8  N   UNL     1       0.283  10.184  21.012  0.00  0.00    +0.000 N 
ATOM      9  C   UNL     1      -0.112  10.588  22.260  0.00  0.00    +0.000 A 
ATOM     10  O   UNL     1       0.189  10.092  23.334  0.00  0.00    +0.000 OA
ENDROOT
BRANCH   6  11
ATOM     11  C   UNL     1       2.229   7.715  18.974  0.00  0.00    +0.000 C 
ATOM     12  O   UNL     1       2.482   7.530  17.787  0.00  0.00    +0.000 OA
ATOM     13  N   UNL     1       2.682   6.891  19.975  0.00  0.00    +0.000 N 
ATOM     14  H   UNL     1       2.458   7.048  20.943  0.00  0.00    +0.000 HD
BRANCH  13  15
ATOM     15  C   UNL     1       3.481   5.710  19.730  0.00  0.00    +0.000 C 
BRANCH  15  16
ATOM     16  C   UNL     1       2.601   4.519  19.439  0.00  0.00    +0.000 A 
ATOM     17  C   UNL     1       2.817   3.739  18.294  0.00  0.00    +0.000 A 
ATOM     18  C   UNL     1       2.019   2.623  18.034  0.00  0.00    +0.000 A 
ATOM     19  C   UNL     1       0.996   2.274  18.914  0.00  0.00    +0.000 A 
ATOM     20  C   UNL     1       0.771   3.042  20.054  0.00  0.00    +0.000 A 
ATOM     21  C   UNL     1       1.566   4.162  20.316  0.00  0.00    +0.000 A 
ENDBRANCH  15  16
ENDBRANCH  13  15
ENDBRANCH   6  11
BRANCH   1  22
ATOM     22  C   UNL     1      -1.522  12.506  23.063  0.00  0.00    +0.000 C 
BRANCH  22  24
ATOM     23  N   UNL     1      -3.736  12.814  22.061  0.00  0.00    +0.000 N 
ATOM     24  C   UNL     1      -3.036  12.340  23.162  0.00  0.00    +0.000 C 
ATOM     25  O   UNL     1      -3.511  11.680  24.086  0.00  0.00    +0.000 OA
ATOM     26  H   UNL     1      -3.148  13.158  21.303  0.00  0.00    +0.000 HD
BRANCH  23  32
ATOM     27  C   UNL     1      -5.652  12.355  20.587  0.00  0.00    +0.000 A 
ATOM     28  C   UNL     1      -7.047  12.201  20.444  0.00  0.00    +0.000 A 
ATOM     29  C   UNL     1      -7.915  12.442  21.507  0.00  0.00    +0.000 A 
ATOM     30  C   UNL     1      -7.405  12.867  22.724  0.00  0.00    +0.000 A 
ATOM     31  C   UNL     1      -6.028  13.005  22.889  0.00  0.00    +0.000 A 
ATOM     32  C   UNL     1      -5.132  12.724  21.847  0.00  0.00    +0.000 A 
BRANCH  27  34
ATOM     33  C   UNL     1      -5.515  11.219  18.356  0.00  0.00    +0.000 C 
ATOM     34  C   UNL     1      -4.810  12.134  19.350  0.00  0.00    +0.000 C 
ENDBRANCH  27  34
ENDBRANCH  23  32
ENDBRANCH  22  24
ENDBRANCH   1  22
TORSDOF 7
ENDMDL
MODEL 2
REMARK VINA RESULT:      -8.6      2.952      4.418
REMARK  Name = 
REMARK  8 active torsions:
REMARK  status: ('A' for Active; 'I' for Inactive)
REMARK    1  A    between atoms: C_1  and  C_2
REMARK    2  A    between atoms: C_2  and  C_3
REMARK    3  A    between atoms: C_8  and  N_9
REMARK    4  A    between atoms: C_10  and  C_12
REMARK    5  A    between atoms: C_12  and  N_13
REMARK    6  A    between atoms: C_18  and  C_19
REMARK    7  A    between atoms: N_21  and  C_22
REMARK    8  A    between atoms: C_22  and  C_23
REMARK                            x       y       z     vdW  Elec       q    Type
REMARK                         _______ _______ _______ _____ _____    ______ ____
ROOT
ATOM      1  N   UNL     1       1.095  10.886  19.607  0.00  0.00    +0.000 N 
ATOM      2  N   UNL     1       0.761  10.118  20.715  0.00  0.00    +0.000 NA
ATOM      3  C   UNL     1       1.205   8.940  20.404  0.00  0.00    +0.000 A 
ATOM      4  C   UNL     1       1.115   7.688  21.185  0.00  0.00    +0.000 A 
ATOM      5  C   UNL     1       1.651   6.575  20.651  0.00  0.00    +0.000 A 
ATOM      6  C   UNL     1       2.325   6.578  19.345  0.00  0.00    +0.000 A 
ATOM      7  C   UNL     1       2.367   7.733  18.662  0.00  0.00    +0.000 A 
ATOM      8  N   UNL     1       1.808   8.856  19.194  0.00  0.00    +0.000 N 
ATOM      9  C   UNL     1       1.727  10.104  18.633  0.00  0.00    +0.000 A 
ATOM     10  O   UNL     1       2.109  10.450  17.526  0.00  0.00    +0.000 OA
ENDROOT
BRANCH   6  11
ATOM     11  C   UNL     1       2.943   5.306  18.816  0.00  0.00    +0.000 C 
ATOM     12  O   UNL     1       2.233   4.413  18.364  0.00  0.00    +0.000 OA
ATOM     13  N   UNL     1       4.312   5.217  18.878  0.00  0.00    +0.000 N 
ATOM     14  H   UNL     1       4.881   5.952  19.262  0.00  0.00    +0.000 HD
BRANCH  13  15
ATOM     15  C   UNL     1       5.053   4.056  18.437  0.00  0.00    +0.000 C 
BRANCH  15  16
ATOM     16  C   UNL     1       5.655   4.290  17.074  0.00  0.00    +0.000 A 
ATOM     17  C   UNL     1       6.989   4.704  16.947  0.00  0.00    +0.000 A 
ATOM     18  C   UNL     1       7.556   4.900  15.686  0.00  0.00    +0.000 A 
ATOM     19  C   UNL     1       6.796   4.685  14.537  0.00  0.00    +0.000 A 
ATOM     20  C   UNL     1       5.469   4.275  14.650  0.00  0.00    +0.000 A 
ATOM     21  C   UNL     1       4.898   4.081  15.911  0.00  0.00    +0.000 A 
ENDBRANCH  15  16
ENDBRANCH  13  15
ENDBRANCH   6  11
BRANCH   1  22
ATOM     22  C   UNL     1       0.740  12.271  19.434  0.00  0.00    +0.000 C 
BRANCH  22  24
ATOM     23  N   UNL     1      -1.599  11.598  19.151  0.00  0.00    +0.000 N 
ATOM     24  C   UNL     1      -0.602  12.472  18.737  0.00  0.00    +0.000 C 
ATOM     25  O   UNL     1      -0.762  13.452  18.009  0.00  0.00    +0.000 OA
ATOM     26  H   UNL     1      -1.324  10.974  19.908  0.00  0.00    +0.000 HD
BRANCH  23  32
ATOM     27  C   UNL     1      -3.370  10.854  17.613  0.00  0.00    +0.000 A 
ATOM     28  C   UNL     1      -4.742  10.828  17.285  0.00  0.00    +0.000 A 
ATOM     29  C   UNL     1      -5.677  11.556  18.018  0.00  0.00    +0.000 A 
ATOM     30  C   UNL     1      -5.252  12.342  19.078  0.00  0.00    +0.000 A 
ATOM     31  C   UNL     1      -3.904  12.364  19.429  0.00  0.00    +0.000 A 
ATOM     32  C   UNL     1      -2.951  11.604  18.734  0.00  0.00    +0.000 A 
BRANCH  27  34
ATOM     33  C   UNL     1      -2.833  10.233  15.245  0.00  0.00    +0.000 C 
ATOM     34  C   UNL     1      -2.435  10.082  16.708  0.00  0.00    +0.000 C 
ENDBRANCH  27  34
ENDBRANCH  23  32
ENDBRANCH  22  24
ENDBRANCH   1  22
TORSDOF 7
ENDMDL
MODEL 3
REMARK VINA RESULT:      -8.5      1.676     10.090
REMARK  Name = 
REMARK  8 active torsions:
REMARK  status: ('A' for Active; 'I' for Inactive)
REMARK    1  A    between atoms: C_1  and  C_2
REMARK    2  A    between atoms: C_2  and  C_3
REMARK    3  A    between atoms: C_8  and  N_9
REMARK    4  A    between atoms: C_10  and  C_12
REMARK    5  A    between atoms: C_12  and  N_13
REMARK    6  A    between atoms: C_18  and  C_19
REMARK    7  A    between atoms: N_21  and  C_22
REMARK    8  A    between atoms: C_22  and  C_23
REMARK                            x       y       z     vdW  Elec       q    Type
REMARK                         _______ _______ _______ _____ _____    ______ ____
ROOT
ATOM      1  N   UNL     1       1.561   8.792  19.293  0.00  0.00    +0.000 N 
ATOM      2  N   UNL     1       1.416   8.147  20.515  0.00  0.00    +0.000 NA
ATOM      3  C   UNL     1       0.742   8.999  21.223  0.00  0.00    +0.000 A 
ATOM      4  C   UNL     1       0.307   8.884  22.631  0.00  0.00    +0.000 A 
ATOM      5  C   UNL     1      -0.386   9.910  23.159  0.00  0.00    +0.000 A 
ATOM      6  C   UNL     1      -0.729  11.109  22.382  0.00  0.00    +0.000 A 
ATOM      7  C   UNL     1      -0.298  11.179  21.112  0.00  0.00    +0.000 A 
ATOM      8  N   UNL     1       0.420  10.149  20.582  0.00  0.00    +0.000 N 
ATOM      9  C   UNL     1       0.966  10.060  19.328  0.00  0.00    +0.000 A 
ATOM     10  O   UNL     1       0.948  10.903  18.445  0.00  0.00    +0.000 OA
ENDROOT
BRANCH   6  11
ATOM     11  C   UNL     1      -1.544  12.209  23.018  0.00  0.00    +0.000 C 
ATOM     12  O   UNL     1      -1.068  13.332  23.158  0.00  0.00    +0.000 OA
ATOM     13  N   UNL     1      -2.814  11.877  23.421  0.00  0.00    +0.000 N 
ATOM     14  H   UNL     1      -3.187  10.949  23.311  0.00  0.00    +0.000 HD
BRANCH  13  15
ATOM     15  C   UNL     1      -3.709  12.809  24.070  0.00  0.00    +0.000 C 
BRANCH  15  16
ATOM     16  C   UNL     1      -5.067  12.794  23.412  0.00  0.00    +0.000 A 
ATOM     17  C   UNL     1      -6.233  12.723  24.187  0.00  0.00    +0.000 A 
ATOM     18  C   UNL     1      -7.491  12.732  23.581  0.00  0.00    +0.000 A 
ATOM     19  C   UNL     1      -7.598  12.812  22.194  0.00  0.00    +0.000 A 
ATOM     20  C   UNL     1      -6.447  12.882  21.412  0.00  0.00    +0.000 A 
ATOM     21  C   UNL     1      -5.186  12.870  22.015  0.00  0.00    +0.000 A 
ENDBRANCH  15  16
ENDBRANCH  13  15
ENDBRANCH   6  11
BRANCH   1  22
ATOM     22  C   UNL     1       2.315   8.278  18.180  0.00  0.00    +0.000 C 
BRANCH  22  24
ATOM     23  N   UNL     1       2.176   5.832  18.141  0.00  0.00    +0.000 N 
ATOM     24  C   UNL     1       2.968   6.928  18.460  0.00  0.00    +0.000 C 
ATOM     25  O   UNL     1       4.157   6.888  18.777  0.00  0.00    +0.000 OA
ATOM     26  H   UNL     1       1.285   6.069  17.707  0.00  0.00    +0.000 HD
BRANCH  23  32
ATOM     27  C   UNL     1       2.099   3.655  19.285  0.00  0.00    +0.000 A 
ATOM     28  C   UNL     1       2.433   2.285  19.280  0.00  0.00    +0.000 A 
ATOM     29  C   UNL     1       3.225   1.735  18.275  0.00  0.00    +0.000 A 
ATOM     30  C   UNL     1       3.719   2.552  17.270  0.00  0.00    +0.000 A 
ATOM     31  C   UNL     1       3.383   3.904  17.247  0.00  0.00    +0.000 A 
ATOM     32  C   UNL     1       2.550   4.470  18.223  0.00  0.00    +0.000 A 
BRANCH  27  34
ATOM     33  C   UNL     1       1.348   3.183  21.630  0.00  0.00    +0.000 C 
ATOM     34  C   UNL     1       1.291   4.159  20.460  0.00  0.00    +0.000 C 
ENDBRANCH  27  34
ENDBRANCH  23  32
ENDBRANCH  22  24
ENDBRANCH   1  22
TORSDOF 7
ENDMDL
MODEL 4
REMARK VINA RESULT:      -8.2      1.486     10.042
REMARK  Name = 
REMARK  8 active torsions:
REMARK  status: ('A' for Active; 'I' for Inactive)
REMARK    1  A    between atoms: C_1  and  C_2
REMARK    2  A    between atoms: C_2  and  C_3
REMARK    3  A    between atoms: C_8  and  N_9
REMARK    4  A    between atoms: C_10  and  C_12
REMARK    5  A    between atoms: C_12  and  N_13
REMARK    6  A    between atoms: C_18  and  C_19
REMARK    7  A    between atoms: N_21  and  C_22
REMARK    8  A    between atoms: C_22  and  C_23
REMARK                            x       y       z     vdW  Elec       q    Type
REMARK                         _______ _______ _______ _____ _____    ______ ____
ROOT
ATOM      1  N   UNL     1       1.512   8.665  19.328  0.00  0.00    +0.000 N 
ATOM      2  N   UNL     1       1.479   8.178  20.629  0.00  0.00    +0.000 NA
ATOM      3  C   UNL     1       0.748   9.048  21.253  0.00  0.00    +0.000 A 
ATOM      4  C   UNL     1       0.380   9.081  22.684  0.00  0.00    +0.000 A 
ATOM      5  C   UNL     1      -0.394  10.097  23.110  0.00  0.00    +0.000 A 
ATOM      6  C   UNL     1      -0.886  11.143  22.202  0.00  0.00    +0.000 A 
ATOM      7  C   UNL     1      -0.511  11.084  20.914  0.00  0.00    +0.000 A 
ATOM      8  N   UNL     1       0.288  10.066  20.486  0.00  0.00    +0.000 N 
ATOM      9  C   UNL     1       0.793   9.863  19.228  0.00  0.00    +0.000 A 
ATOM     10  O   UNL     1       0.657  10.575  18.246  0.00  0.00    +0.000 OA
ENDROOT
BRANCH   6  11
ATOM     11  C   UNL     1      -1.784  12.234  22.730  0.00  0.00    +0.000 C 
ATOM     12  O   UNL     1      -1.547  12.765  23.812  0.00  0.00    +0.000 OA
ATOM     13  N   UNL     1      -2.856  12.581  21.945  0.00  0.00    +0.000 N 
ATOM     14  H   UNL     1      -3.046  12.130  21.066  0.00  0.00    +0.000 HD
BRANCH  13  15
ATOM     15  C   UNL     1      -3.823  13.588  22.321  0.00  0.00    +0.000 C 
BRANCH  15  16
ATOM     16  C   UNL     1      -5.217  13.009  22.348  0.00  0.00    +0.000 A 
ATOM     17  C   UNL     1      -5.784  12.467  21.185  0.00  0.00    +0.000 A 
ATOM     18  C   UNL     1      -7.064  11.911  21.212  0.00  0.00    +0.000 A 
ATOM     19  C   UNL     1      -7.793  11.890  22.400  0.00  0.00    +0.000 A 
ATOM     20  C   UNL     1      -7.241  12.427  23.561  0.00  0.00    +0.000 A 
ATOM     21  C   UNL     1      -5.961  12.988  23.537  0.00  0.00    +0.000 A 
ENDBRANCH  15  16
ENDBRANCH  13  15
ENDBRANCH   6  11
BRANCH   1  22
ATOM     22  C   UNL     1       2.273   8.082  18.255  0.00  0.00    +0.000 C 
BRANCH  22  24
ATOM     23  N   UNL     1       2.203   5.642  18.041  0.00  0.00    +0.000 N 
ATOM     24  C   UNL     1       2.871   6.722  18.602  0.00  0.00    +0.000 C 
ATOM     25  O   UNL     1       3.952   6.672  19.190  0.00  0.00    +0.000 OA
ATOM     26  H   UNL     1       1.435   5.898  17.422  0.00  0.00    +0.000 HD
BRANCH  23  32
ATOM     27  C   UNL     1       1.984   3.424  19.083  0.00  0.00    +0.000 A 
ATOM     28  C   UNL     1       2.331   2.057  19.080  0.00  0.00    +0.000 A 
ATOM     29  C   UNL     1       3.272   1.550  18.186  0.00  0.00    +0.000 A 
ATOM     30  C   UNL     1       3.899   2.407  17.295  0.00  0.00    +0.000 A 
ATOM     31  C   UNL     1       3.554   3.757  17.270  0.00  0.00    +0.000 A 
ATOM     32  C   UNL     1       2.577   4.281  18.129  0.00  0.00    +0.000 A 
BRANCH  27  34
ATOM     33  C   UNL     1       1.281   3.203  21.479  0.00  0.00    +0.000 C 
ATOM     34  C   UNL     1       1.003   3.879  20.142  0.00  0.00    +0.000 C 
ENDBRANCH  27  34
ENDBRANCH  23  32
ENDBRANCH  22  24
ENDBRANCH   1  22
TORSDOF 7
ENDMDL
MODEL 5
REMARK VINA RESULT:      -8.2      2.339      3.198
REMARK  Name = 
REMARK  8 active torsions:
REMARK  status: ('A' for Active; 'I' for Inactive)
REMARK    1  A    between atoms: C_1  and  C_2
REMARK    2  A    between atoms: C_2  and  C_3
REMARK    3  A    between atoms: C_8  and  N_9
REMARK    4  A    between atoms: C_10  and  C_12
REMARK    5  A    between atoms: C_12  and  N_13
REMARK    6  A    between atoms: C_18  and  C_19
REMARK    7  A    between atoms: N_21  and  C_22
REMARK    8  A    between atoms: C_22  and  C_23
REMARK                            x       y       z     vdW  Elec       q    Type
REMARK                         _______ _______ _______ _____ _____    ______ ____
ROOT
ATOM      1  N   UNL     1      -0.047  11.229  20.792  0.00  0.00    +0.000 N 
ATOM      2  N   UNL     1       0.151  11.142  19.420  0.00  0.00    +0.000 NA
ATOM      3  C   UNL     1       0.789  10.021  19.282  0.00  0.00    +0.000 A 
ATOM      4  C   UNL     1       1.302   9.402  18.042  0.00  0.00    +0.000 A 
ATOM      5  C   UNL     1       1.944   8.223  18.148  0.00  0.00    +0.000 A 
ATOM      6  C   UNL     1       2.128   7.543  19.438  0.00  0.00    +0.000 A 
ATOM      7  C   UNL     1       1.662   8.151  20.541  0.00  0.00    +0.000 A 
ATOM      8  N   UNL     1       1.028   9.353  20.437  0.00  0.00    +0.000 N 
ATOM      9  C   UNL     1       0.522  10.129  21.447  0.00  0.00    +0.000 A 
ATOM     10  O   UNL     1       0.568   9.914  22.647  0.00  0.00    +0.000 OA
ENDROOT
BRANCH   6  11
ATOM     11  C   UNL     1       2.821   6.203  19.488  0.00  0.00    +0.000 C 
ATOM     12  O   UNL     1       2.352   5.287  20.157  0.00  0.00    +0.000 OA
ATOM     13  N   UNL     1       3.979   6.084  18.760  0.00  0.00    +0.000 N 
ATOM     14  H   UNL     1       4.358   6.847  18.226  0.00  0.00    +0.000 HD
BRANCH  13  15
ATOM     15  C   UNL     1       4.774   4.876  18.725  0.00  0.00    +0.000 C 
BRANCH  15  16
ATOM     16  C   UNL     1       5.459   4.725  17.389  0.00  0.00    +0.000 A 
ATOM     17  C   UNL     1       6.817   5.047  17.246  0.00  0.00    +0.000 A 
ATOM     18  C   UNL     1       7.459   4.887  16.016  0.00  0.00    +0.000 A 
ATOM     19  C   UNL     1       6.752   4.403  14.916  0.00  0.00    +0.000 A 
ATOM     20  C   UNL     1       5.403   4.081  15.045  0.00  0.00    +0.000 A 
ATOM     21  C   UNL     1       4.756   4.243  16.274  0.00  0.00    +0.000 A 
ENDBRANCH  15  16
ENDBRANCH  13  15
ENDBRANCH   6  11
BRANCH   1  22
ATOM     22  C   UNL     1      -0.653  12.350  21.462  0.00  0.00    +0.000 C 
BRANCH  22  24
ATOM     23  N   UNL     1      -2.588  12.415  19.960  0.00  0.00    +0.000 N 
ATOM     24  C   UNL     1      -2.166  12.419  21.284  0.00  0.00    +0.000 C 
ATOM     25  O   UNL     1      -2.895  12.310  22.270  0.00  0.00    +0.000 OA
ATOM     26  H   UNL     1      -1.837  12.308  19.280  0.00  0.00    +0.000 HD
BRANCH  23  32
ATOM     27  C   UNL     1      -4.271  11.751  18.293  0.00  0.00    +0.000 A 
ATOM     28  C   UNL     1      -5.629  11.689  17.918  0.00  0.00    +0.000 A 
ATOM     29  C   UNL     1      -6.623  12.280  18.694  0.00  0.00    +0.000 A 
ATOM     30  C   UNL     1      -6.273  12.966  19.847  0.00  0.00    +0.000 A 
ATOM     31  C   UNL     1      -4.939  13.021  20.243  0.00  0.00    +0.000 A 
ATOM     32  C   UNL     1      -3.926  12.395  19.502  0.00  0.00    +0.000 A 
BRANCH  27  34
ATOM     33  C   UNL     1      -3.067   9.653  17.634  0.00  0.00    +0.000 C 
ATOM     34  C   UNL     1      -3.269  11.135  17.341  0.00  0.00    +0.000 C 
ENDBRANCH  27  34
ENDBRANCH  23  32
ENDBRANCH  22  24
ENDBRANCH   1  22
TORSDOF 7
ENDMDL
MODEL 6
REMARK VINA RESULT:      -8.1      2.092      2.773
REMARK  Name = 
REMARK  8 active torsions:
REMARK  status: ('A' for Active; 'I' for Inactive)
REMARK    1  A    between atoms: C_1  and  C_2
REMARK    2  A    between atoms: C_2  and  C_3
REMARK    3  A    between atoms: C_8  and  N_9
REMARK    4  A    between atoms: C_10  and  C_12
REMARK    5  A    between atoms: C_12  and  N_13
REMARK    6  A    between atoms: C_18  and  C_19
REMARK    7  A    between atoms: N_21  and  C_22
REMARK    8  A    between atoms: C_22  and  C_23
REMARK                            x       y       z     vdW  Elec       q    Type
REMARK                         _______ _______ _______ _____ _____    ______ ____
ROOT
ATOM      1  N   UNL     1      -0.001  11.380  21.244  0.00  0.00    +0.000 N 
ATOM      2  N   UNL     1       0.285  11.314  19.886  0.00  0.00    +0.000 NA
ATOM      3  C   UNL     1       0.837  10.148  19.756  0.00  0.00    +0.000 A 
ATOM      4  C   UNL     1       1.384   9.521  18.534  0.00  0.00    +0.000 A 
ATOM      5  C   UNL     1       1.918   8.290  18.645  0.00  0.00    +0.000 A 
ATOM      6  C   UNL     1       1.953   7.562  19.921  0.00  0.00    +0.000 A 
ATOM      7  C   UNL     1       1.462   8.177  21.009  0.00  0.00    +0.000 A 
ATOM      8  N   UNL     1       0.938   9.431  20.902  0.00  0.00    +0.000 N 
ATOM      9  C   UNL     1       0.427  10.219  21.899  0.00  0.00    +0.000 A 
ATOM     10  O   UNL     1       0.370   9.969  23.092  0.00  0.00    +0.000 OA
ENDROOT
BRANCH   6  11
ATOM     11  C   UNL     1       2.528   6.168  19.975  0.00  0.00    +0.000 C 
ATOM     12  O   UNL     1       2.052   5.329  20.734  0.00  0.00    +0.000 OA
ATOM     13  N   UNL     1       3.591   5.910  19.144  0.00  0.00    +0.000 N 
ATOM     14  H   UNL     1       3.978   6.611  18.535  0.00  0.00    +0.000 HD
BRANCH  13  15
ATOM     15  C   UNL     1       4.270   4.634  19.096  0.00  0.00    +0.000 C 
BRANCH  15  16
ATOM     16  C   UNL     1       5.173   4.553  17.890  0.00  0.00    +0.000 A 
ATOM     17  C   UNL     1       4.635   4.356  16.609  0.00  0.00    +0.000 A 
ATOM     18  C   UNL     1       5.467   4.302  15.490  0.00  0.00    +0.000 A 
ATOM     19  C   UNL     1       6.846   4.446  15.636  0.00  0.00    +0.000 A 
ATOM     20  C   UNL     1       7.393   4.641  16.901  0.00  0.00    +0.000 A 
ATOM     21  C   UNL     1       6.563   4.691  18.026  0.00  0.00    +0.000 A 
ENDBRANCH  15  16
ENDBRANCH  13  15
ENDBRANCH   6  11
BRANCH   1  22
ATOM     22  C   UNL     1      -0.559  12.530  21.907  0.00  0.00    +0.000 C 
BRANCH  22  24
ATOM     23  N   UNL     1      -2.711  12.859  20.783  0.00  0.00    +0.000 N 
ATOM     24  C   UNL     1      -2.083  12.514  21.972  0.00  0.00    +0.000 C 
ATOM     25  O   UNL     1      -2.639  12.058  22.972  0.00  0.00    +0.000 OA
ATOM     26  H   UNL     1      -2.075  13.021  20.003  0.00  0.00    +0.000 HD
BRANCH  23  32
ATOM     27  C   UNL     1      -4.633  12.237  19.378  0.00  0.00    +0.000 A 
ATOM     28  C   UNL     1      -6.033  12.189  19.213  0.00  0.00    +0.000 A 
ATOM     29  C   UNL     1      -6.893  12.771  20.141  0.00  0.00    +0.000 A 
ATOM     30  C   UNL     1      -6.366  13.433  21.240  0.00  0.00    +0.000 A 
ATOM     31  C   UNL     1      -4.987  13.472  21.430  0.00  0.00    +0.000 A 
ATOM     32  C   UNL     1      -4.104  12.855  20.532  0.00  0.00    +0.000 A 
BRANCH  27  34
ATOM     33  C   UNL     1      -4.650  11.243  17.077  0.00  0.00    +0.000 C 
ATOM     34  C   UNL     1      -3.792  11.634  18.274  0.00  0.00    +0.000 C 
ENDBRANCH  27  34
ENDBRANCH  23  32
ENDBRANCH  22  24
ENDBRANCH   1  22
TORSDOF 7
ENDMDL
MODEL 7
REMARK VINA RESULT:      -8.1      3.658      5.290
REMARK  Name = 
REMARK  8 active torsions:
REMARK  status: ('A' for Active; 'I' for Inactive)
REMARK    1  A    between atoms: C_1  and  C_2
REMARK    2  A    between atoms: C_2  and  C_3
REMARK    3  A    between atoms: C_8  and  N_9
REMARK    4  A    between atoms: C_10  and  C_12
REMARK    5  A    between atoms: C_12  and  N_13
REMARK    6  A    between atoms: C_18  and  C_19
REMARK    7  A    between atoms: N_21  and  C_22
REMARK    8  A    between atoms: C_22  and  C_23
REMARK                            x       y       z     vdW  Elec       q    Type
REMARK                         _______ _______ _______ _____ _____    ______ ____
ROOT
ATOM      1  N   UNL     1       0.121  11.111  21.234  0.00  0.00    +0.000 N 
ATOM      2  N   UNL     1       0.365  11.078  19.867  0.00  0.00    +0.000 NA
ATOM      3  C   UNL     1       0.909   9.914  19.691  0.00  0.00    +0.000 A 
ATOM      4  C   UNL     1       1.416   9.317  18.437  0.00  0.00    +0.000 A 
ATOM      5  C   UNL     1       1.950   8.083  18.501  0.00  0.00    +0.000 A 
ATOM      6  C   UNL     1       2.022   7.323  19.757  0.00  0.00    +0.000 A 
ATOM      7  C   UNL     1       1.567   7.912  20.875  0.00  0.00    +0.000 A 
ATOM      8  N   UNL     1       1.044   9.169  20.815  0.00  0.00    +0.000 N 
ATOM      9  C   UNL     1       0.566   9.933  21.847  0.00  0.00    +0.000 A 
ATOM     10  O   UNL     1       0.546   9.653  23.035  0.00  0.00    +0.000 OA
ENDROOT
BRANCH   6  11
ATOM     11  C   UNL     1       2.595   5.926  19.758  0.00  0.00    +0.000 C 
ATOM     12  O   UNL     1       2.427   5.187  20.724  0.00  0.00    +0.000 OA
ATOM     13  N   UNL     1       3.299   5.551  18.640  0.00  0.00    +0.000 N 
ATOM     14  H   UNL     1       3.439   6.172  17.861  0.00  0.00    +0.000 HD
BRANCH  13  15
ATOM     15  C   UNL     1       3.932   4.259  18.497  0.00  0.00    +0.000 C 
BRANCH  15  16
ATOM     16  C   UNL     1       5.072   4.327  17.512  0.00  0.00    +0.000 A 
ATOM     17  C   UNL     1       6.375   4.610  17.949  0.00  0.00    +0.000 A 
ATOM     18  C   UNL     1       7.435   4.652  17.042  0.00  0.00    +0.000 A 
ATOM     19  C   UNL     1       7.207   4.411  15.688  0.00  0.00    +0.000 A 
ATOM     20  C   UNL     1       5.918   4.130  15.241  0.00  0.00    +0.000 A 
ATOM     21  C   UNL     1       4.853   4.091  16.146  0.00  0.00    +0.000 A 
ENDBRANCH  15  16
ENDBRANCH  13  15
ENDBRANCH   6  11
BRANCH   1  22
ATOM     22  C   UNL     1      -0.413  12.245  21.943  0.00  0.00    +0.000 C 
BRANCH  22  24
ATOM     23  N   UNL     1      -0.076  13.925  20.192  0.00  0.00    +0.000 N 
ATOM     24  C   UNL     1       0.195  13.575  21.508  0.00  0.00    +0.000 C 
ATOM     25  O   UNL     1       0.719  14.302  22.352  0.00  0.00    +0.000 OA
ATOM     26  H   UNL     1      -0.693  13.278  19.703  0.00  0.00    +0.000 HD
BRANCH  23  32
ATOM     27  C   UNL     1       1.590  15.303  19.019  0.00  0.00    +0.000 A 
ATOM     28  C   UNL     1       1.886  16.489  18.315  0.00  0.00    +0.000 A 
ATOM     29  C   UNL     1       0.938  17.500  18.168  0.00  0.00    +0.000 A 
ATOM     30  C   UNL     1      -0.314  17.352  18.744  0.00  0.00    +0.000 A 
ATOM     31  C   UNL     1      -0.630  16.178  19.425  0.00  0.00    +0.000 A 
ATOM     32  C   UNL     1       0.292  15.129  19.547  0.00  0.00    +0.000 A 
BRANCH  27  34
ATOM     33  C   UNL     1       2.656  13.230  18.096  0.00  0.00    +0.000 C 
ATOM     34  C   UNL     1       2.715  14.303  19.176  0.00  0.00    +0.000 C 
ENDBRANCH  27  34
ENDBRANCH  23  32
ENDBRANCH  22  24
ENDBRANCH   1  22
TORSDOF 7
ENDMDL
MODEL 8
REMARK VINA RESULT:      -8.1      1.524      2.085
REMARK  Name = 
REMARK  8 active torsions:
REMARK  status: ('A' for Active; 'I' for Inactive)
REMARK    1  A    between atoms: C_1  and  C_2
REMARK    2  A    between atoms: C_2  and  C_3
REMARK    3  A    between atoms: C_8  and  N_9
REMARK    4  A    between atoms: C_10  and  C_12
REMARK    5  A    between atoms: C_12  and  N_13
REMARK    6  A    between atoms: C_18  and  C_19
REMARK    7  A    between atoms: N_21  and  C_22
REMARK    8  A    between atoms: C_22  and  C_23
REMARK                            x       y       z     vdW  Elec       q    Type
REMARK                         _______ _______ _______ _____ _____    ______ ____
ROOT
ATOM      1  N   UNL     1      -0.873  12.227  22.671  0.00  0.00    +0.000 N 
ATOM      2  N   UNL     1      -0.728  10.934  23.159  0.00  0.00    +0.000 NA
ATOM      3  C   UNL     1      -0.142  10.313  22.183  0.00  0.00    +0.000 A 
ATOM      4  C   UNL     1       0.248   8.889  22.102  0.00  0.00    +0.000 A 
ATOM      5  C   UNL     1       0.848   8.466  20.973  0.00  0.00    +0.000 A 
ATOM      6  C   UNL     1       1.134   9.370  19.850  0.00  0.00    +0.000 A 
ATOM      7  C   UNL     1       0.745  10.650  19.959  0.00  0.00    +0.000 A 
ATOM      8  N   UNL     1       0.121  11.076  21.094  0.00  0.00    +0.000 N 
ATOM      9  C   UNL     1      -0.371  12.325  21.368  0.00  0.00    +0.000 A 
ATOM     10  O   UNL     1      -0.379  13.300  20.634  0.00  0.00    +0.000 OA
ENDROOT
BRANCH   6  11
ATOM     11  C   UNL     1       1.845   8.845  18.627  0.00  0.00    +0.000 C 
ATOM     12  O   UNL     1       1.745   9.430  17.552  0.00  0.00    +0.000 OA
ATOM     13  N   UNL     1       2.586   7.701  18.791  0.00  0.00    +0.000 N 
ATOM     14  H   UNL     1       2.650   7.225  19.675  0.00  0.00    +0.000 HD
BRANCH  13  15
ATOM     15  C   UNL     1       3.304   7.058  17.713  0.00  0.00    +0.000 C 
BRANCH  15  16
ATOM     16  C   UNL     1       3.067   5.568  17.726  0.00  0.00    +0.000 A 
ATOM     17  C   UNL     1       1.832   5.047  18.138  0.00  0.00    +0.000 A 
ATOM     18  C   UNL     1       1.604   3.669  18.130  0.00  0.00    +0.000 A 
ATOM     19  C   UNL     1       2.606   2.797  17.709  0.00  0.00    +0.000 A 
ATOM     20  C   UNL     1       3.837   3.302  17.298  0.00  0.00    +0.000 A 
ATOM     21  C   UNL     1       4.071   4.680  17.308  0.00  0.00    +0.000 A 
ENDBRANCH  15  16
ENDBRANCH  13  15
ENDBRANCH   6  11
BRANCH   1  22
ATOM     22  C   UNL     1      -1.548  13.292  23.365  0.00  0.00    +0.000 C 
BRANCH  22  24
ATOM     23  N   UNL     1      -3.791  12.604  22.660  0.00  0.00    +0.000 N 
ATOM     24  C   UNL     1      -2.895  13.661  22.751  0.00  0.00    +0.000 C 
ATOM     25  O   UNL     1      -3.155  14.845  22.538  0.00  0.00    +0.000 OA
ATOM     26  H   UNL     1      -3.457  11.732  23.068  0.00  0.00    +0.000 HD
BRANCH  23  32
ATOM     27  C   UNL     1      -5.439  12.541  20.835  0.00  0.00    +0.000 A 
ATOM     28  C   UNL     1      -6.794  12.534  20.440  0.00  0.00    +0.000 A 
ATOM     29  C   UNL     1      -7.820  12.692  21.369  0.00  0.00    +0.000 A 
ATOM     30  C   UNL     1      -7.508  12.884  22.706  0.00  0.00    +0.000 A 
ATOM     31  C   UNL     1      -6.177  12.873  23.116  0.00  0.00    +0.000 A 
ATOM     32  C   UNL     1      -5.129  12.671  22.206  0.00  0.00    +0.000 A 
BRANCH  27  34
ATOM     33  C   UNL     1      -4.932  11.615  18.560  0.00  0.00    +0.000 C 
ATOM     34  C   UNL     1      -4.406  12.431  19.735  0.00  0.00    +0.000 C 
ENDBRANCH  27  34
ENDBRANCH  23  32
ENDBRANCH  22  24
ENDBRANCH   1  22
TORSDOF 7
ENDMDL
MODEL 9
REMARK VINA RESULT:      -8.1      1.660     10.205
REMARK  Name = 
REMARK  8 active torsions:
REMARK  status: ('A' for Active; 'I' for Inactive)
REMARK    1  A    between atoms: C_1  and  C_2
REMARK    2  A    between atoms: C_2  and  C_3
REMARK    3  A    between atoms: C_8  and  N_9
REMARK    4  A    between atoms: C_10  and  C_12
REMARK    5  A    between atoms: C_12  and  N_13
REMARK    6  A    between atoms: C_18  and  C_19
REMARK    7  A    between atoms: N_21  and  C_22
REMARK    8  A    between atoms: C_22  and  C_23
REMARK                            x       y       z     vdW  Elec       q    Type
REMARK                         _______ _______ _______ _____ _____    ______ ____
ROOT
ATOM      1  N   UNL     1       1.447   8.842  19.583  0.00  0.00    +0.000 N 
ATOM      2  N   UNL     1       1.284   8.412  20.894  0.00  0.00    +0.000 NA
ATOM      3  C   UNL     1       0.498   9.308  21.405  0.00  0.00    +0.000 A 
ATOM      4  C   UNL     1      -0.010   9.404  22.790  0.00  0.00    +0.000 A 
ATOM      5  C   UNL     1      -0.817  10.438  23.092  0.00  0.00    +0.000 A 
ATOM      6  C   UNL     1      -1.212  11.443  22.095  0.00  0.00    +0.000 A 
ATOM      7  C   UNL     1      -0.712  11.327  20.854  0.00  0.00    +0.000 A 
ATOM      8  N   UNL     1       0.121  10.292  20.552  0.00  0.00    +0.000 N 
ATOM      9  C   UNL     1       0.747  10.034  19.360  0.00  0.00    +0.000 A 
ATOM     10  O   UNL     1       0.711  10.702  18.339  0.00  0.00    +0.000 OA
ENDROOT
BRANCH   6  11
ATOM     11  C   UNL     1      -2.153  12.557  22.484  0.00  0.00    +0.000 C 
ATOM     12  O   UNL     1      -1.987  13.172  23.533  0.00  0.00    +0.000 OA
ATOM     13  N   UNL     1      -3.180  12.825  21.612  0.00  0.00    +0.000 N 
ATOM     14  H   UNL     1      -3.311  12.306  20.761  0.00  0.00    +0.000 HD
BRANCH  13  15
ATOM     15  C   UNL     1      -4.180  13.842  21.852  0.00  0.00    +0.000 C 
BRANCH  15  16
ATOM     16  C   UNL     1      -5.478  13.220  22.306  0.00  0.00    +0.000 A 
ATOM     17  C   UNL     1      -5.880  13.311  23.646  0.00  0.00    +0.000 A 
ATOM     18  C   UNL     1      -7.091  12.755  24.064  0.00  0.00    +0.000 A 
ATOM     19  C   UNL     1      -7.914  12.104  23.147  0.00  0.00    +0.000 A 
ATOM     20  C   UNL     1      -7.526  12.006  21.813  0.00  0.00    +0.000 A 
ATOM     21  C   UNL     1      -6.312  12.558  21.392  0.00  0.00    +0.000 A 
ENDBRANCH  15  16
ENDBRANCH  13  15
ENDBRANCH   6  11
BRANCH   1  22
ATOM     22  C   UNL     1       2.308   8.211  18.616  0.00  0.00    +0.000 C 
BRANCH  22  24
ATOM     23  N   UNL     1       2.189   5.848  17.982  0.00  0.00    +0.000 N 
ATOM     24  C   UNL     1       2.623   6.754  18.941  0.00  0.00    +0.000 C 
ATOM     25  O   UNL     1       3.351   6.494  19.899  0.00  0.00    +0.000 OA
ATOM     26  H   UNL     1       1.769   6.275  17.158  0.00  0.00    +0.000 HD
BRANCH  23  32
ATOM     27  C   UNL     1       3.658   3.911  17.602  0.00  0.00    +0.000 A 
ATOM     28  C   UNL     1       3.855   2.517  17.696  0.00  0.00    +0.000 A 
ATOM     29  C   UNL     1       2.834   1.668  18.116  0.00  0.00    +0.000 A 
ATOM     30  C   UNL     1       1.590   2.195  18.427  0.00  0.00    +0.000 A 
ATOM     31  C   UNL     1       1.384   3.571  18.360  0.00  0.00    +0.000 A 
ATOM     32  C   UNL     1       2.409   4.450  17.983  0.00  0.00    +0.000 A 
BRANCH  27  34
ATOM     33  C   UNL     1       5.099   4.398  15.609  0.00  0.00    +0.000 C 
ATOM     34  C   UNL     1       4.812   4.731  17.068  0.00  0.00    +0.000 C 
ENDBRANCH  27  34
ENDBRANCH  23  32
ENDBRANCH  22  24
ENDBRANCH   1  22
TORSDOF 7
ENDMDL
