MODEL 1
REMARK VINA RESULT:      -6.7      0.000      0.000
REMARK  Name = 
REMARK  5 active torsions:
REMARK  status: ('A' for Active; 'I' for Inactive)
REMARK    1  A    between atoms: C_1  and  C_2
REMARK    2  A    between atoms: C_2  and  C_3
REMARK    3  A    between atoms: C_6  and  O_7
REMARK    4  A    between atoms: O_7  and  C_8
REMARK    5  A    between atoms: C_9  and  C_10
REMARK                            x       y       z     vdW  Elec       q    Type
REMARK                         _______ _______ _______ _____ _____    ______ ____
ROOT
ATOM      1  C   UNL     1       5.389   4.818  16.048  0.00  0.00    +0.000 A 
ATOM      2  C   UNL     1       5.457   6.206  15.994  0.00  0.00    +0.000 A 
ATOM      3  C   UNL     1       4.639   6.979  16.817  0.00  0.00    +0.000 A 
ATOM      4  C   UNL     1       3.731   6.385  17.714  0.00  0.00    +0.000 A 
ATOM      5  C   UNL     1       3.650   4.977  17.791  0.00  0.00    +0.000 A 
ATOM      6  C   UNL     1       4.488   4.220  16.939  0.00  0.00    +0.000 A 
ENDROOT
BRANCH   5   7
ATOM      7  C   UNL     1       2.764   4.214  18.689  0.00  0.00    +0.000 A 
ATOM      8  C   UNL     1       1.556   3.628  18.366  0.00  0.00    +0.000 A 
ATOM      9  S   UNL     1       0.864   2.866  19.741  0.00  0.00    +0.000 S 
ATOM     10  C   UNL     1       2.200   3.371  20.680  0.00  0.00    +0.000 A 
ATOM     11  N   UNL     1       2.295   3.076  21.988  0.00  0.00    +0.000 N 
ATOM     12  N   UNL     1       3.119   4.040  20.033  0.00  0.00    +0.000 NA
ATOM     13  H   UNL     1       1.755   2.295  22.339  0.00  0.00    +0.000 HD
ATOM     14  H   UNL     1       3.221   3.164  22.390  0.00  0.00    +0.000 HD
ENDBRANCH   5   7
BRANCH   1  16
ATOM     15  C   UNL     1       5.927   4.015  13.751  0.00  0.00    +0.000 C 
ATOM     16  C   UNL     1       6.320   3.973  15.220  0.00  0.00    +0.000 C 
ENDBRANCH   1  16
BRANCH   4  17
ATOM     17  O   UNL     1       2.952   7.140  18.553  0.00  0.00    +0.000 OA
ATOM     18  C   UNL     1       2.404   8.346  18.032  0.00  0.00    +0.000 C 
ENDBRANCH   4  17
TORSDOF 3
ENDMDL
MODEL 2
REMARK VINA RESULT:      -6.7      2.337      2.769
REMARK  Name = 
REMARK  5 active torsions:
REMARK  status: ('A' for Active; 'I' for Inactive)
REMARK    1  A    between atoms: C_1  and  C_2
REMARK    2  A    between atoms: C_2  and  C_3
REMARK    3  A    between atoms: C_6  and  O_7
REMARK    4  A    between atoms: O_7  and  C_8
REMARK    5  A    between atoms: C_9  and  C_10
REMARK                            x       y       z     vdW  Elec       q    Type
REMARK                         _______ _______ _______ _____ _____    ______ ____
ROOT
ATOM      1  C   UNL     1       5.681   4.264  15.046  0.00  0.00    +0.000 A 
ATOM      2  C   UNL     1       7.007   4.609  15.288  0.00  0.00    +0.000 A 
ATOM      3  C   UNL     1       7.461   4.766  16.596  0.00  0.00    +0.000 A 
ATOM      4  C   UNL     1       6.603   4.584  17.697  0.00  0.00    +0.000 A 
ATOM      5  C   UNL     1       5.254   4.226  17.475  0.00  0.00    +0.000 A 
ATOM      6  C   UNL     1       4.822   4.080  16.137  0.00  0.00    +0.000 A 
ENDROOT
BRANCH   5   7
ATOM      7  C   UNL     1       4.245   3.986  18.523  0.00  0.00    +0.000 A 
ATOM      8  C   UNL     1       3.659   2.780  18.853  0.00  0.00    +0.000 A 
ATOM      9  S   UNL     1       2.520   2.985  20.122  0.00  0.00    +0.000 S 
ATOM     10  C   UNL     1       2.864   4.659  20.145  0.00  0.00    +0.000 A 
ATOM     11  N   UNL     1       2.247   5.496  20.998  0.00  0.00    +0.000 N 
ATOM     12  N   UNL     1       3.775   5.057  19.294  0.00  0.00    +0.000 NA
ATOM     13  H   UNL     1       1.829   5.100  21.831  0.00  0.00    +0.000 HD
ATOM     14  H   UNL     1       2.699   6.391  21.137  0.00  0.00    +0.000 HD
ENDBRANCH   5   7
BRANCH   1  16
ATOM     15  C   UNL     1       6.351   3.601  12.738  0.00  0.00    +0.000 C 
ATOM     16  C   UNL     1       5.199   4.017  13.642  0.00  0.00    +0.000 C 
ENDBRANCH   1  16
BRANCH   4  17
ATOM     17  O   UNL     1       7.054   4.699  18.987  0.00  0.00    +0.000 OA
ATOM     18  C   UNL     1       7.847   5.838  19.305  0.00  0.00    +0.000 C 
ENDBRANCH   4  17
TORSDOF 3
ENDMDL
MODEL 3
REMARK VINA RESULT:      -6.5      3.267      5.358
REMARK  Name = 
REMARK  5 active torsions:
REMARK  status: ('A' for Active; 'I' for Inactive)
REMARK    1  A    between atoms: C_1  and  C_2
REMARK    2  A    between atoms: C_2  and  C_3
REMARK    3  A    between atoms: C_6  and  O_7
REMARK    4  A    between atoms: O_7  and  C_8
REMARK    5  A    between atoms: C_9  and  C_10
REMARK                            x       y       z     vdW  Elec       q    Type
REMARK                         _______ _______ _______ _____ _____    ______ ____
ROOT
ATOM      1  C   UNL     1       2.158   4.199  18.999  0.00  0.00    +0.000 A 
ATOM      2  C   UNL     1       1.889   3.412  17.885  0.00  0.00    +0.000 A 
ATOM      3  C   UNL     1       2.866   3.226  16.907  0.00  0.00    +0.000 A 
ATOM      4  C   UNL     1       4.136   3.822  17.018  0.00  0.00    +0.000 A 
ATOM      5  C   UNL     1       4.433   4.621  18.145  0.00  0.00    +0.000 A 
ATOM      6  C   UNL     1       3.420   4.796  19.116  0.00  0.00    +0.000 A 
ENDROOT
BRANCH   5   7
ATOM      7  C   UNL     1       5.719   5.295  18.406  0.00  0.00    +0.000 A 
ATOM      8  C   UNL     1       6.241   6.382  17.734  0.00  0.00    +0.000 A 
ATOM      9  S   UNL     1       7.778   6.809  18.370  0.00  0.00    +0.000 S 
ATOM     10  C   UNL     1       7.662   5.519  19.486  0.00  0.00    +0.000 A 
ATOM     11  N   UNL     1       8.639   5.262  20.373  0.00  0.00    +0.000 N 
ATOM     12  N   UNL     1       6.557   4.821  19.424  0.00  0.00    +0.000 NA
ATOM     13  H   UNL     1       9.282   6.011  20.600  0.00  0.00    +0.000 HD
ATOM     14  H   UNL     1       8.375   4.680  21.158  0.00  0.00    +0.000 HD
ENDBRANCH   5   7
BRANCH   1  16
ATOM     15  C   UNL     1       1.301   3.247  21.137  0.00  0.00    +0.000 C 
ATOM     16  C   UNL     1       1.138   4.345  20.096  0.00  0.00    +0.000 C 
ENDBRANCH   1  16
BRANCH   4  17
ATOM     17  O   UNL     1       5.114   3.612  16.079  0.00  0.00    +0.000 OA
ATOM     18  C   UNL     1       5.100   4.440  14.921  0.00  0.00    +0.000 C 
ENDBRANCH   4  17
TORSDOF 3
ENDMDL
MODEL 4
REMARK VINA RESULT:      -6.4      2.027      2.656
REMARK  Name = 
REMARK  5 active torsions:
REMARK  status: ('A' for Active; 'I' for Inactive)
REMARK    1  A    between atoms: C_1  and  C_2
REMARK    2  A    between atoms: C_2  and  C_3
REMARK    3  A    between atoms: C_6  and  O_7
REMARK    4  A    between atoms: O_7  and  C_8
REMARK    5  A    between atoms: C_9  and  C_10
REMARK                            x       y       z     vdW  Elec       q    Type
REMARK                         _______ _______ _______ _____ _____    ______ ____
ROOT
ATOM      1  C   UNL     1       5.611   4.315  15.333  0.00  0.00    +0.000 A 
ATOM      2  C   UNL     1       6.961   4.470  15.628  0.00  0.00    +0.000 A 
ATOM      3  C   UNL     1       7.374   4.648  16.948  0.00  0.00    +0.000 A 
ATOM      4  C   UNL     1       6.448   4.676  18.007  0.00  0.00    +0.000 A 
ATOM      5  C   UNL     1       5.071   4.513  17.732  0.00  0.00    +0.000 A 
ATOM      6  C   UNL     1       4.683   4.341  16.383  0.00  0.00    +0.000 A 
ENDROOT
BRANCH   5   7
ATOM      7  C   UNL     1       3.989   4.504  18.734  0.00  0.00    +0.000 A 
ATOM      8  C   UNL     1       3.065   5.502  18.970  0.00  0.00    +0.000 A 
ATOM      9  S   UNL     1       2.009   5.061  20.251  0.00  0.00    +0.000 S 
ATOM     10  C   UNL     1       2.851   3.583  20.422  0.00  0.00    +0.000 A 
ATOM     11  N   UNL     1       2.501   2.673  21.348  0.00  0.00    +0.000 N 
ATOM     12  N   UNL     1       3.836   3.398  19.581  0.00  0.00    +0.000 NA
ATOM     13  H   UNL     1       1.560   2.713  21.720  0.00  0.00    +0.000 HD
ATOM     14  H   UNL     1       2.858   1.737  21.198  0.00  0.00    +0.000 HD
ENDBRANCH   5   7
BRANCH   1  16
ATOM     15  C   UNL     1       6.353   3.773  13.016  0.00  0.00    +0.000 C 
ATOM     16  C   UNL     1       5.162   4.047  13.922  0.00  0.00    +0.000 C 
ENDBRANCH   1  16
BRANCH   4  17
ATOM     17  O   UNL     1       6.851   4.812  19.311  0.00  0.00    +0.000 OA
ATOM     18  C   UNL     1       7.891   5.745  19.582  0.00  0.00    +0.000 C 
ENDBRANCH   4  17
TORSDOF 3
ENDMDL
MODEL 5
REMARK VINA RESULT:      -6.4      1.191      1.309
REMARK  Name = 
REMARK  5 active torsions:
REMARK  status: ('A' for Active; 'I' for Inactive)
REMARK    1  A    between atoms: C_1  and  C_2
REMARK    2  A    between atoms: C_2  and  C_3
REMARK    3  A    between atoms: C_6  and  O_7
REMARK    4  A    between atoms: O_7  and  C_8
REMARK    5  A    between atoms: C_9  and  C_10
REMARK                            x       y       z     vdW  Elec       q    Type
REMARK                         _______ _______ _______ _____ _____    ______ ____
ROOT
ATOM      1  C   UNL     1       5.456   4.662  15.541  0.00  0.00    +0.000 A 
ATOM      2  C   UNL     1       5.417   6.045  15.393  0.00  0.00    +0.000 A 
ATOM      3  C   UNL     1       4.728   6.828  16.317  0.00  0.00    +0.000 A 
ATOM      4  C   UNL     1       4.059   6.251  17.413  0.00  0.00    +0.000 A 
ATOM      5  C   UNL     1       4.091   4.849  17.587  0.00  0.00    +0.000 A 
ATOM      6  C   UNL     1       4.793   4.081  16.629  0.00  0.00    +0.000 A 
ENDROOT
BRANCH   5   7
ATOM      7  C   UNL     1       3.455   4.105  18.690  0.00  0.00    +0.000 A 
ATOM      8  C   UNL     1       4.087   3.347  19.655  0.00  0.00    +0.000 A 
ATOM      9  S   UNL     1       2.940   2.643  20.722  0.00  0.00    +0.000 S 
ATOM     10  C   UNL     1       1.678   3.375  19.831  0.00  0.00    +0.000 A 
ATOM     11  N   UNL     1       0.387   3.209  20.167  0.00  0.00    +0.000 N 
ATOM     12  N   UNL     1       2.060   4.114  18.821  0.00  0.00    +0.000 NA
ATOM     13  H   UNL     1       0.177   2.929  21.117  0.00  0.00    +0.000 HD
ATOM     14  H   UNL     1      -0.258   3.884  19.773  0.00  0.00    +0.000 HD
ENDBRANCH   5   7
BRANCH   1  16
ATOM     15  C   UNL     1       5.642   3.821  13.201  0.00  0.00    +0.000 C 
ATOM     16  C   UNL     1       6.259   3.814  14.592  0.00  0.00    +0.000 C 
ENDBRANCH   1  16
BRANCH   4  17
ATOM     17  O   UNL     1       3.412   7.020  18.347  0.00  0.00    +0.000 OA
ATOM     18  C   UNL     1       2.645   8.121  17.872  0.00  0.00    +0.000 C 
ENDBRANCH   4  17
TORSDOF 3
ENDMDL
MODEL 6
REMARK VINA RESULT:      -6.4      2.215      2.805
REMARK  Name = 
REMARK  5 active torsions:
REMARK  status: ('A' for Active; 'I' for Inactive)
REMARK    1  A    between atoms: C_1  and  C_2
REMARK    2  A    between atoms: C_2  and  C_3
REMARK    3  A    between atoms: C_6  and  O_7
REMARK    4  A    between atoms: O_7  and  C_8
REMARK    5  A    between atoms: C_9  and  C_10
REMARK                            x       y       z     vdW  Elec       q    Type
REMARK                         _______ _______ _______ _____ _____    ______ ____
ROOT
ATOM      1  C   UNL     1       6.321   4.261  14.766  0.00  0.00    +0.000 A 
ATOM      2  C   UNL     1       7.452   4.703  15.444  0.00  0.00    +0.000 A 
ATOM      3  C   UNL     1       7.406   4.910  16.822  0.00  0.00    +0.000 A 
ATOM      4  C   UNL     1       6.228   4.682  17.558  0.00  0.00    +0.000 A 
ATOM      5  C   UNL     1       5.069   4.226  16.891  0.00  0.00    +0.000 A 
ATOM      6  C   UNL     1       5.145   4.031  15.492  0.00  0.00    +0.000 A 
ENDROOT
BRANCH   5   7
ATOM      7  C   UNL     1       3.772   3.928  17.527  0.00  0.00    +0.000 A 
ATOM      8  C   UNL     1       2.788   4.833  17.873  0.00  0.00    +0.000 A 
ATOM      9  S   UNL     1       1.460   4.033  18.612  0.00  0.00    +0.000 S 
ATOM     10  C   UNL     1       2.277   2.541  18.439  0.00  0.00    +0.000 A 
ATOM     11  N   UNL     1       1.735   1.385  18.861  0.00  0.00    +0.000 N 
ATOM     12  N   UNL     1       3.446   2.606  17.855  0.00  0.00    +0.000 NA
ATOM     13  H   UNL     1       0.730   1.349  18.981  0.00  0.00    +0.000 HD
ATOM     14  H   UNL     1       2.145   0.543  18.476  0.00  0.00    +0.000 HD
ENDBRANCH   5   7
BRANCH   1  16
ATOM     15  C   UNL     1       5.006   3.580  12.760  0.00  0.00    +0.000 C 
ATOM     16  C   UNL     1       6.381   3.962  13.292  0.00  0.00    +0.000 C 
ENDBRANCH   1  16
BRANCH   4  17
ATOM     17  O   UNL     1       6.187   4.847  18.919  0.00  0.00    +0.000 OA
ATOM     18  C   UNL     1       7.263   5.555  19.526  0.00  0.00    +0.000 C 
ENDBRANCH   4  17
TORSDOF 3
ENDMDL
MODEL 7
REMARK VINA RESULT:      -6.3      3.155      5.649
REMARK  Name = 
REMARK  5 active torsions:
REMARK  status: ('A' for Active; 'I' for Inactive)
REMARK    1  A    between atoms: C_1  and  C_2
REMARK    2  A    between atoms: C_2  and  C_3
REMARK    3  A    between atoms: C_6  and  O_7
REMARK    4  A    between atoms: O_7  and  C_8
REMARK    5  A    between atoms: C_9  and  C_10
REMARK                            x       y       z     vdW  Elec       q    Type
REMARK                         _______ _______ _______ _____ _____    ______ ____
ROOT
ATOM      1  C   UNL     1       2.167   6.693  19.948  0.00  0.00    +0.000 A 
ATOM      2  C   UNL     1       1.567   5.692  20.703  0.00  0.00    +0.000 A 
ATOM      3  C   UNL     1       2.015   4.375  20.602  0.00  0.00    +0.000 A 
ATOM      4  C   UNL     1       3.075   4.026  19.745  0.00  0.00    +0.000 A 
ATOM      5  C   UNL     1       3.705   5.029  18.973  0.00  0.00    +0.000 A 
ATOM      6  C   UNL     1       3.223   6.353  19.092  0.00  0.00    +0.000 A 
ENDROOT
BRANCH   5   7
ATOM      7  C   UNL     1       4.833   4.819  18.047  0.00  0.00    +0.000 A 
ATOM      8  C   UNL     1       4.778   4.758  16.669  0.00  0.00    +0.000 A 
ATOM      9  S   UNL     1       6.338   4.474  16.011  0.00  0.00    +0.000 S 
ATOM     10  C   UNL     1       6.986   4.437  17.592  0.00  0.00    +0.000 A 
ATOM     11  N   UNL     1       8.296   4.229  17.814  0.00  0.00    +0.000 N 
ATOM     12  N   UNL     1       6.126   4.642  18.556  0.00  0.00    +0.000 NA
ATOM     13  H   UNL     1       8.941   4.417  17.056  0.00  0.00    +0.000 HD
ATOM     14  H   UNL     1       8.632   4.497  18.731  0.00  0.00    +0.000 HD
ENDBRANCH   5   7
BRANCH   1  16
ATOM     15  C   UNL     1       1.163   8.375  21.491  0.00  0.00    +0.000 C 
ATOM     16  C   UNL     1       1.742   8.129  20.105  0.00  0.00    +0.000 C 
ENDBRANCH   1  16
BRANCH   4  17
ATOM     17  O   UNL     1       3.546   2.740  19.671  0.00  0.00    +0.000 OA
ATOM     18  C   UNL     1       2.895   1.855  18.765  0.00  0.00    +0.000 C 
ENDBRANCH   4  17
TORSDOF 3
ENDMDL
MODEL 8
REMARK VINA RESULT:      -6.2      2.525      2.862
REMARK  Name = 
REMARK  5 active torsions:
REMARK  status: ('A' for Active; 'I' for Inactive)
REMARK    1  A    between atoms: C_1  and  C_2
REMARK    2  A    between atoms: C_2  and  C_3
REMARK    3  A    between atoms: C_6  and  O_7
REMARK    4  A    between atoms: O_7  and  C_8
REMARK    5  A    between atoms: C_9  and  C_10
REMARK                            x       y       z     vdW  Elec       q    Type
REMARK                         _______ _______ _______ _____ _____    ______ ____
ROOT
ATOM      1  C   UNL     1       5.687   4.253  14.934  0.00  0.00    +0.000 A 
ATOM      2  C   UNL     1       6.889   4.864  15.275  0.00  0.00    +0.000 A 
ATOM      3  C   UNL     1       7.217   5.063  16.616  0.00  0.00    +0.000 A 
ATOM      4  C   UNL     1       6.352   4.658  17.649  0.00  0.00    +0.000 A 
ATOM      5  C   UNL     1       5.128   4.030  17.326  0.00  0.00    +0.000 A 
ATOM      6  C   UNL     1       4.821   3.847  15.958  0.00  0.00    +0.000 A 
ENDROOT
BRANCH   5   7
ATOM      7  C   UNL     1       4.131   3.538  18.295  0.00  0.00    +0.000 A 
ATOM      8  C   UNL     1       4.346   3.225  19.623  0.00  0.00    +0.000 A 
ATOM      9  S   UNL     1       2.897   2.667  20.357  0.00  0.00    +0.000 S 
ATOM     10  C   UNL     1       2.080   2.862  18.868  0.00  0.00    +0.000 A 
ATOM     11  N   UNL     1       0.775   2.569  18.734  0.00  0.00    +0.000 N 
ATOM     12  N   UNL     1       2.808   3.330  17.886  0.00  0.00    +0.000 NA
ATOM     13  H   UNL     1       0.206   2.546  19.571  0.00  0.00    +0.000 HD
ATOM     14  H   UNL     1       0.318   2.969  17.923  0.00  0.00    +0.000 HD
ENDBRANCH   5   7
BRANCH   1  16
ATOM     15  C   UNL     1       6.625   3.734  12.683  0.00  0.00    +0.000 C 
ATOM     16  C   UNL     1       5.357   3.964  13.494  0.00  0.00    +0.000 C 
ENDBRANCH   1  16
BRANCH   4  17
ATOM     17  O   UNL     1       6.686   4.817  18.970  0.00  0.00    +0.000 OA
ATOM     18  C   UNL     1       7.730   5.735  19.277  0.00  0.00    +0.000 C 
ENDBRANCH   4  17
TORSDOF 3
ENDMDL
MODEL 9
REMARK VINA RESULT:      -6.1      3.305      5.779
REMARK  Name = 
REMARK  5 active torsions:
REMARK  status: ('A' for Active; 'I' for Inactive)
REMARK    1  A    between atoms: C_1  and  C_2
REMARK    2  A    between atoms: C_2  and  C_3
REMARK    3  A    between atoms: C_6  and  O_7
REMARK    4  A    between atoms: O_7  and  C_8
REMARK    5  A    between atoms: C_9  and  C_10
REMARK                            x       y       z     vdW  Elec       q    Type
REMARK                         _______ _______ _______ _____ _____    ______ ____
ROOT
ATOM      1  C   UNL     1       2.314   6.503  19.802  0.00  0.00    +0.000 A 
ATOM      2  C   UNL     1       1.714   5.493  20.546  0.00  0.00    +0.000 A 
ATOM      3  C   UNL     1       2.201   4.188  20.476  0.00  0.00    +0.000 A 
ATOM      4  C   UNL     1       3.299   3.859  19.660  0.00  0.00    +0.000 A 
ATOM      5  C   UNL     1       3.929   4.871  18.900  0.00  0.00    +0.000 A 
ATOM      6  C   UNL     1       3.408   6.183  18.987  0.00  0.00    +0.000 A 
ENDROOT
BRANCH   5   7
ATOM      7  C   UNL     1       5.094   4.683  18.016  0.00  0.00    +0.000 A 
ATOM      8  C   UNL     1       6.410   4.996  18.295  0.00  0.00    +0.000 A 
ATOM      9  S   UNL     1       7.419   4.625  16.956  0.00  0.00    +0.000 S 
ATOM     10  C   UNL     1       6.050   4.086  16.086  0.00  0.00    +0.000 A 
ATOM     11  N   UNL     1       6.150   3.617  14.830  0.00  0.00    +0.000 N 
ATOM     12  N   UNL     1       4.915   4.146  16.734  0.00  0.00    +0.000 NA
ATOM     13  H   UNL     1       7.054   3.282  14.520  0.00  0.00    +0.000 HD
ATOM     14  H   UNL     1       5.362   3.072  14.503  0.00  0.00    +0.000 HD
ENDBRANCH   5   7
BRANCH   1  16
ATOM     15  C   UNL     1       1.136   8.150  21.256  0.00  0.00    +0.000 C 
ATOM     16  C   UNL     1       1.846   7.928  19.928  0.00  0.00    +0.000 C 
ENDBRANCH   1  16
BRANCH   4  17
ATOM     17  O   UNL     1       3.807   2.586  19.616  0.00  0.00    +0.000 OA
ATOM     18  C   UNL     1       3.198   1.668  18.714  0.00  0.00    +0.000 C 
ENDBRANCH   4  17
TORSDOF 3
ENDMDL
