MODEL 1
REMARK VINA RESULT:      -7.2      0.000      0.000
REMARK  Name = 
REMARK  3 active torsions:
REMARK  status: ('A' for Active; 'I' for Inactive)
REMARK    1  A    between atoms: C_5  and  N_6
REMARK    2  A    between atoms: N_6  and  S_7
REMARK    3  A    between atoms: S_7  and  C_10
REMARK                            x       y       z     vdW  Elec       q    Type
REMARK                         _______ _______ _______ _____ _____    ______ ____
ROOT
ATOM      1  S   UNL     1       4.547   3.347  18.830  0.00  0.00    +0.000 S 
ATOM      2  O   UNL     1       4.133   2.759  17.580  0.00  0.00    +0.000 OA
ATOM      3  O   UNL     1       5.231   2.570  19.838  0.00  0.00    +0.000 OA
ENDROOT
BRANCH   1   4
ATOM      4  C   UNL     1       3.135   4.102  19.562  0.00  0.00    +0.000 A 
ATOM      5  C   UNL     1       3.088   5.490  19.735  0.00  0.00    +0.000 A 
ATOM      6  C   UNL     1       1.920   6.076  20.221  0.00  0.00    +0.000 A 
ATOM      7 CL   UNL     1       1.832   7.785  20.389  0.00  0.00    +0.000 Cl
ATOM      8  C   UNL     1       0.812   5.291  20.545  0.00  0.00    +0.000 A 
ATOM      9  C   UNL     1       0.875   3.904  20.392  0.00  0.00    +0.000 A 
ATOM     10  C   UNL     1       2.039   3.313  19.904  0.00  0.00    +0.000 A 
ATOM     11  F   UNL     1       2.052   1.988  19.715  0.00  0.00    +0.000 F 
ENDBRANCH   1   4
BRANCH   1  12
ATOM     12  N   UNL     1       5.535   4.659  18.444  0.00  0.00    +0.000 NA
ATOM     13  H   UNL     1       4.966   5.470  18.190  0.00  0.00    +0.000 HD
BRANCH  12  18
ATOM     14  O   UNL     1       7.652   8.521  17.331  0.00  0.00    +0.000 OA
ATOM     15  C   UNL     1       7.465   7.312  17.435  0.00  0.00    +0.000 C 
ATOM     16  C   UNL     1       7.894   6.541  18.663  0.00  0.00    +0.000 C 
ATOM     17  C   UNL     1       8.011   5.036  18.454  0.00  0.00    +0.000 C 
ATOM     18  C   UNL     1       6.806   4.468  17.707  0.00  0.00    +0.000 C 
ATOM     19  C   UNL     1       6.739   5.196  16.352  0.00  0.00    +0.000 C 
ATOM     20  N   UNL     1       6.756   6.641  16.481  0.00  0.00    +0.000 N 
ATOM     21  H   UNL     1       6.526   7.212  15.677  0.00  0.00    +0.000 HD
ENDBRANCH  12  18
ENDBRANCH   1  12
TORSDOF 3
ENDMDL
MODEL 2
REMARK VINA RESULT:      -7.2      2.840      3.515
REMARK  Name = 
REMARK  3 active torsions:
REMARK  status: ('A' for Active; 'I' for Inactive)
REMARK    1  A    between atoms: C_5  and  N_6
REMARK    2  A    between atoms: N_6  and  S_7
REMARK    3  A    between atoms: S_7  and  C_10
REMARK                            x       y       z     vdW  Elec       q    Type
REMARK                         _______ _______ _______ _____ _____    ______ ____
ROOT
ATOM      1  S   UNL     1       2.272   4.868  17.984  0.00  0.00    +0.000 S 
ATOM      2  O   UNL     1       2.215   6.227  18.464  0.00  0.00    +0.000 OA
ATOM      3  O   UNL     1       1.241   4.328  17.127  0.00  0.00    +0.000 OA
ENDROOT
BRANCH   1   4
ATOM      4  C   UNL     1       2.455   3.813  19.381  0.00  0.00    +0.000 A 
ATOM      5  C   UNL     1       3.618   3.052  19.542  0.00  0.00    +0.000 A 
ATOM      6  C   UNL     1       3.786   2.303  20.706  0.00  0.00    +0.000 A 
ATOM      7 CL   UNL     1       5.234   1.405  20.939  0.00  0.00    +0.000 Cl
ATOM      8  C   UNL     1       2.801   2.297  21.696  0.00  0.00    +0.000 A 
ATOM      9  C   UNL     1       1.632   3.039  21.516  0.00  0.00    +0.000 A 
ATOM     10  C   UNL     1       1.460   3.793  20.356  0.00  0.00    +0.000 A 
ATOM     11  F   UNL     1       0.355   4.538  20.237  0.00  0.00    +0.000 F 
ENDBRANCH   1   4
BRANCH   1  12
ATOM     12  N   UNL     1       3.743   4.702  17.175  0.00  0.00    +0.000 NA
ATOM     13  H   UNL     1       4.259   3.898  17.537  0.00  0.00    +0.000 HD
BRANCH  12  18
ATOM     14  O   UNL     1       8.242   4.107  17.380  0.00  0.00    +0.000 OA
ATOM     15  C   UNL     1       7.175   4.674  17.161  0.00  0.00    +0.000 C 
ATOM     16  C   UNL     1       6.453   4.536  15.840  0.00  0.00    +0.000 C 
ATOM     17  C   UNL     1       5.425   5.626  15.565  0.00  0.00    +0.000 C 
ATOM     18  C   UNL     1       4.535   5.890  16.777  0.00  0.00    +0.000 C 
ATOM     19  C   UNL     1       5.467   6.307  17.931  0.00  0.00    +0.000 C 
ATOM     20  N   UNL     1       6.548   5.367  18.156  0.00  0.00    +0.000 N 
ATOM     21  H   UNL     1       7.100   5.442  19.002  0.00  0.00    +0.000 HD
ENDBRANCH  12  18
ENDBRANCH   1  12
TORSDOF 3
ENDMDL
MODEL 3
REMARK VINA RESULT:      -7.1      1.162      1.496
REMARK  Name = 
REMARK  3 active torsions:
REMARK  status: ('A' for Active; 'I' for Inactive)
REMARK    1  A    between atoms: C_5  and  N_6
REMARK    2  A    between atoms: N_6  and  S_7
REMARK    3  A    between atoms: S_7  and  C_10
REMARK                            x       y       z     vdW  Elec       q    Type
REMARK                         _______ _______ _______ _____ _____    ______ ____
ROOT
ATOM      1  S   UNL     1       4.296   2.522  19.070  0.00  0.00    +0.000 S 
ATOM      2  O   UNL     1       3.742   1.624  18.086  0.00  0.00    +0.000 OA
ATOM      3  O   UNL     1       5.064   2.029  20.191  0.00  0.00    +0.000 OA
ENDROOT
BRANCH   1   4
ATOM      4  C   UNL     1       2.985   3.525  19.680  0.00  0.00    +0.000 A 
ATOM      5  C   UNL     1       3.138   4.914  19.756  0.00  0.00    +0.000 A 
ATOM      6  C   UNL     1       2.052   5.698  20.145  0.00  0.00    +0.000 A 
ATOM      7 CL   UNL     1       2.211   7.409  20.193  0.00  0.00    +0.000 Cl
ATOM      8  C   UNL     1       0.829   5.108  20.468  0.00  0.00    +0.000 A 
ATOM      9  C   UNL     1       0.692   3.719  20.413  0.00  0.00    +0.000 A 
ATOM     10  C   UNL     1       1.773   2.930  20.022  0.00  0.00    +0.000 A 
ATOM     11  F   UNL     1       1.596   1.607  19.924  0.00  0.00    +0.000 F 
ENDBRANCH   1   4
BRANCH   1  12
ATOM     12  N   UNL     1       5.269   3.617  18.232  0.00  0.00    +0.000 NA
ATOM     13  H   UNL     1       5.596   4.354  18.861  0.00  0.00    +0.000 HD
BRANCH  12  18
ATOM     14  O   UNL     1       7.756   7.074  16.651  0.00  0.00    +0.000 OA
ATOM     15  C   UNL     1       6.931   6.164  16.642  0.00  0.00    +0.000 C 
ATOM     16  C   UNL     1       7.315   4.741  16.308  0.00  0.00    +0.000 C 
ATOM     17  C   UNL     1       6.148   3.851  15.898  0.00  0.00    +0.000 C 
ATOM     18  C   UNL     1       4.954   4.008  16.838  0.00  0.00    +0.000 C 
ATOM     19  C   UNL     1       4.543   5.492  16.791  0.00  0.00    +0.000 C 
ATOM     20  N   UNL     1       5.648   6.396  17.046  0.00  0.00    +0.000 N 
ATOM     21  H   UNL     1       5.456   7.374  17.228  0.00  0.00    +0.000 HD
ENDBRANCH  12  18
ENDBRANCH   1  12
TORSDOF 3
ENDMDL
MODEL 4
REMARK VINA RESULT:      -7.0      3.187      5.072
REMARK  Name = 
REMARK  3 active torsions:
REMARK  status: ('A' for Active; 'I' for Inactive)
REMARK    1  A    between atoms: C_5  and  N_6
REMARK    2  A    between atoms: N_6  and  S_7
REMARK    3  A    between atoms: S_7  and  C_10
REMARK                            x       y       z     vdW  Elec       q    Type
REMARK                         _______ _______ _______ _____ _____    ______ ____
ROOT
ATOM      1  S   UNL     1       5.313   4.974  18.575  0.00  0.00    +0.000 S 
ATOM      2  O   UNL     1       6.139   5.218  19.733  0.00  0.00    +0.000 OA
ATOM      3  O   UNL     1       5.882   4.888  17.249  0.00  0.00    +0.000 OA
ENDROOT
BRANCH   1   4
ATOM      4  C   UNL     1       4.035   6.185  18.564  0.00  0.00    +0.000 A 
ATOM      5  C   UNL     1       3.176   6.312  19.661  0.00  0.00    +0.000 A 
ATOM      6  C   UNL     1       2.238   7.343  19.674  0.00  0.00    +0.000 A 
ATOM      7 CL   UNL     1       1.211   7.542  21.039  0.00  0.00    +0.000 Cl
ATOM      8  C   UNL     1       2.143   8.233  18.602  0.00  0.00    +0.000 A 
ATOM      9  C   UNL     1       2.988   8.084  17.500  0.00  0.00    +0.000 A 
ATOM     10  C   UNL     1       3.930   7.057  17.483  0.00  0.00    +0.000 A 
ATOM     11  F   UNL     1       4.764   6.972  16.439  0.00  0.00    +0.000 F 
ENDBRANCH   1   4
BRANCH   1  12
ATOM     12  N   UNL     1       4.485   3.534  18.866  0.00  0.00    +0.000 NA
ATOM     13  H   UNL     1       4.885   3.051  19.673  0.00  0.00    +0.000 HD
BRANCH  12  18
ATOM     14  O   UNL     1       0.099   2.387  19.154  0.00  0.00    +0.000 OA
ATOM     15  C   UNL     1       1.229   2.466  18.679  0.00  0.00    +0.000 C 
ATOM     16  C   UNL     1       1.651   3.628  17.810  0.00  0.00    +0.000 C 
ATOM     17  C   UNL     1       2.880   3.360  16.950  0.00  0.00    +0.000 C 
ATOM     18  C   UNL     1       3.999   2.693  17.747  0.00  0.00    +0.000 C 
ATOM     19  C   UNL     1       3.427   1.372  18.296  0.00  0.00    +0.000 C 
ATOM     20  N   UNL     1       2.181   1.548  19.017  0.00  0.00    +0.000 N 
ATOM     21  H   UNL     1       1.822   0.785  19.577  0.00  0.00    +0.000 HD
ENDBRANCH  12  18
ENDBRANCH   1  12
TORSDOF 3
ENDMDL
MODEL 5
REMARK VINA RESULT:      -6.9      1.486      1.757
REMARK  Name = 
REMARK  3 active torsions:
REMARK  status: ('A' for Active; 'I' for Inactive)
REMARK    1  A    between atoms: C_5  and  N_6
REMARK    2  A    between atoms: N_6  and  S_7
REMARK    3  A    between atoms: S_7  and  C_10
REMARK                            x       y       z     vdW  Elec       q    Type
REMARK                         _______ _______ _______ _____ _____    ______ ____
ROOT
ATOM      1  S   UNL     1       3.480   3.749  17.582  0.00  0.00    +0.000 S 
ATOM      2  O   UNL     1       2.406   3.392  16.688  0.00  0.00    +0.000 OA
ATOM      3  O   UNL     1       4.074   2.778  18.473  0.00  0.00    +0.000 OA
ENDROOT
BRANCH   1   4
ATOM      4  C   UNL     1       2.952   5.135  18.530  0.00  0.00    +0.000 A 
ATOM      5  C   UNL     1       2.923   6.411  17.956  0.00  0.00    +0.000 A 
ATOM      6  C   UNL     1       2.404   7.476  18.692  0.00  0.00    +0.000 A 
ATOM      7 CL   UNL     1       2.315   9.039  17.980  0.00  0.00    +0.000 Cl
ATOM      8  C   UNL     1       1.931   7.280  19.991  0.00  0.00    +0.000 A 
ATOM      9  C   UNL     1       1.986   6.008  20.564  0.00  0.00    +0.000 A 
ATOM     10  C   UNL     1       2.500   4.938  19.833  0.00  0.00    +0.000 A 
ATOM     11  F   UNL     1       2.489   3.721  20.388  0.00  0.00    +0.000 F 
ENDBRANCH   1   4
BRANCH   1  12
ATOM     12  N   UNL     1       4.717   4.380  16.624  0.00  0.00    +0.000 NA
ATOM     13  H   UNL     1       4.410   4.456  15.652  0.00  0.00    +0.000 HD
BRANCH  12  18
ATOM     14  O   UNL     1       7.540   7.915  17.043  0.00  0.00    +0.000 OA
ATOM     15  C   UNL     1       7.175   6.742  17.023  0.00  0.00    +0.000 C 
ATOM     16  C   UNL     1       6.639   6.052  18.256  0.00  0.00    +0.000 C 
ATOM     17  C   UNL     1       6.666   4.530  18.190  0.00  0.00    +0.000 C 
ATOM     18  C   UNL     1       6.132   4.007  16.858  0.00  0.00    +0.000 C 
ATOM     19  C   UNL     1       7.021   4.611  15.755  0.00  0.00    +0.000 C 
ATOM     20  N   UNL     1       7.140   6.053  15.845  0.00  0.00    +0.000 N 
ATOM     21  H   UNL     1       7.538   6.567  15.068  0.00  0.00    +0.000 HD
ENDBRANCH  12  18
ENDBRANCH   1  12
TORSDOF 3
ENDMDL
MODEL 6
REMARK VINA RESULT:      -6.9      1.714      2.023
REMARK  Name = 
REMARK  3 active torsions:
REMARK  status: ('A' for Active; 'I' for Inactive)
REMARK    1  A    between atoms: C_5  and  N_6
REMARK    2  A    between atoms: N_6  and  S_7
REMARK    3  A    between atoms: S_7  and  C_10
REMARK                            x       y       z     vdW  Elec       q    Type
REMARK                         _______ _______ _______ _____ _____    ______ ____
ROOT
ATOM      1  S   UNL     1       4.302   2.962  18.934  0.00  0.00    +0.000 S 
ATOM      2  O   UNL     1       3.432   2.028  18.262  0.00  0.00    +0.000 OA
ATOM      3  O   UNL     1       5.198   2.535  19.984  0.00  0.00    +0.000 OA
ENDROOT
BRANCH   1   4
ATOM      4  C   UNL     1       3.306   4.280  19.543  0.00  0.00    +0.000 A 
ATOM      5  C   UNL     1       3.239   5.492  18.846  0.00  0.00    +0.000 A 
ATOM      6  C   UNL     1       2.365   6.484  19.290  0.00  0.00    +0.000 A 
ATOM      7 CL   UNL     1       2.236   7.958  18.414  0.00  0.00    +0.000 Cl
ATOM      8  C   UNL     1       1.575   6.281  20.423  0.00  0.00    +0.000 A 
ATOM      9  C   UNL     1       1.666   5.077  21.126  0.00  0.00    +0.000 A 
ATOM     10  C   UNL     1       2.535   4.081  20.685  0.00  0.00    +0.000 A 
ATOM     11  F   UNL     1       2.560   2.917  21.347  0.00  0.00    +0.000 F 
ENDBRANCH   1   4
BRANCH   1  12
ATOM     12  N   UNL     1       5.237   3.699  17.739  0.00  0.00    +0.000 NA
ATOM     13  H   UNL     1       5.601   2.998  17.090  0.00  0.00    +0.000 HD
BRANCH  12  18
ATOM     14  O   UNL     1       7.546   5.329  14.183  0.00  0.00    +0.000 OA
ATOM     15  C   UNL     1       7.138   5.249  15.338  0.00  0.00    +0.000 C 
ATOM     16  C   UNL     1       5.859   5.921  15.782  0.00  0.00    +0.000 C 
ATOM     17  C   UNL     1       5.736   6.112  17.289  0.00  0.00    +0.000 C 
ATOM     18  C   UNL     1       6.117   4.848  18.057  0.00  0.00    +0.000 C 
ATOM     19  C   UNL     1       7.571   4.515  17.673  0.00  0.00    +0.000 C 
ATOM     20  N   UNL     1       7.779   4.448  16.239  0.00  0.00    +0.000 N 
ATOM     21  H   UNL     1       8.641   4.053  15.883  0.00  0.00    +0.000 HD
ENDBRANCH  12  18
ENDBRANCH   1  12
TORSDOF 3
ENDMDL
MODEL 7
REMARK VINA RESULT:      -6.8      3.568      6.192
REMARK  Name = 
REMARK  3 active torsions:
REMARK  status: ('A' for Active; 'I' for Inactive)
REMARK    1  A    between atoms: C_5  and  N_6
REMARK    2  A    between atoms: N_6  and  S_7
REMARK    3  A    between atoms: S_7  and  C_10
REMARK                            x       y       z     vdW  Elec       q    Type
REMARK                         _______ _______ _______ _____ _____    ______ ____
ROOT
ATOM      1  S   UNL     1       3.706   5.761  18.455  0.00  0.00    +0.000 S 
ATOM      2  O   UNL     1       3.263   6.981  17.825  0.00  0.00    +0.000 OA
ATOM      3  O   UNL     1       4.057   5.721  19.857  0.00  0.00    +0.000 OA
ENDROOT
BRANCH   1   4
ATOM      4  C   UNL     1       5.057   5.133  17.517  0.00  0.00    +0.000 A 
ATOM      5  C   UNL     1       4.879   4.780  16.175  0.00  0.00    +0.000 A 
ATOM      6  C   UNL     1       5.984   4.383  15.423  0.00  0.00    +0.000 A 
ATOM      7 CL   UNL     1       5.787   3.996  13.759  0.00  0.00    +0.000 Cl
ATOM      8  C   UNL     1       7.253   4.322  16.002  0.00  0.00    +0.000 A 
ATOM      9  C   UNL     1       7.418   4.652  17.349  0.00  0.00    +0.000 A 
ATOM     10  C   UNL     1       6.317   5.054  18.105  0.00  0.00    +0.000 A 
ATOM     11  F   UNL     1       6.515   5.418  19.377  0.00  0.00    +0.000 F 
ENDBRANCH   1   4
BRANCH   1  12
ATOM     12  N   UNL     1       2.491   4.618  18.204  0.00  0.00    +0.000 NA
ATOM     13  H   UNL     1       1.616   4.931  18.628  0.00  0.00    +0.000 HD
BRANCH  12  18
ATOM     14  O   UNL     1       1.279   2.595  22.086  0.00  0.00    +0.000 OA
ATOM     15  C   UNL     1       1.713   2.702  20.942  0.00  0.00    +0.000 C 
ATOM     16  C   UNL     1       0.809   2.622  19.734  0.00  0.00    +0.000 C 
ATOM     17  C   UNL     1       1.528   2.316  18.425  0.00  0.00    +0.000 C 
ATOM     18  C   UNL     1       2.785   3.166  18.253  0.00  0.00    +0.000 C 
ATOM     19  C   UNL     1       3.698   2.859  19.455  0.00  0.00    +0.000 C 
ATOM     20  N   UNL     1       3.027   3.008  20.732  0.00  0.00    +0.000 N 
ATOM     21  H   UNL     1       3.577   3.018  21.582  0.00  0.00    +0.000 HD
ENDBRANCH  12  18
ENDBRANCH   1  12
TORSDOF 3
ENDMDL
MODEL 8
REMARK VINA RESULT:      -6.8      3.001      3.606
REMARK  Name = 
REMARK  3 active torsions:
REMARK  status: ('A' for Active; 'I' for Inactive)
REMARK    1  A    between atoms: C_5  and  N_6
REMARK    2  A    between atoms: N_6  and  S_7
REMARK    3  A    between atoms: S_7  and  C_10
REMARK                            x       y       z     vdW  Elec       q    Type
REMARK                         _______ _______ _______ _____ _____    ______ ____
ROOT
ATOM      1  S   UNL     1       2.779   6.382  18.788  0.00  0.00    +0.000 S 
ATOM      2  O   UNL     1       2.640   7.196  19.971  0.00  0.00    +0.000 OA
ATOM      3  O   UNL     1       2.101   6.720  17.557  0.00  0.00    +0.000 OA
ENDROOT
BRANCH   1   4
ATOM      4  C   UNL     1       2.363   4.727  19.224  0.00  0.00    +0.000 A 
ATOM      5  C   UNL     1       3.062   3.654  18.661  0.00  0.00    +0.000 A 
ATOM      6  C   UNL     1       2.787   2.359  19.097  0.00  0.00    +0.000 A 
ATOM      7 CL   UNL     1       3.675   1.036  18.451  0.00  0.00    +0.000 Cl
ATOM      8  C   UNL     1       1.816   2.128  20.074  0.00  0.00    +0.000 A 
ATOM      9  C   UNL     1       1.105   3.203  20.613  0.00  0.00    +0.000 A 
ATOM     10  C   UNL     1       1.379   4.501  20.183  0.00  0.00    +0.000 A 
ATOM     11  F   UNL     1       0.722   5.516  20.757  0.00  0.00    +0.000 F 
ENDBRANCH   1   4
BRANCH   1  12
ATOM     12  N   UNL     1       4.429   6.294  18.451  0.00  0.00    +0.000 NA
ATOM     13  H   UNL     1       4.974   6.566  19.272  0.00  0.00    +0.000 HD
BRANCH  12  18
ATOM     14  O   UNL     1       8.258   4.160  17.259  0.00  0.00    +0.000 OA
ATOM     15  C   UNL     1       7.288   4.906  17.155  0.00  0.00    +0.000 C 
ATOM     16  C   UNL     1       5.957   4.416  16.635  0.00  0.00    +0.000 C 
ATOM     17  C   UNL     1       5.026   5.519  16.145  0.00  0.00    +0.000 C 
ATOM     18  C   UNL     1       4.961   6.688  17.125  0.00  0.00    +0.000 C 
ATOM     19  C   UNL     1       6.397   7.223  17.276  0.00  0.00    +0.000 C 
ATOM     20  N   UNL     1       7.356   6.189  17.616  0.00  0.00    +0.000 N 
ATOM     21  H   UNL     1       8.283   6.456  17.924  0.00  0.00    +0.000 HD
ENDBRANCH  12  18
ENDBRANCH   1  12
TORSDOF 3
ENDMDL
MODEL 9
REMARK VINA RESULT:      -6.8      2.835      3.446
REMARK  Name = 
REMARK  3 active torsions:
REMARK  status: ('A' for Active; 'I' for Inactive)
REMARK    1  A    between atoms: C_5  and  N_6
REMARK    2  A    between atoms: N_6  and  S_7
REMARK    3  A    between atoms: S_7  and  C_10
REMARK                            x       y       z     vdW  Elec       q    Type
REMARK                         _______ _______ _______ _____ _____    ______ ____
ROOT
ATOM      1  S   UNL     1       2.718   6.291  18.772  0.00  0.00    +0.000 S 
ATOM      2  O   UNL     1       2.597   7.041  19.998  0.00  0.00    +0.000 OA
ATOM      3  O   UNL     1       2.057   6.717  17.559  0.00  0.00    +0.000 OA
ENDROOT
BRANCH   1   4
ATOM      4  C   UNL     1       2.253   4.627  19.114  0.00  0.00    +0.000 A 
ATOM      5  C   UNL     1       1.979   4.228  20.427  0.00  0.00    +0.000 A 
ATOM      6  C   UNL     1       1.514   2.935  20.661  0.00  0.00    +0.000 A 
ATOM      7 CL   UNL     1       1.124   2.448  22.264  0.00  0.00    +0.000 Cl
ATOM      8  C   UNL     1       1.335   2.040  19.604  0.00  0.00    +0.000 A 
ATOM      9  C   UNL     1       1.633   2.439  18.299  0.00  0.00    +0.000 A 
ATOM     10  C   UNL     1       2.096   3.732  18.058  0.00  0.00    +0.000 A 
ATOM     11  F   UNL     1       2.321   4.104  16.792  0.00  0.00    +0.000 F 
ENDBRANCH   1   4
BRANCH   1  12
ATOM     12  N   UNL     1       4.367   6.174  18.436  0.00  0.00    +0.000 NA
ATOM     13  H   UNL     1       4.916   6.410  19.266  0.00  0.00    +0.000 HD
BRANCH  12  18
ATOM     14  O   UNL     1       8.264   4.141  17.288  0.00  0.00    +0.000 OA
ATOM     15  C   UNL     1       7.278   4.866  17.175  0.00  0.00    +0.000 C 
ATOM     16  C   UNL     1       5.967   4.351  16.628  0.00  0.00    +0.000 C 
ATOM     17  C   UNL     1       5.019   5.437  16.133  0.00  0.00    +0.000 C 
ATOM     18  C   UNL     1       4.911   6.594  17.123  0.00  0.00    +0.000 C 
ATOM     19  C   UNL     1       6.332   7.160  17.304  0.00  0.00    +0.000 C 
ATOM     20  N   UNL     1       7.309   6.145  17.650  0.00  0.00    +0.000 N 
ATOM     21  H   UNL     1       8.224   6.430  17.976  0.00  0.00    +0.000 HD
ENDBRANCH  12  18
ENDBRANCH   1  12
TORSDOF 3
ENDMDL
