MODEL 1
REMARK VINA RESULT:      -7.7      0.000      0.000
REMARK  Name = 
REMARK  12 active torsions:
REMARK  status: ('A' for Active; 'I' for Inactive)
REMARK    1  A    between atoms: C_1  and  N_2
REMARK    2  A    between atoms: N_2  and  C_3
REMARK    3  A    between atoms: N_2  and  C_4
REMARK    4  A    between atoms: C_7  and  C_8
REMARK    5  A    between atoms: C_8  and  C_23
REMARK    6  A    between atoms: N_9  and  N_10
REMARK    7  A    between atoms: N_10  and  C_11
REMARK    8  A    between atoms: C_14  and  N_15
REMARK    9  A    between atoms: C_19  and  N_20
REMARK   10  A    between atoms: C_26  and  N_27
REMARK   11  A    between atoms: N_27  and  C_28
REMARK   12  A    between atoms: N_27  and  C_29
REMARK                            x       y       z     vdW  Elec       q    Type
REMARK                         _______ _______ _______ _____ _____    ______ ____
ROOT
ATOM      1  C   UNL     1       0.599  10.595  18.739  0.00  0.00    +0.000 C 
ATOM      2  N   UNL     1      -0.615  10.494  18.261  0.00  0.00    +0.000 NA
ENDROOT
BRANCH   1   6
ATOM      3  C   UNL     1       2.679  14.361  19.589  0.00  0.00    +0.000 A 
ATOM      4  C   UNL     1       1.777  13.782  20.497  0.00  0.00    +0.000 A 
ATOM      5  C   UNL     1       1.143  12.555  20.248  0.00  0.00    +0.000 A 
ATOM      6  C   UNL     1       1.327  11.882  19.039  0.00  0.00    +0.000 A 
ATOM      7  C   UNL     1       2.218  12.441  18.119  0.00  0.00    +0.000 A 
ATOM      8  C   UNL     1       2.898  13.637  18.407  0.00  0.00    +0.000 A 
BRANCH   3  10
ATOM      9  C   UNL     1       3.410  16.589  18.786  0.00  0.00    +0.000 C 
ATOM     10  N   UNL     1       3.295  15.583  19.836  0.00  0.00    +0.000 N 
ATOM     11  C   UNL     1       3.643  15.988  21.193  0.00  0.00    +0.000 C 
ENDBRANCH   3  10
ENDBRANCH   1   6
BRANCH   1  12
ATOM     12  C   UNL     1       1.299   9.281  18.999  0.00  0.00    +0.000 A 
ATOM     13  C   UNL     1       2.025   8.617  18.015  0.00  0.00    +0.000 A 
ATOM     14  C   UNL     1       2.597   7.361  18.285  0.00  0.00    +0.000 A 
ATOM     15  C   UNL     1       2.514   6.740  19.544  0.00  0.00    +0.000 A 
ATOM     16  C   UNL     1       1.817   7.457  20.529  0.00  0.00    +0.000 A 
ATOM     17  C   UNL     1       1.216   8.703  20.268  0.00  0.00    +0.000 A 
BRANCH  15  18
ATOM     18  N   UNL     1       3.047   5.478  19.764  0.00  0.00    +0.000 N 
ATOM     19  C   UNL     1       4.415   5.154  19.354  0.00  0.00    +0.000 C 
ATOM     20  C   UNL     1       2.466   4.534  20.715  0.00  0.00    +0.000 C 
ENDBRANCH  15  18
ENDBRANCH   1  12
BRANCH   2  21
ATOM     21  N   UNL     1      -1.288  11.610  17.880  0.00  0.00    +0.000 N 
ATOM     22  H   UNL     1      -1.000  12.016  16.979  0.00  0.00    +0.000 HD
BRANCH  21  23
ATOM     23  C   UNL     1      -2.698  11.591  18.067  0.00  0.00    +0.000 A 
ATOM     24  C   UNL     1      -3.227  12.170  19.240  0.00  0.00    +0.000 A 
ATOM     25  C   UNL     1      -4.602  12.292  19.456  0.00  0.00    +0.000 A 
ATOM     26  C   UNL     1      -5.492  11.843  18.481  0.00  0.00    +0.000 A 
ATOM     27  C   UNL     1      -5.013  11.274  17.295  0.00  0.00    +0.000 A 
ATOM     28  C   UNL     1      -3.619  11.157  17.089  0.00  0.00    +0.000 A 
BRANCH  26  29
ATOM     29  N   UNL     1      -6.938  11.981  18.695  0.00  0.00    +0.000 N 
ATOM     30  O   UNL     1      -7.454  11.300  19.592  0.00  0.00    +0.000 OA
ATOM     31  O   UNL     1      -7.553  12.772  17.970  0.00  0.00    +0.000 OA
ENDBRANCH  26  29
BRANCH  28  32
ATOM     32  N   UNL     1      -3.172  10.553  15.825  0.00  0.00    +0.000 N 
ATOM     33  O   UNL     1      -3.383  11.174  14.772  0.00  0.00    +0.000 OA
ATOM     34  O   UNL     1      -2.598   9.458  15.879  0.00  0.00    +0.000 OA
ENDBRANCH  28  32
ENDBRANCH  21  23
ENDBRANCH   2  21
TORSDOF 8
ENDMDL
MODEL 2
REMARK VINA RESULT:      -7.6      0.367      1.236
REMARK  Name = 
REMARK  12 active torsions:
REMARK  status: ('A' for Active; 'I' for Inactive)
REMARK    1  A    between atoms: C_1  and  N_2
REMARK    2  A    between atoms: N_2  and  C_3
REMARK    3  A    between atoms: N_2  and  C_4
REMARK    4  A    between atoms: C_7  and  C_8
REMARK    5  A    between atoms: C_8  and  C_23
REMARK    6  A    between atoms: N_9  and  N_10
REMARK    7  A    between atoms: N_10  and  C_11
REMARK    8  A    between atoms: C_14  and  N_15
REMARK    9  A    between atoms: C_19  and  N_20
REMARK   10  A    between atoms: C_26  and  N_27
REMARK   11  A    between atoms: N_27  and  C_28
REMARK   12  A    between atoms: N_27  and  C_29
REMARK                            x       y       z     vdW  Elec       q    Type
REMARK                         _______ _______ _______ _____ _____    ______ ____
ROOT
ATOM      1  C   UNL     1       0.707  10.461  18.677  0.00  0.00    +0.000 C 
ATOM      2  N   UNL     1      -0.493  10.382  18.162  0.00  0.00    +0.000 NA
ENDROOT
BRANCH   1   6
ATOM      3  C   UNL     1       2.800  14.189  19.654  0.00  0.00    +0.000 A 
ATOM      4  C   UNL     1       1.944  13.550  20.566  0.00  0.00    +0.000 A 
ATOM      5  C   UNL     1       1.307  12.334  20.273  0.00  0.00    +0.000 A 
ATOM      6  C   UNL     1       1.440  11.735  19.020  0.00  0.00    +0.000 A 
ATOM      7  C   UNL     1       2.284  12.355  18.095  0.00  0.00    +0.000 A 
ATOM      8  C   UNL     1       2.969  13.538  18.423  0.00  0.00    +0.000 A 
BRANCH   3  10
ATOM      9  C   UNL     1       3.491  15.894  21.315  0.00  0.00    +0.000 C 
ATOM     10  N   UNL     1       3.419  15.400  19.945  0.00  0.00    +0.000 N 
ATOM     11  C   UNL     1       4.206  16.102  18.938  0.00  0.00    +0.000 C 
ENDBRANCH   3  10
ENDBRANCH   1   6
BRANCH   1  12
ATOM     12  C   UNL     1       1.384   9.136  18.937  0.00  0.00    +0.000 A 
ATOM     13  C   UNL     1       1.302   8.486  20.164  0.00  0.00    +0.000 A 
ATOM     14  C   UNL     1       2.011   7.291  20.380  0.00  0.00    +0.000 A 
ATOM     15  C   UNL     1       2.784   6.672  19.382  0.00  0.00    +0.000 A 
ATOM     16  C   UNL     1       2.808   7.326  18.140  0.00  0.00    +0.000 A 
ATOM     17  C   UNL     1       2.126   8.536  17.916  0.00  0.00    +0.000 A 
BRANCH  15  18
ATOM     18  N   UNL     1       3.511   5.519  19.642  0.00  0.00    +0.000 N 
ATOM     19  C   UNL     1       2.859   4.318  20.170  0.00  0.00    +0.000 C 
ATOM     20  C   UNL     1       4.839   5.283  19.082  0.00  0.00    +0.000 C 
ENDBRANCH  15  18
ENDBRANCH   1  12
BRANCH   2  21
ATOM     21  N   UNL     1      -1.142  11.512  17.779  0.00  0.00    +0.000 N 
ATOM     22  H   UNL     1      -0.901  11.866  16.843  0.00  0.00    +0.000 HD
BRANCH  21  23
ATOM     23  C   UNL     1      -2.535  11.566  18.062  0.00  0.00    +0.000 A 
ATOM     24  C   UNL     1      -2.949  12.156  19.276  0.00  0.00    +0.000 A 
ATOM     25  C   UNL     1      -4.298  12.349  19.587  0.00  0.00    +0.000 A 
ATOM     26  C   UNL     1      -5.276  11.962  18.671  0.00  0.00    +0.000 A 
ATOM     27  C   UNL     1      -4.911  11.386  17.449  0.00  0.00    +0.000 A 
ATOM     28  C   UNL     1      -3.543  11.197  17.146  0.00  0.00    +0.000 A 
BRANCH  26  29
ATOM     29  N   UNL     1      -6.695  12.175  18.986  0.00  0.00    +0.000 N 
ATOM     30  O   UNL     1      -7.052  12.017  20.161  0.00  0.00    +0.000 OA
ATOM     31  O   UNL     1      -7.445  12.504  18.061  0.00  0.00    +0.000 OA
ENDBRANCH  26  29
BRANCH  28  32
ATOM     32  N   UNL     1      -3.218  10.588  15.848  0.00  0.00    +0.000 N 
ATOM     33  O   UNL     1      -3.449  11.242  14.819  0.00  0.00    +0.000 OA
ATOM     34  O   UNL     1      -2.718   9.456  15.849  0.00  0.00    +0.000 OA
ENDBRANCH  28  32
ENDBRANCH  21  23
ENDBRANCH   2  21
TORSDOF 8
ENDMDL
MODEL 3
REMARK VINA RESULT:      -7.6      0.422      1.143
REMARK  Name = 
REMARK  12 active torsions:
REMARK  status: ('A' for Active; 'I' for Inactive)
REMARK    1  A    between atoms: C_1  and  N_2
REMARK    2  A    between atoms: N_2  and  C_3
REMARK    3  A    between atoms: N_2  and  C_4
REMARK    4  A    between atoms: C_7  and  C_8
REMARK    5  A    between atoms: C_8  and  C_23
REMARK    6  A    between atoms: N_9  and  N_10
REMARK    7  A    between atoms: N_10  and  C_11
REMARK    8  A    between atoms: C_14  and  N_15
REMARK    9  A    between atoms: C_19  and  N_20
REMARK   10  A    between atoms: C_26  and  N_27
REMARK   11  A    between atoms: N_27  and  C_28
REMARK   12  A    between atoms: N_27  and  C_29
REMARK                            x       y       z     vdW  Elec       q    Type
REMARK                         _______ _______ _______ _____ _____    ______ ____
ROOT
ATOM      1  C   UNL     1       0.651  10.532  18.690  0.00  0.00    +0.000 C 
ATOM      2  N   UNL     1      -0.536  10.434  18.149  0.00  0.00    +0.000 NA
ENDROOT
BRANCH   1   6
ATOM      3  C   UNL     1       2.706  14.240  19.815  0.00  0.00    +0.000 A 
ATOM      4  C   UNL     1       2.927  13.606  18.582  0.00  0.00    +0.000 A 
ATOM      5  C   UNL     1       2.239  12.443  18.199  0.00  0.00    +0.000 A 
ATOM      6  C   UNL     1       1.346  11.817  19.070  0.00  0.00    +0.000 A 
ATOM      7  C   UNL     1       1.113  12.428  20.304  0.00  0.00    +0.000 A 
ATOM      8  C   UNL     1       1.758  13.629  20.649  0.00  0.00    +0.000 A 
BRANCH   3  10
ATOM      9  C   UNL     1       2.849  16.298  21.187  0.00  0.00    +0.000 C 
ATOM     10  N   UNL     1       3.400  15.385  20.193  0.00  0.00    +0.000 N 
ATOM     11  C   UNL     1       4.783  15.595  19.784  0.00  0.00    +0.000 C 
ENDBRANCH   3  10
ENDBRANCH   1   6
BRANCH   1  12
ATOM     12  C   UNL     1       1.355   9.219  18.941  0.00  0.00    +0.000 A 
ATOM     13  C   UNL     1       2.049   8.544  17.943  0.00  0.00    +0.000 A 
ATOM     14  C   UNL     1       2.625   7.288  18.206  0.00  0.00    +0.000 A 
ATOM     15  C   UNL     1       2.577   6.679  19.472  0.00  0.00    +0.000 A 
ATOM     16  C   UNL     1       1.911   7.406  20.471  0.00  0.00    +0.000 A 
ATOM     17  C   UNL     1       1.307   8.652  20.217  0.00  0.00    +0.000 A 
BRANCH  15  18
ATOM     18  N   UNL     1       3.112   5.417  19.687  0.00  0.00    +0.000 N 
ATOM     19  C   UNL     1       4.492   5.107  19.307  0.00  0.00    +0.000 C 
ATOM     20  C   UNL     1       2.514   4.455  20.609  0.00  0.00    +0.000 C 
ENDBRANCH  15  18
ENDBRANCH   1  12
BRANCH   2  21
ATOM     21  N   UNL     1      -1.204  11.555  17.773  0.00  0.00    +0.000 N 
ATOM     22  H   UNL     1      -0.958  11.927  16.845  0.00  0.00    +0.000 HD
BRANCH  21  23
ATOM     23  C   UNL     1      -2.601  11.576  18.038  0.00  0.00    +0.000 A 
ATOM     24  C   UNL     1      -3.047  12.159  19.243  0.00  0.00    +0.000 A 
ATOM     25  C   UNL     1      -4.404  12.320  19.536  0.00  0.00    +0.000 A 
ATOM     26  C   UNL     1      -5.359  11.905  18.609  0.00  0.00    +0.000 A 
ATOM     27  C   UNL     1      -4.965  11.334  17.394  0.00  0.00    +0.000 A 
ATOM     28  C   UNL     1      -3.588  11.178  17.110  0.00  0.00    +0.000 A 
BRANCH  26  29
ATOM     29  N   UNL     1      -6.787  12.084  18.904  0.00  0.00    +0.000 N 
ATOM     30  O   UNL     1      -7.364  11.178  19.522  0.00  0.00    +0.000 OA
ATOM     31  O   UNL     1      -7.326  13.129  18.523  0.00  0.00    +0.000 OA
ENDBRANCH  26  29
BRANCH  28  32
ATOM     32  N   UNL     1      -3.230  10.572  15.819  0.00  0.00    +0.000 N 
ATOM     33  O   UNL     1      -2.715   9.443  15.824  0.00  0.00    +0.000 OA
ATOM     34  O   UNL     1      -3.473  11.216  14.790  0.00  0.00    +0.000 OA
ENDBRANCH  28  32
ENDBRANCH  21  23
ENDBRANCH   2  21
TORSDOF 8
ENDMDL
MODEL 4
REMARK VINA RESULT:      -7.6      0.333      1.332
REMARK  Name = 
REMARK  12 active torsions:
REMARK  status: ('A' for Active; 'I' for Inactive)
REMARK    1  A    between atoms: C_1  and  N_2
REMARK    2  A    between atoms: N_2  and  C_3
REMARK    3  A    between atoms: N_2  and  C_4
REMARK    4  A    between atoms: C_7  and  C_8
REMARK    5  A    between atoms: C_8  and  C_23
REMARK    6  A    between atoms: N_9  and  N_10
REMARK    7  A    between atoms: N_10  and  C_11
REMARK    8  A    between atoms: C_14  and  N_15
REMARK    9  A    between atoms: C_19  and  N_20
REMARK   10  A    between atoms: C_26  and  N_27
REMARK   11  A    between atoms: N_27  and  C_28
REMARK   12  A    between atoms: N_27  and  C_29
REMARK                            x       y       z     vdW  Elec       q    Type
REMARK                         _______ _______ _______ _____ _____    ______ ____
ROOT
ATOM      1  C   UNL     1       0.629  10.483  18.706  0.00  0.00    +0.000 C 
ATOM      2  N   UNL     1      -0.579  10.418  18.207  0.00  0.00    +0.000 NA
ENDROOT
BRANCH   1   6
ATOM      3  C   UNL     1       2.812  14.129  19.789  0.00  0.00    +0.000 A 
ATOM      4  C   UNL     1       2.959  13.513  18.536  0.00  0.00    +0.000 A 
ATOM      5  C   UNL     1       2.229  12.371  18.169  0.00  0.00    +0.000 A 
ATOM      6  C   UNL     1       1.368  11.747  19.072  0.00  0.00    +0.000 A 
ATOM      7  C   UNL     1       1.208  12.340  20.327  0.00  0.00    +0.000 A 
ATOM      8  C   UNL     1       1.894  13.521  20.659  0.00  0.00    +0.000 A 
BRANCH   3  10
ATOM      9  C   UNL     1       4.321  15.992  19.162  0.00  0.00    +0.000 C 
ATOM     10  N   UNL     1       3.546  15.253  20.152  0.00  0.00    +0.000 N 
ATOM     11  C   UNL     1       3.392  15.858  21.469  0.00  0.00    +0.000 C 
ENDBRANCH   3  10
ENDBRANCH   1   6
BRANCH   1  12
ATOM     12  C   UNL     1       1.309   9.150  18.918  0.00  0.00    +0.000 A 
ATOM     13  C   UNL     1       1.324   8.512  20.154  0.00  0.00    +0.000 A 
ATOM     14  C   UNL     1       2.033   7.309  20.320  0.00  0.00    +0.000 A 
ATOM     15  C   UNL     1       2.710   6.671  19.264  0.00  0.00    +0.000 A 
ATOM     16  C   UNL     1       2.636   7.316  18.019  0.00  0.00    +0.000 A 
ATOM     17  C   UNL     1       1.952   8.533  17.843  0.00  0.00    +0.000 A 
BRANCH  15  18
ATOM     18  N   UNL     1       3.442   5.511  19.471  0.00  0.00    +0.000 N 
ATOM     19  C   UNL     1       4.891   5.484  19.264  0.00  0.00    +0.000 C 
ATOM     20  C   UNL     1       2.925   4.383  20.243  0.00  0.00    +0.000 C 
ENDBRANCH  15  18
ENDBRANCH   1  12
BRANCH   2  21
ATOM     21  N   UNL     1      -1.233  11.559  17.866  0.00  0.00    +0.000 N 
ATOM     22  H   UNL     1      -0.941  11.988  16.976  0.00  0.00    +0.000 HD
BRANCH  21  23
ATOM     23  C   UNL     1      -2.642  11.560  18.058  0.00  0.00    +0.000 A 
ATOM     24  C   UNL     1      -3.156  12.136  19.240  0.00  0.00    +0.000 A 
ATOM     25  C   UNL     1      -4.529  12.278  19.463  0.00  0.00    +0.000 A 
ATOM     26  C   UNL     1      -5.430  11.851  18.488  0.00  0.00    +0.000 A 
ATOM     27  C   UNL     1      -4.966  11.287  17.295  0.00  0.00    +0.000 A 
ATOM     28  C   UNL     1      -3.574  11.150  17.081  0.00  0.00    +0.000 A 
BRANCH  26  29
ATOM     29  N   UNL     1      -6.873  12.010  18.710  0.00  0.00    +0.000 N 
ATOM     30  O   UNL     1      -7.495  12.749  17.935  0.00  0.00    +0.000 OA
ATOM     31  O   UNL     1      -7.381  11.393  19.653  0.00  0.00    +0.000 OA
ENDBRANCH  26  29
BRANCH  28  32
ATOM     32  N   UNL     1      -3.143  10.550  15.810  0.00  0.00    +0.000 N 
ATOM     33  O   UNL     1      -3.335  11.190  14.765  0.00  0.00    +0.000 OA
ATOM     34  O   UNL     1      -2.598   9.439  15.849  0.00  0.00    +0.000 OA
ENDBRANCH  28  32
ENDBRANCH  21  23
ENDBRANCH   2  21
TORSDOF 8
ENDMDL
MODEL 5
REMARK VINA RESULT:      -7.5      0.591      1.650
REMARK  Name = 
REMARK  12 active torsions:
REMARK  status: ('A' for Active; 'I' for Inactive)
REMARK    1  A    between atoms: C_1  and  N_2
REMARK    2  A    between atoms: N_2  and  C_3
REMARK    3  A    between atoms: N_2  and  C_4
REMARK    4  A    between atoms: C_7  and  C_8
REMARK    5  A    between atoms: C_8  and  C_23
REMARK    6  A    between atoms: N_9  and  N_10
REMARK    7  A    between atoms: N_10  and  C_11
REMARK    8  A    between atoms: C_14  and  N_15
REMARK    9  A    between atoms: C_19  and  N_20
REMARK   10  A    between atoms: C_26  and  N_27
REMARK   11  A    between atoms: N_27  and  C_28
REMARK   12  A    between atoms: N_27  and  C_29
REMARK                            x       y       z     vdW  Elec       q    Type
REMARK                         _______ _______ _______ _____ _____    ______ ____
ROOT
ATOM      1  C   UNL     1       0.762  10.412  18.654  0.00  0.00    +0.000 C 
ATOM      2  N   UNL     1      -0.412  10.332  18.081  0.00  0.00    +0.000 NA
ENDROOT
BRANCH   1   6
ATOM      3  C   UNL     1       2.837  14.086  19.849  0.00  0.00    +0.000 A 
ATOM      4  C   UNL     1       3.005  13.510  18.579  0.00  0.00    +0.000 A 
ATOM      5  C   UNL     1       2.309  12.359  18.177  0.00  0.00    +0.000 A 
ATOM      6  C   UNL     1       1.463  11.685  19.058  0.00  0.00    +0.000 A 
ATOM      7  C   UNL     1       1.283  12.238  20.329  0.00  0.00    +0.000 A 
ATOM      8  C   UNL     1       1.933  13.428  20.697  0.00  0.00    +0.000 A 
BRANCH   3  10
ATOM      9  C   UNL     1       3.685  15.551  21.658  0.00  0.00    +0.000 C 
ATOM     10  N   UNL     1       3.537  15.220  20.246  0.00  0.00    +0.000 N 
ATOM     11  C   UNL     1       4.330  15.985  19.291  0.00  0.00    +0.000 C 
ENDBRANCH   3  10
ENDBRANCH   1   6
BRANCH   1  12
ATOM     12  C   UNL     1       1.442   9.087  18.915  0.00  0.00    +0.000 A 
ATOM     13  C   UNL     1       1.345   8.430  20.137  0.00  0.00    +0.000 A 
ATOM     14  C   UNL     1       2.056   7.237  20.357  0.00  0.00    +0.000 A 
ATOM     15  C   UNL     1       2.846   6.627  19.365  0.00  0.00    +0.000 A 
ATOM     16  C   UNL     1       2.884   7.289  18.128  0.00  0.00    +0.000 A 
ATOM     17  C   UNL     1       2.200   8.497  17.901  0.00  0.00    +0.000 A 
BRANCH  15  18
ATOM     18  N   UNL     1       3.574   5.476  19.629  0.00  0.00    +0.000 N 
ATOM     19  C   UNL     1       2.924   4.276  20.158  0.00  0.00    +0.000 C 
ATOM     20  C   UNL     1       4.904   5.242  19.071  0.00  0.00    +0.000 C 
ENDBRANCH  15  18
ENDBRANCH   1  12
BRANCH   2  21
ATOM     21  N   UNL     1      -1.056  11.464  17.694  0.00  0.00    +0.000 N 
ATOM     22  H   UNL     1      -0.867  11.773  16.730  0.00  0.00    +0.000 HD
BRANCH  21  23
ATOM     23  C   UNL     1      -2.425  11.568  18.064  0.00  0.00    +0.000 A 
ATOM     24  C   UNL     1      -2.741  12.166  19.302  0.00  0.00    +0.000 A 
ATOM     25  C   UNL     1      -4.059  12.408  19.698  0.00  0.00    +0.000 A 
ATOM     26  C   UNL     1      -5.106  12.063  18.843  0.00  0.00    +0.000 A 
ATOM     27  C   UNL     1      -4.840  11.481  17.599  0.00  0.00    +0.000 A 
ATOM     28  C   UNL     1      -3.501  11.242  17.211  0.00  0.00    +0.000 A 
BRANCH  26  29
ATOM     29  N   UNL     1      -6.493  12.328  19.247  0.00  0.00    +0.000 N 
ATOM     30  O   UNL     1      -7.326  11.430  19.061  0.00  0.00    +0.000 OA
ATOM     31  O   UNL     1      -6.746  13.428  19.751  0.00  0.00    +0.000 OA
ENDBRANCH  26  29
BRANCH  28  32
ATOM     32  N   UNL     1      -3.281  10.627  15.893  0.00  0.00    +0.000 N 
ATOM     33  O   UNL     1      -2.829   9.472  15.854  0.00  0.00    +0.000 OA
ATOM     34  O   UNL     1      -3.568  11.292  14.890  0.00  0.00    +0.000 OA
ENDBRANCH  28  32
ENDBRANCH  21  23
ENDBRANCH   2  21
TORSDOF 8
ENDMDL
MODEL 6
REMARK VINA RESULT:      -7.5      1.560      2.110
REMARK  Name = 
REMARK  12 active torsions:
REMARK  status: ('A' for Active; 'I' for Inactive)
REMARK    1  A    between atoms: C_1  and  N_2
REMARK    2  A    between atoms: N_2  and  C_3
REMARK    3  A    between atoms: N_2  and  C_4
REMARK    4  A    between atoms: C_7  and  C_8
REMARK    5  A    between atoms: C_8  and  C_23
REMARK    6  A    between atoms: N_9  and  N_10
REMARK    7  A    between atoms: N_10  and  C_11
REMARK    8  A    between atoms: C_14  and  N_15
REMARK    9  A    between atoms: C_19  and  N_20
REMARK   10  A    between atoms: C_26  and  N_27
REMARK   11  A    between atoms: N_27  and  C_28
REMARK   12  A    between atoms: N_27  and  C_29
REMARK                            x       y       z     vdW  Elec       q    Type
REMARK                         _______ _______ _______ _____ _____    ______ ____
ROOT
ATOM      1  C   UNL     1       0.827  10.603  18.687  0.00  0.00    +0.000 C 
ATOM      2  N   UNL     1      -0.382  10.559  18.187  0.00  0.00    +0.000 NA
ENDROOT
BRANCH   1   6
ATOM      3  C   UNL     1       3.057  14.270  19.593  0.00  0.00    +0.000 A 
ATOM      4  C   UNL     1       2.198  13.666  20.525  0.00  0.00    +0.000 A 
ATOM      5  C   UNL     1       1.516  12.469  20.255  0.00  0.00    +0.000 A 
ATOM      6  C   UNL     1       1.607  11.856  19.005  0.00  0.00    +0.000 A 
ATOM      7  C   UNL     1       2.454  12.440  18.060  0.00  0.00    +0.000 A 
ATOM      8  C   UNL     1       3.183  13.602  18.365  0.00  0.00    +0.000 A 
BRANCH   3  10
ATOM      9  C   UNL     1       4.909  15.482  20.706  0.00  0.00    +0.000 C 
ATOM     10  N   UNL     1       3.721  15.462  19.862  0.00  0.00    +0.000 N 
ATOM     11  C   UNL     1       3.392  16.684  19.137  0.00  0.00    +0.000 C 
ENDBRANCH   3  10
ENDBRANCH   1   6
BRANCH   1  12
ATOM     12  C   UNL     1       1.462   9.259  18.954  0.00  0.00    +0.000 A 
ATOM     13  C   UNL     1       2.203   8.582  17.991  0.00  0.00    +0.000 A 
ATOM     14  C   UNL     1       2.713   7.299  18.263  0.00  0.00    +0.000 A 
ATOM     15  C   UNL     1       2.550   6.663  19.506  0.00  0.00    +0.000 A 
ATOM     16  C   UNL     1       1.839   7.392  20.473  0.00  0.00    +0.000 A 
ATOM     17  C   UNL     1       1.301   8.664  20.208  0.00  0.00    +0.000 A 
BRANCH  15  18
ATOM     18  N   UNL     1       3.023   5.377  19.726  0.00  0.00    +0.000 N 
ATOM     19  C   UNL     1       4.380   4.994  19.334  0.00  0.00    +0.000 C 
ATOM     20  C   UNL     1       2.386   4.455  20.664  0.00  0.00    +0.000 C 
ENDBRANCH  15  18
ENDBRANCH   1  12
BRANCH   2  21
ATOM     21  N   UNL     1      -0.997  11.706  17.800  0.00  0.00    +0.000 N 
ATOM     22  H   UNL     1      -0.649  12.122  16.924  0.00  0.00    +0.000 HD
BRANCH  21  23
ATOM     23  C   UNL     1      -2.415  11.731  17.912  0.00  0.00    +0.000 A 
ATOM     24  C   UNL     1      -3.180  11.216  16.844  0.00  0.00    +0.000 A 
ATOM     25  C   UNL     1      -4.571  11.100  16.912  0.00  0.00    +0.000 A 
ATOM     26  C   UNL     1      -5.236  11.492  18.074  0.00  0.00    +0.000 A 
ATOM     27  C   UNL     1      -4.517  11.996  19.164  0.00  0.00    +0.000 A 
ATOM     28  C   UNL     1      -3.109  12.107  19.081  0.00  0.00    +0.000 A 
BRANCH  26  29
ATOM     29  N   UNL     1      -6.696  11.360  18.158  0.00  0.00    +0.000 N 
ATOM     30  O   UNL     1      -7.383  12.309  17.754  0.00  0.00    +0.000 OA
ATOM     31  O   UNL     1      -7.153  10.309  18.622  0.00  0.00    +0.000 OA
ENDBRANCH  26  29
BRANCH  28  32
ATOM     32  N   UNL     1      -2.405  12.642  20.256  0.00  0.00    +0.000 N 
ATOM     33  O   UNL     1      -2.474  13.862  20.475  0.00  0.00    +0.000 OA
ATOM     34  O   UNL     1      -1.789  11.845  20.975  0.00  0.00    +0.000 OA
ENDBRANCH  28  32
ENDBRANCH  21  23
ENDBRANCH   2  21
TORSDOF 8
ENDMDL
MODEL 7
REMARK VINA RESULT:      -7.5      1.534      2.084
REMARK  Name = 
REMARK  12 active torsions:
REMARK  status: ('A' for Active; 'I' for Inactive)
REMARK    1  A    between atoms: C_1  and  N_2
REMARK    2  A    between atoms: N_2  and  C_3
REMARK    3  A    between atoms: N_2  and  C_4
REMARK    4  A    between atoms: C_7  and  C_8
REMARK    5  A    between atoms: C_8  and  C_23
REMARK    6  A    between atoms: N_9  and  N_10
REMARK    7  A    between atoms: N_10  and  C_11
REMARK    8  A    between atoms: C_14  and  N_15
REMARK    9  A    between atoms: C_19  and  N_20
REMARK   10  A    between atoms: C_26  and  N_27
REMARK   11  A    between atoms: N_27  and  C_28
REMARK   12  A    between atoms: N_27  and  C_29
REMARK                            x       y       z     vdW  Elec       q    Type
REMARK                         _______ _______ _______ _____ _____    ______ ____
ROOT
ATOM      1  C   UNL     1       0.797  10.532  18.690  0.00  0.00    +0.000 C 
ATOM      2  N   UNL     1      -0.377  10.467  18.116  0.00  0.00    +0.000 NA
ENDROOT
BRANCH   1   6
ATOM      3  C   UNL     1       2.935  14.233  19.671  0.00  0.00    +0.000 A 
ATOM      4  C   UNL     1       2.097  13.586  20.592  0.00  0.00    +0.000 A 
ATOM      5  C   UNL     1       1.445  12.378  20.298  0.00  0.00    +0.000 A 
ATOM      6  C   UNL     1       1.546  11.796  19.034  0.00  0.00    +0.000 A 
ATOM      7  C   UNL     1       2.373  12.424  18.099  0.00  0.00    +0.000 A 
ATOM      8  C   UNL     1       3.073  13.598  18.427  0.00  0.00    +0.000 A 
BRANCH   3  10
ATOM      9  C   UNL     1       3.680  16.487  18.960  0.00  0.00    +0.000 C 
ATOM     10  N   UNL     1       3.569  15.436  19.964  0.00  0.00    +0.000 N 
ATOM     11  C   UNL     1       3.942  15.774  21.333  0.00  0.00    +0.000 C 
ENDBRANCH   3  10
ENDBRANCH   1   6
BRANCH   1  12
ATOM     12  C   UNL     1       1.425   9.197  19.021  0.00  0.00    +0.000 A 
ATOM     13  C   UNL     1       2.151   8.465  18.089  0.00  0.00    +0.000 A 
ATOM     14  C   UNL     1       2.653   7.194  18.423  0.00  0.00    +0.000 A 
ATOM     15  C   UNL     1       2.497   6.625  19.700  0.00  0.00    +0.000 A 
ATOM     16  C   UNL     1       1.802   7.410  20.633  0.00  0.00    +0.000 A 
ATOM     17  C   UNL     1       1.271   8.671  20.306  0.00  0.00    +0.000 A 
BRANCH  15  18
ATOM     18  N   UNL     1       2.962   5.349  19.983  0.00  0.00    +0.000 N 
ATOM     19  C   UNL     1       2.142   4.395  20.733  0.00  0.00    +0.000 C 
ATOM     20  C   UNL     1       4.083   4.743  19.267  0.00  0.00    +0.000 C 
ENDBRANCH  15  18
ENDBRANCH   1  12
BRANCH   2  21
ATOM     21  N   UNL     1      -0.975  11.602  17.669  0.00  0.00    +0.000 N 
ATOM     22  H   UNL     1      -0.635  11.955  16.763  0.00  0.00    +0.000 HD
BRANCH  21  23
ATOM     23  C   UNL     1      -2.389  11.665  17.805  0.00  0.00    +0.000 A 
ATOM     24  C   UNL     1      -3.186  11.128  16.771  0.00  0.00    +0.000 A 
ATOM     25  C   UNL     1      -4.578  11.050  16.869  0.00  0.00    +0.000 A 
ATOM     26  C   UNL     1      -5.212  11.502  18.026  0.00  0.00    +0.000 A 
ATOM     27  C   UNL     1      -4.461  12.029  19.083  0.00  0.00    +0.000 A 
ATOM     28  C   UNL     1      -3.053  12.103  18.971  0.00  0.00    +0.000 A 
BRANCH  26  29
ATOM     29  N   UNL     1      -6.673  11.409  18.141  0.00  0.00    +0.000 N 
ATOM     30  O   UNL     1      -7.146  10.378  18.639  0.00  0.00    +0.000 OA
ATOM     31  O   UNL     1      -7.343  12.366  17.738  0.00  0.00    +0.000 OA
ENDBRANCH  26  29
BRANCH  28  32
ATOM     32  N   UNL     1      -2.315  12.666  20.112  0.00  0.00    +0.000 N 
ATOM     33  O   UNL     1      -2.368  12.067  21.197  0.00  0.00    +0.000 OA
ATOM     34  O   UNL     1      -1.668  13.704  19.926  0.00  0.00    +0.000 OA
ENDBRANCH  28  32
ENDBRANCH  21  23
ENDBRANCH   2  21
TORSDOF 8
ENDMDL
MODEL 8
REMARK VINA RESULT:      -7.5      1.171      1.691
REMARK  Name = 
REMARK  12 active torsions:
REMARK  status: ('A' for Active; 'I' for Inactive)
REMARK    1  A    between atoms: C_1  and  N_2
REMARK    2  A    between atoms: N_2  and  C_3
REMARK    3  A    between atoms: N_2  and  C_4
REMARK    4  A    between atoms: C_7  and  C_8
REMARK    5  A    between atoms: C_8  and  C_23
REMARK    6  A    between atoms: N_9  and  N_10
REMARK    7  A    between atoms: N_10  and  C_11
REMARK    8  A    between atoms: C_14  and  N_15
REMARK    9  A    between atoms: C_19  and  N_20
REMARK   10  A    between atoms: C_26  and  N_27
REMARK   11  A    between atoms: N_27  and  C_28
REMARK   12  A    between atoms: N_27  and  C_29
REMARK                            x       y       z     vdW  Elec       q    Type
REMARK                         _______ _______ _______ _____ _____    ______ ____
ROOT
ATOM      1  C   UNL     1       0.790  10.444  18.713  0.00  0.00    +0.000 C 
ATOM      2  N   UNL     1      -0.437  10.389  18.262  0.00  0.00    +0.000 NA
ENDROOT
BRANCH   1   6
ATOM      3  C   UNL     1       2.946  14.121  19.744  0.00  0.00    +0.000 A 
ATOM      4  C   UNL     1       2.130  13.448  20.667  0.00  0.00    +0.000 A 
ATOM      5  C   UNL     1       1.473  12.247  20.355  0.00  0.00    +0.000 A 
ATOM      6  C   UNL     1       1.544  11.700  19.073  0.00  0.00    +0.000 A 
ATOM      7  C   UNL     1       2.349  12.354  18.137  0.00  0.00    +0.000 A 
ATOM      8  C   UNL     1       3.055  13.520  18.481  0.00  0.00    +0.000 A 
BRANCH   3  10
ATOM      9  C   UNL     1       4.817  15.325  20.835  0.00  0.00    +0.000 C 
ATOM     10  N   UNL     1       3.585  15.316  20.055  0.00  0.00    +0.000 N 
ATOM     11  C   UNL     1       3.177  16.570  19.432  0.00  0.00    +0.000 C 
ENDBRANCH   3  10
ENDBRANCH   1   6
BRANCH   1  12
ATOM     12  C   UNL     1       1.476   9.107  18.872  0.00  0.00    +0.000 A 
ATOM     13  C   UNL     1       1.411   8.374  20.052  0.00  0.00    +0.000 A 
ATOM     14  C   UNL     1       2.128   7.170  20.177  0.00  0.00    +0.000 A 
ATOM     15  C   UNL     1       2.892   6.626  19.129  0.00  0.00    +0.000 A 
ATOM     16  C   UNL     1       2.898   7.365  17.935  0.00  0.00    +0.000 A 
ATOM     17  C   UNL     1       2.208   8.584  17.803  0.00  0.00    +0.000 A 
BRANCH  15  18
ATOM     18  N   UNL     1       3.627   5.461  19.301  0.00  0.00    +0.000 N 
ATOM     19  C   UNL     1       5.088   5.469  19.201  0.00  0.00    +0.000 C 
ATOM     20  C   UNL     1       3.075   4.271  19.942  0.00  0.00    +0.000 C 
ENDBRANCH  15  18
ENDBRANCH   1  12
BRANCH   2  21
ATOM     21  N   UNL     1      -1.103  11.537  17.969  0.00  0.00    +0.000 N 
ATOM     22  H   UNL     1      -1.195  11.753  16.966  0.00  0.00    +0.000 HD
BRANCH  21  23
ATOM     23  C   UNL     1      -2.292  11.783  18.711  0.00  0.00    +0.000 A 
ATOM     24  C   UNL     1      -2.185  12.479  19.934  0.00  0.00    +0.000 A 
ATOM     25  C   UNL     1      -3.308  12.859  20.675  0.00  0.00    +0.000 A 
ATOM     26  C   UNL     1      -4.581  12.558  20.193  0.00  0.00    +0.000 A 
ATOM     27  C   UNL     1      -4.736  11.882  18.978  0.00  0.00    +0.000 A 
ATOM     28  C   UNL     1      -3.591  11.503  18.238  0.00  0.00    +0.000 A 
BRANCH  26  29
ATOM     29  N   UNL     1      -5.766  12.967  20.959  0.00  0.00    +0.000 N 
ATOM     30  O   UNL     1      -6.470  13.871  20.489  0.00  0.00    +0.000 OA
ATOM     31  O   UNL     1      -5.992  12.381  22.024  0.00  0.00    +0.000 OA
ENDBRANCH  26  29
BRANCH  28  32
ATOM     32  N   UNL     1      -3.813  10.795  16.968  0.00  0.00    +0.000 N 
ATOM     33  O   UNL     1      -4.472  11.367  16.086  0.00  0.00    +0.000 OA
ATOM     34  O   UNL     1      -3.319   9.668  16.841  0.00  0.00    +0.000 OA
ENDBRANCH  28  32
ENDBRANCH  21  23
ENDBRANCH   2  21
TORSDOF 8
ENDMDL
MODEL 9
REMARK VINA RESULT:      -7.4      0.911      1.693
REMARK  Name = 
REMARK  12 active torsions:
REMARK  status: ('A' for Active; 'I' for Inactive)
REMARK    1  A    between atoms: C_1  and  N_2
REMARK    2  A    between atoms: N_2  and  C_3
REMARK    3  A    between atoms: N_2  and  C_4
REMARK    4  A    between atoms: C_7  and  C_8
REMARK    5  A    between atoms: C_8  and  C_23
REMARK    6  A    between atoms: N_9  and  N_10
REMARK    7  A    between atoms: N_10  and  C_11
REMARK    8  A    between atoms: C_14  and  N_15
REMARK    9  A    between atoms: C_19  and  N_20
REMARK   10  A    between atoms: C_26  and  N_27
REMARK   11  A    between atoms: N_27  and  C_28
REMARK   12  A    between atoms: N_27  and  C_29
REMARK                            x       y       z     vdW  Elec       q    Type
REMARK                         _______ _______ _______ _____ _____    ______ ____
ROOT
ATOM      1  C   UNL     1       0.353  10.599  18.940  0.00  0.00    +0.000 C 
ATOM      2  N   UNL     1      -0.631  10.511  18.082  0.00  0.00    +0.000 NA
ENDROOT
BRANCH   1   6
ATOM      3  C   UNL     1       1.505  14.155  21.233  0.00  0.00    +0.000 A 
ATOM      4  C   UNL     1       2.234  13.716  20.116  0.00  0.00    +0.000 A 
ATOM      5  C   UNL     1       1.844  12.603  19.353  0.00  0.00    +0.000 A 
ATOM      6  C   UNL     1       0.740  11.832  19.718  0.00  0.00    +0.000 A 
ATOM      7  C   UNL     1       0.001  12.249  20.828  0.00  0.00    +0.000 A 
ATOM      8  C   UNL     1       0.363  13.403  21.545  0.00  0.00    +0.000 A 
BRANCH   3  10
ATOM      9  C   UNL     1       3.296  15.680  22.013  0.00  0.00    +0.000 C 
ATOM     10  N   UNL     1       1.903  15.251  21.992  0.00  0.00    +0.000 N 
ATOM     11  C   UNL     1       0.920  16.135  22.606  0.00  0.00    +0.000 C 
ENDBRANCH   3  10
ENDBRANCH   1   6
BRANCH   1  12
ATOM     12  C   UNL     1       1.147   9.329  19.139  0.00  0.00    +0.000 A 
ATOM     13  C   UNL     1       1.902   8.756  18.121  0.00  0.00    +0.000 A 
ATOM     14  C   UNL     1       2.565   7.534  18.334  0.00  0.00    +0.000 A 
ATOM     15  C   UNL     1       2.544   6.861  19.569  0.00  0.00    +0.000 A 
ATOM     16  C   UNL     1       1.813   7.488  20.590  0.00  0.00    +0.000 A 
ATOM     17  C   UNL     1       1.124   8.698  20.385  0.00  0.00    +0.000 A 
BRANCH  15  18
ATOM     18  N   UNL     1       3.168   5.632  19.731  0.00  0.00    +0.000 N 
ATOM     19  C   UNL     1       2.468   4.507  20.355  0.00  0.00    +0.000 C 
ATOM     20  C   UNL     1       4.368   5.255  18.990  0.00  0.00    +0.000 C 
ENDBRANCH  15  18
ENDBRANCH   1  12
BRANCH   2  21
ATOM     21  N   UNL     1      -1.333  11.623  17.740  0.00  0.00    +0.000 N 
ATOM     22  H   UNL     1      -1.083  12.043  16.834  0.00  0.00    +0.000 HD
BRANCH  21  23
ATOM     23  C   UNL     1      -2.735  11.583  17.977  0.00  0.00    +0.000 A 
ATOM     24  C   UNL     1      -3.229  12.149  19.172  0.00  0.00    +0.000 A 
ATOM     25  C   UNL     1      -4.597  12.250  19.438  0.00  0.00    +0.000 A 
ATOM     26  C   UNL     1      -5.515  11.792  18.494  0.00  0.00    +0.000 A 
ATOM     27  C   UNL     1      -5.072  11.236  17.288  0.00  0.00    +0.000 A 
ATOM     28  C   UNL     1      -3.684  11.140  17.032  0.00  0.00    +0.000 A 
BRANCH  26  29
ATOM     29  N   UNL     1      -6.955  11.908  18.761  0.00  0.00    +0.000 N 
ATOM     30  O   UNL     1      -7.597  12.734  18.098  0.00  0.00    +0.000 OA
ATOM     31  O   UNL     1      -7.440  11.172  19.627  0.00  0.00    +0.000 OA
ENDBRANCH  26  29
BRANCH  28  32
ATOM     32  N   UNL     1      -3.275  10.547  15.750  0.00  0.00    +0.000 N 
ATOM     33  O   UNL     1      -2.730   9.432  15.767  0.00  0.00    +0.000 OA
ATOM     34  O   UNL     1      -3.507  11.187  14.716  0.00  0.00    +0.000 OA
ENDBRANCH  28  32
ENDBRANCH  21  23
ENDBRANCH   2  21
TORSDOF 8
ENDMDL
