MODEL 1
REMARK VINA RESULT:      -6.3      0.000      0.000
REMARK  Name = 
REMARK  4 active torsions:
REMARK  status: ('A' for Active; 'I' for Inactive)
REMARK    1  A    between atoms: C_1  and  S_2
REMARK    2  A    between atoms: S_2  and  C_3
REMARK    3  A    between atoms: C_7  and  N_8
REMARK    4  A    between atoms: C_11  and  C_12
REMARK                            x       y       z     vdW  Elec       q    Type
REMARK                         _______ _______ _______ _____ _____    ______ ____
ROOT
ATOM      1  N   UNL     1       4.042   3.962  19.002  0.00  0.00    +0.000 N 
ATOM      2  C   UNL     1       3.175   4.902  19.459  0.00  0.00    +0.000 A 
ATOM      3  N   UNL     1       2.987   6.104  18.965  0.00  0.00    +0.000 NA
ATOM      4  C   UNL     1       2.103   6.832  19.731  0.00  0.00    +0.000 A 
ATOM      5  C   UNL     1       1.596   6.164  20.822  0.00  0.00    +0.000 A 
ATOM      6  S   UNL     1       2.217   4.563  20.859  0.00  0.00    +0.000 S 
ATOM      7  H   UNL     1       4.092   3.103  19.532  0.00  0.00    +0.000 HD
ENDROOT
BRANCH   1  12
ATOM      8  C   UNL     1       6.190   4.298  15.934  0.00  0.00    +0.000 A 
ATOM      9  C   UNL     1       7.360   4.788  16.513  0.00  0.00    +0.000 A 
ATOM     10  C   UNL     1       7.437   4.965  17.893  0.00  0.00    +0.000 A 
ATOM     11  C   UNL     1       6.340   4.660  18.705  0.00  0.00    +0.000 A 
ATOM     12  C   UNL     1       5.143   4.184  18.148  0.00  0.00    +0.000 A 
ATOM     13  C   UNL     1       5.100   3.992  16.759  0.00  0.00    +0.000 A 
BRANCH   8  15
ATOM     14  C   UNL     1       7.416   4.994  13.550  0.00  0.00    +0.000 C 
ATOM     15  S   UNL     1       6.070   3.960  14.185  0.00  0.00    +0.000 S 
ENDBRANCH   8  15
ENDBRANCH   1  12
BRANCH   4  16
ATOM     16  C   UNL     1       1.816   8.213  19.318  0.00  0.00    +0.000 A 
ATOM     17  C   UNL     1       2.262   8.737  18.064  0.00  0.00    +0.000 A 
ATOM     18  C   UNL     1       1.882  10.051  17.884  0.00  0.00    +0.000 A 
ATOM     19  S   UNL     1       0.995  10.650  19.218  0.00  0.00    +0.000 S 
ATOM     20  C   UNL     1       1.114   9.152  20.040  0.00  0.00    +0.000 A 
ENDBRANCH   4  16
TORSDOF 3
ENDMDL
MODEL 2
REMARK VINA RESULT:      -6.1      0.613      1.037
REMARK  Name = 
REMARK  4 active torsions:
REMARK  status: ('A' for Active; 'I' for Inactive)
REMARK    1  A    between atoms: C_1  and  S_2
REMARK    2  A    between atoms: S_2  and  C_3
REMARK    3  A    between atoms: C_7  and  N_8
REMARK    4  A    between atoms: C_11  and  C_12
REMARK                            x       y       z     vdW  Elec       q    Type
REMARK                         _______ _______ _______ _____ _____    ______ ____
ROOT
ATOM      1  N   UNL     1       4.144   3.722  18.598  0.00  0.00    +0.000 N 
ATOM      2  C   UNL     1       3.278   4.589  19.182  0.00  0.00    +0.000 A 
ATOM      3  N   UNL     1       3.046   5.830  18.820  0.00  0.00    +0.000 NA
ATOM      4  C   UNL     1       2.181   6.456  19.691  0.00  0.00    +0.000 A 
ATOM      5  C   UNL     1       1.734   5.670  20.727  0.00  0.00    +0.000 A 
ATOM      6  S   UNL     1       2.387   4.088  20.577  0.00  0.00    +0.000 S 
ATOM      7  H   UNL     1       4.233   2.815  19.036  0.00  0.00    +0.000 HD
ENDROOT
BRANCH   1  12
ATOM      8  C   UNL     1       6.200   4.275  15.499  0.00  0.00    +0.000 A 
ATOM      9  C   UNL     1       7.323   4.881  16.061  0.00  0.00    +0.000 A 
ATOM     10  C   UNL     1       7.403   5.064  17.440  0.00  0.00    +0.000 A 
ATOM     11  C   UNL     1       6.355   4.648  18.267  0.00  0.00    +0.000 A 
ATOM     12  C   UNL     1       5.203   4.054  17.728  0.00  0.00    +0.000 A 
ATOM     13  C   UNL     1       5.159   3.860  16.339  0.00  0.00    +0.000 A 
BRANCH   8  15
ATOM     14  C   UNL     1       7.474   4.912  13.123  0.00  0.00    +0.000 C 
ATOM     15  S   UNL     1       6.088   3.928  13.751  0.00  0.00    +0.000 S 
ENDBRANCH   8  15
ENDBRANCH   1  12
BRANCH   4  16
ATOM     16  C   UNL     1       1.849   7.864  19.431  0.00  0.00    +0.000 A 
ATOM     17  C   UNL     1       1.203   8.683  20.411  0.00  0.00    +0.000 A 
ATOM     18  C   UNL     1       0.986   9.967  19.955  0.00  0.00    +0.000 A 
ATOM     19  S   UNL     1       1.556  10.184  18.357  0.00  0.00    +0.000 S 
ATOM     20  C   UNL     1       2.097   8.561  18.270  0.00  0.00    +0.000 A 
ENDBRANCH   4  16
TORSDOF 3
ENDMDL
MODEL 3
REMARK VINA RESULT:      -6.1      1.268      6.927
REMARK  Name = 
REMARK  4 active torsions:
REMARK  status: ('A' for Active; 'I' for Inactive)
REMARK    1  A    between atoms: C_1  and  S_2
REMARK    2  A    between atoms: S_2  and  C_3
REMARK    3  A    between atoms: C_7  and  N_8
REMARK    4  A    between atoms: C_11  and  C_12
REMARK                            x       y       z     vdW  Elec       q    Type
REMARK                         _______ _______ _______ _____ _____    ______ ____
ROOT
ATOM      1  N   UNL     1       2.213   6.278  20.484  0.00  0.00    +0.000 N 
ATOM      2  C   UNL     1       2.996   5.340  19.893  0.00  0.00    +0.000 A 
ATOM      3  N   UNL     1       3.817   5.525  18.885  0.00  0.00    +0.000 NA
ATOM      4  C   UNL     1       4.383   4.339  18.471  0.00  0.00    +0.000 A 
ATOM      5  C   UNL     1       3.997   3.231  19.190  0.00  0.00    +0.000 A 
ATOM      6  S   UNL     1       2.924   3.703  20.446  0.00  0.00    +0.000 S 
ATOM      7  H   UNL     1       1.603   5.952  21.221  0.00  0.00    +0.000 HD
ENDROOT
BRANCH   1  12
ATOM      8  C   UNL     1       0.932   9.795  20.126  0.00  0.00    +0.000 A 
ATOM      9  C   UNL     1       1.307  10.054  18.808  0.00  0.00    +0.000 A 
ATOM     10  C   UNL     1       1.936   9.067  18.053  0.00  0.00    +0.000 A 
ATOM     11  C   UNL     1       2.202   7.814  18.613  0.00  0.00    +0.000 A 
ATOM     12  C   UNL     1       1.855   7.532  19.944  0.00  0.00    +0.000 A 
ATOM     13  C   UNL     1       1.201   8.535  20.674  0.00  0.00    +0.000 A 
BRANCH   8  15
ATOM     14  C   UNL     1      -0.278  10.023  22.607  0.00  0.00    +0.000 C 
ATOM     15  S   UNL     1       0.037  10.989  21.107  0.00  0.00    +0.000 S 
ENDBRANCH   8  15
ENDBRANCH   1  12
BRANCH   4  16
ATOM     16  C   UNL     1       5.306   4.383  17.328  0.00  0.00    +0.000 A 
ATOM     17  C   UNL     1       6.698   4.675  17.487  0.00  0.00    +0.000 A 
ATOM     18  C   UNL     1       7.373   4.665  16.284  0.00  0.00    +0.000 A 
ATOM     19  S   UNL     1       6.337   4.308  14.971  0.00  0.00    +0.000 S 
ATOM     20  C   UNL     1       4.981   4.163  16.008  0.00  0.00    +0.000 A 
ENDBRANCH   4  16
TORSDOF 3
ENDMDL
MODEL 4
REMARK VINA RESULT:      -6.1      3.909      5.884
REMARK  Name = 
REMARK  4 active torsions:
REMARK  status: ('A' for Active; 'I' for Inactive)
REMARK    1  A    between atoms: C_1  and  S_2
REMARK    2  A    between atoms: S_2  and  C_3
REMARK    3  A    between atoms: C_7  and  N_8
REMARK    4  A    between atoms: C_11  and  C_12
REMARK                            x       y       z     vdW  Elec       q    Type
REMARK                         _______ _______ _______ _____ _____    ______ ____
ROOT
ATOM      1  N   UNL     1       1.436   8.865  20.820  0.00  0.00    +0.000 N 
ATOM      2  C   UNL     1       0.558   9.796  20.366  0.00  0.00    +0.000 A 
ATOM      3  N   UNL     1      -0.357   9.627  19.440  0.00  0.00    +0.000 NA
ATOM      4  C   UNL     1      -1.010  10.805  19.154  0.00  0.00    +0.000 A 
ATOM      5  C   UNL     1      -0.593  11.891  19.889  0.00  0.00    +0.000 A 
ATOM      6  S   UNL     1       0.624  11.404  20.999  0.00  0.00    +0.000 S 
ATOM      7  H   UNL     1       2.107   9.181  21.507  0.00  0.00    +0.000 HD
ENDROOT
BRANCH   1  12
ATOM      8  C   UNL     1       1.832   5.213  20.021  0.00  0.00    +0.000 A 
ATOM      9  C   UNL     1       2.393   5.305  18.748  0.00  0.00    +0.000 A 
ATOM     10  C   UNL     1       2.664   6.553  18.192  0.00  0.00    +0.000 A 
ATOM     11  C   UNL     1       2.368   7.721  18.902  0.00  0.00    +0.000 A 
ATOM     12  C   UNL     1       1.784   7.659  20.177  0.00  0.00    +0.000 A 
ATOM     13  C   UNL     1       1.544   6.390  20.724  0.00  0.00    +0.000 A 
BRANCH   8  15
ATOM     14  C   UNL     1       1.085   2.619  19.401  0.00  0.00    +0.000 C 
ATOM     15  S   UNL     1       1.556   3.640  20.822  0.00  0.00    +0.000 S 
ENDBRANCH   8  15
ENDBRANCH   1  12
BRANCH   4  16
ATOM     16  C   UNL     1      -2.045  10.779  18.111  0.00  0.00    +0.000 A 
ATOM     17  C   UNL     1      -1.915   9.977  16.933  0.00  0.00    +0.000 A 
ATOM     18  C   UNL     1      -3.000  10.106  16.092  0.00  0.00    +0.000 A 
ATOM     19  S   UNL     1      -4.168  11.188  16.716  0.00  0.00    +0.000 S 
ATOM     20  C   UNL     1      -3.227  11.485  18.115  0.00  0.00    +0.000 A 
ENDBRANCH   4  16
TORSDOF 3
ENDMDL
MODEL 5
REMARK VINA RESULT:      -6.0      1.548      2.034
REMARK  Name = 
REMARK  4 active torsions:
REMARK  status: ('A' for Active; 'I' for Inactive)
REMARK    1  A    between atoms: C_1  and  S_2
REMARK    2  A    between atoms: S_2  and  C_3
REMARK    3  A    between atoms: C_7  and  N_8
REMARK    4  A    between atoms: C_11  and  C_12
REMARK                            x       y       z     vdW  Elec       q    Type
REMARK                         _______ _______ _______ _____ _____    ______ ____
ROOT
ATOM      1  N   UNL     1       4.806   3.294  17.171  0.00  0.00    +0.000 N 
ATOM      2  C   UNL     1       4.015   3.992  18.026  0.00  0.00    +0.000 A 
ATOM      3  N   UNL     1       3.608   5.232  17.885  0.00  0.00    +0.000 NA
ATOM      4  C   UNL     1       2.900   5.660  18.985  0.00  0.00    +0.000 A 
ATOM      5  C   UNL     1       2.751   4.720  19.979  0.00  0.00    +0.000 A 
ATOM      6  S   UNL     1       3.487   3.245  19.494  0.00  0.00    +0.000 S 
ATOM      7  H   UNL     1       5.061   2.359  17.460  0.00  0.00    +0.000 HD
ENDROOT
BRANCH   1  12
ATOM      8  C   UNL     1       6.364   4.020  13.827  0.00  0.00    +0.000 A 
ATOM      9  C   UNL     1       7.203   5.076  14.178  0.00  0.00    +0.000 A 
ATOM     10  C   UNL     1       7.271   5.507  15.501  0.00  0.00    +0.000 A 
ATOM     11  C   UNL     1       6.493   4.887  16.484  0.00  0.00    +0.000 A 
ATOM     12  C   UNL     1       5.623   3.835  16.157  0.00  0.00    +0.000 A 
ATOM     13  C   UNL     1       5.592   3.405  14.822  0.00  0.00    +0.000 A 
BRANCH   8  15
ATOM     14  C   UNL     1       4.524   3.354  11.866  0.00  0.00    +0.000 C 
ATOM     15  S   UNL     1       6.311   3.364  12.167  0.00  0.00    +0.000 S 
ENDBRANCH   8  15
ENDBRANCH   1  12
BRANCH   4  16
ATOM     16  C   UNL     1       2.403   7.043  18.985  0.00  0.00    +0.000 A 
ATOM     17  C   UNL     1       2.491   7.880  17.828  0.00  0.00    +0.000 A 
ATOM     18  C   UNL     1       1.967   9.136  18.052  0.00  0.00    +0.000 A 
ATOM     19  S   UNL     1       1.375   9.307  19.647  0.00  0.00    +0.000 S 
ATOM     20  C   UNL     1       1.816   7.700  20.043  0.00  0.00    +0.000 A 
ENDBRANCH   4  16
TORSDOF 3
ENDMDL
MODEL 6
REMARK VINA RESULT:      -6.0      1.446      7.002
REMARK  Name = 
REMARK  4 active torsions:
REMARK  status: ('A' for Active; 'I' for Inactive)
REMARK    1  A    between atoms: C_1  and  S_2
REMARK    2  A    between atoms: S_2  and  C_3
REMARK    3  A    between atoms: C_7  and  N_8
REMARK    4  A    between atoms: C_11  and  C_12
REMARK                            x       y       z     vdW  Elec       q    Type
REMARK                         _______ _______ _______ _____ _____    ______ ____
ROOT
ATOM      1  N   UNL     1       1.770   6.814  20.746  0.00  0.00    +0.000 N 
ATOM      2  C   UNL     1       2.520   5.784  20.278  0.00  0.00    +0.000 A 
ATOM      3  N   UNL     1       3.422   5.839  19.326  0.00  0.00    +0.000 NA
ATOM      4  C   UNL     1       3.924   4.590  19.034  0.00  0.00    +0.000 A 
ATOM      5  C   UNL     1       3.404   3.565  19.791  0.00  0.00    +0.000 A 
ATOM      6  S   UNL     1       2.284   4.199  20.929  0.00  0.00    +0.000 S 
ATOM      7  H   UNL     1       1.086   6.585  21.454  0.00  0.00    +0.000 HD
ENDROOT
BRANCH   1  12
ATOM      8  C   UNL     1       0.844  10.397  20.080  0.00  0.00    +0.000 A 
ATOM      9  C   UNL     1       1.275  10.515  18.760  0.00  0.00    +0.000 A 
ATOM     10  C   UNL     1       1.825   9.417  18.103  0.00  0.00    +0.000 A 
ATOM     11  C   UNL     1       1.955   8.192  18.765  0.00  0.00    +0.000 A 
ATOM     12  C   UNL     1       1.549   8.049  20.101  0.00  0.00    +0.000 A 
ATOM     13  C   UNL     1       0.976   9.164  20.731  0.00  0.00    +0.000 A 
BRANCH   8  15
ATOM     14  C   UNL     1      -0.582  10.883  22.405  0.00  0.00    +0.000 C 
ATOM     15  S   UNL     1       0.043  11.744  20.938  0.00  0.00    +0.000 S 
ENDBRANCH   8  15
ENDBRANCH   1  12
BRANCH   4  16
ATOM     16  C   UNL     1       4.926   4.488  17.963  0.00  0.00    +0.000 A 
ATOM     17  C   UNL     1       4.608   3.951  16.676  0.00  0.00    +0.000 A 
ATOM     18  C   UNL     1       5.697   3.949  15.828  0.00  0.00    +0.000 A 
ATOM     19  S   UNL     1       7.094   4.587  16.580  0.00  0.00    +0.000 S 
ATOM     20  C   UNL     1       6.247   4.871  18.041  0.00  0.00    +0.000 A 
ENDBRANCH   4  16
TORSDOF 3
ENDMDL
MODEL 7
REMARK VINA RESULT:      -5.9      2.773      7.613
REMARK  Name = 
REMARK  4 active torsions:
REMARK  status: ('A' for Active; 'I' for Inactive)
REMARK    1  A    between atoms: C_1  and  S_2
REMARK    2  A    between atoms: S_2  and  C_3
REMARK    3  A    between atoms: C_7  and  N_8
REMARK    4  A    between atoms: C_11  and  C_12
REMARK                            x       y       z     vdW  Elec       q    Type
REMARK                         _______ _______ _______ _____ _____    ______ ____
ROOT
ATOM      1  N   UNL     1       2.233   8.711  17.909  0.00  0.00    +0.000 N 
ATOM      2  C   UNL     1       2.726   7.460  18.100  0.00  0.00    +0.000 A 
ATOM      3  N   UNL     1       2.162   6.489  18.780  0.00  0.00    +0.000 NA
ATOM      4  C   UNL     1       2.980   5.383  18.854  0.00  0.00    +0.000 A 
ATOM      5  C   UNL     1       4.186   5.510  18.204  0.00  0.00    +0.000 A 
ATOM      6  S   UNL     1       4.272   7.048  17.443  0.00  0.00    +0.000 S 
ATOM      7  H   UNL     1       2.823   9.351  17.395  0.00  0.00    +0.000 HD
ENDROOT
BRANCH   1  12
ATOM      8  C   UNL     1       0.137   9.941  20.777  0.00  0.00    +0.000 A 
ATOM      9  C   UNL     1      -0.781  10.729  20.083  0.00  0.00    +0.000 A 
ATOM     10  C   UNL     1      -0.720  10.814  18.694  0.00  0.00    +0.000 A 
ATOM     11  C   UNL     1       0.266  10.117  17.988  0.00  0.00    +0.000 A 
ATOM     12  C   UNL     1       1.215   9.333  18.661  0.00  0.00    +0.000 A 
ATOM     13  C   UNL     1       1.116   9.245  20.058  0.00  0.00    +0.000 A 
BRANCH   8  15
ATOM     14  C   UNL     1      -1.170  10.990  22.983  0.00  0.00    +0.000 C 
ATOM     15  S   UNL     1       0.044   9.718  22.547  0.00  0.00    +0.000 S 
ENDBRANCH   8  15
ENDBRANCH   1  12
BRANCH   4  16
ATOM     16  C   UNL     1       2.495   4.222  19.613  0.00  0.00    +0.000 A 
ATOM     17  C   UNL     1       2.267   2.953  18.993  0.00  0.00    +0.000 A 
ATOM     18  C   UNL     1       1.812   2.008  19.890  0.00  0.00    +0.000 A 
ATOM     19  S   UNL     1       1.657   2.648  21.468  0.00  0.00    +0.000 S 
ATOM     20  C   UNL     1       2.202   4.189  20.958  0.00  0.00    +0.000 A 
ENDBRANCH   4  16
TORSDOF 3
ENDMDL
MODEL 8
REMARK VINA RESULT:      -5.8      2.764      7.338
REMARK  Name = 
REMARK  4 active torsions:
REMARK  status: ('A' for Active; 'I' for Inactive)
REMARK    1  A    between atoms: C_1  and  S_2
REMARK    2  A    between atoms: S_2  and  C_3
REMARK    3  A    between atoms: C_7  and  N_8
REMARK    4  A    between atoms: C_11  and  C_12
REMARK                            x       y       z     vdW  Elec       q    Type
REMARK                         _______ _______ _______ _____ _____    ______ ____
ROOT
ATOM      1  N   UNL     1       2.296   8.765  17.778  0.00  0.00    +0.000 N 
ATOM      2  C   UNL     1       2.765   7.510  17.999  0.00  0.00    +0.000 A 
ATOM      3  N   UNL     1       2.174   6.561  18.688  0.00  0.00    +0.000 NA
ATOM      4  C   UNL     1       2.972   5.443  18.794  0.00  0.00    +0.000 A 
ATOM      5  C   UNL     1       4.189   5.538  18.158  0.00  0.00    +0.000 A 
ATOM      6  S   UNL     1       4.312   7.060  17.372  0.00  0.00    +0.000 S 
ATOM      7  H   UNL     1       2.904   9.386  17.262  0.00  0.00    +0.000 HD
ENDROOT
BRANCH   1  12
ATOM      8  C   UNL     1      -0.895  10.540  18.676  0.00  0.00    +0.000 A 
ATOM      9  C   UNL     1      -0.764  10.583  20.063  0.00  0.00    +0.000 A 
ATOM     10  C   UNL     1       0.377  10.066  20.674  0.00  0.00    +0.000 A 
ATOM     11  C   UNL     1       1.392   9.494  19.902  0.00  0.00    +0.000 A 
ATOM     12  C   UNL     1       1.278   9.418  18.505  0.00  0.00    +0.000 A 
ATOM     13  C   UNL     1       0.132   9.968  17.913  0.00  0.00    +0.000 A 
BRANCH   8  15
ATOM     14  C   UNL     1      -3.292   9.805  17.499  0.00  0.00    +0.000 C 
ATOM     15  S   UNL     1      -2.288  11.275  17.834  0.00  0.00    +0.000 S 
ENDBRANCH   8  15
ENDBRANCH   1  12
BRANCH   4  16
ATOM     16  C   UNL     1       2.455   4.304  19.566  0.00  0.00    +0.000 A 
ATOM     17  C   UNL     1       2.073   3.075  18.940  0.00  0.00    +0.000 A 
ATOM     18  C   UNL     1       1.616   2.146  19.852  0.00  0.00    +0.000 A 
ATOM     19  S   UNL     1       1.645   2.751  21.451  0.00  0.00    +0.000 S 
ATOM     20  C   UNL     1       2.272   4.257  20.929  0.00  0.00    +0.000 A 
ENDBRANCH   4  16
TORSDOF 3
ENDMDL
MODEL 9
REMARK VINA RESULT:      -5.8      1.074      1.150
REMARK  Name = 
REMARK  4 active torsions:
REMARK  status: ('A' for Active; 'I' for Inactive)
REMARK    1  A    between atoms: C_1  and  S_2
REMARK    2  A    between atoms: S_2  and  C_3
REMARK    3  A    between atoms: C_7  and  N_8
REMARK    4  A    between atoms: C_11  and  C_12
REMARK                            x       y       z     vdW  Elec       q    Type
REMARK                         _______ _______ _______ _____ _____    ______ ____
ROOT
ATOM      1  N   UNL     1       4.409   4.062  18.787  0.00  0.00    +0.000 N 
ATOM      2  C   UNL     1       3.404   4.708  19.430  0.00  0.00    +0.000 A 
ATOM      3  N   UNL     1       3.083   5.976  19.314  0.00  0.00    +0.000 NA
ATOM      4  C   UNL     1       2.073   6.323  20.184  0.00  0.00    +0.000 A 
ATOM      5  C   UNL     1       1.605   5.294  20.968  0.00  0.00    +0.000 A 
ATOM      6  S   UNL     1       2.431   3.842  20.568  0.00  0.00    +0.000 S 
ATOM      7  H   UNL     1       4.546   3.091  19.030  0.00  0.00    +0.000 HD
ENDROOT
BRANCH   1  12
ATOM      8  C   UNL     1       6.811   5.250  16.149  0.00  0.00    +0.000 A 
ATOM      9  C   UNL     1       7.673   6.013  16.935  0.00  0.00    +0.000 A 
ATOM     10  C   UNL     1       7.476   6.096  18.312  0.00  0.00    +0.000 A 
ATOM     11  C   UNL     1       6.408   5.421  18.912  0.00  0.00    +0.000 A 
ATOM     12  C   UNL     1       5.512   4.662  18.143  0.00  0.00    +0.000 A 
ATOM     13  C   UNL     1       5.748   4.576  16.763  0.00  0.00    +0.000 A 
BRANCH   8  15
ATOM     14  C   UNL     1       5.694   3.933  13.984  0.00  0.00    +0.000 C 
ATOM     15  S   UNL     1       7.075   5.030  14.396  0.00  0.00    +0.000 S 
ENDBRANCH   8  15
ENDBRANCH   1  12
BRANCH   4  16
ATOM     16  C   UNL     1       1.626   7.723  20.190  0.00  0.00    +0.000 A 
ATOM     17  C   UNL     1       1.640   8.529  19.007  0.00  0.00    +0.000 A 
ATOM     18  C   UNL     1       1.181   9.808  19.242  0.00  0.00    +0.000 A 
ATOM     19  S   UNL     1       0.736  10.038  20.877  0.00  0.00    +0.000 S 
ATOM     20  C   UNL     1       1.155   8.426  21.276  0.00  0.00    +0.000 A 
ENDBRANCH   4  16
TORSDOF 3
ENDMDL
