MODEL 1
REMARK VINA RESULT:      -8.0      0.000      0.000
REMARK  Name = 
REMARK  9 active torsions:
REMARK  status: ('A' for Active; 'I' for Inactive)
REMARK    1  A    between atoms: C_1  and  C_2
REMARK    2  A    between atoms: C_2  and  C_4
REMARK    3  A    between atoms: C_5  and  C_6
REMARK    4  A    between atoms: N_13  and  C_14
REMARK    5  A    between atoms: C_14  and  C_15
REMARK    6  A    between atoms: C_15  and  O_17
REMARK    7  A    between atoms: C_20  and  N_21
REMARK    8  A    between atoms: N_21  and  C_22
REMARK    9  A    between atoms: C_22  and  C_23
REMARK                            x       y       z     vdW  Elec       q    Type
REMARK                         _______ _______ _______ _____ _____    ______ ____
ROOT
ATOM      1  C   UNL     1       4.123   5.471  17.457  0.00  0.00    +0.000 A 
ATOM      2  C   UNL     1       3.074   5.672  18.514  0.00  0.00    +0.000 A 
ATOM      3  N   UNL     1       2.623   4.730  19.283  0.00  0.00    +0.000 NA
ATOM      4  N   UNL     1       3.065   3.447  19.093  0.00  0.00    +0.000 N 
ATOM      5  C   UNL     1       3.823   3.087  17.991  0.00  0.00    +0.000 A 
ATOM      6  O   UNL     1       4.028   1.910  17.692  0.00  0.00    +0.000 OA
ATOM      7  C   UNL     1       4.532   4.205  17.255  0.00  0.00    +0.000 A 
ENDROOT
BRANCH   2   8
ATOM      8  C   UNL     1       2.575   7.063  18.754  0.00  0.00    +0.000 A 
ATOM      9  C   UNL     1       2.149   7.499  20.017  0.00  0.00    +0.000 A 
ATOM     10  C   UNL     1       1.448   8.701  20.135  0.00  0.00    +0.000 A 
ATOM     11  C   UNL     1       1.240   9.504  19.015  0.00  0.00    +0.000 A 
ATOM     12  C   UNL     1       1.778   9.134  17.782  0.00  0.00    +0.000 A 
ATOM     13  C   UNL     1       2.449   7.917  17.653  0.00  0.00    +0.000 A 
ENDBRANCH   2   8
BRANCH   1  15
ATOM     14  C   UNL     1       6.030   7.265  17.570  0.00  0.00    +0.000 C 
ATOM     15  C   UNL     1       4.904   6.589  16.833  0.00  0.00    +0.000 C 
ATOM     16  O   UNL     1       4.621   6.965  15.690  0.00  0.00    +0.000 OA
ENDBRANCH   1  15
BRANCH   7  17
ATOM     17  N   UNL     1       5.628   3.790  16.516  0.00  0.00    +0.000 N 
ATOM     18  H   UNL     1       6.500   3.645  17.015  0.00  0.00    +0.000 HD
BRANCH  17  19
ATOM     19  C   UNL     1       5.517   3.091  15.245  0.00  0.00    +0.000 C 
BRANCH  19  20
ATOM     20  C   UNL     1       6.292   3.845  14.202  0.00  0.00    +0.000 A 
ATOM     21  C   UNL     1       6.183   3.511  12.844  0.00  0.00    +0.000 A 
ATOM     22  C   UNL     1       6.930   4.199  11.891  0.00  0.00    +0.000 A 
ATOM     23  C   UNL     1       7.783   5.233  12.280  0.00  0.00    +0.000 A 
ATOM     24  C   UNL     1       7.882   5.587  13.623  0.00  0.00    +0.000 A 
ATOM     25  C   UNL     1       7.135   4.903  14.577  0.00  0.00    +0.000 A 
ENDBRANCH  19  20
ENDBRANCH  17  19
ENDBRANCH   7  17
BRANCH   4  26
ATOM     26  C   UNL     1       2.357   2.396  19.837  0.00  0.00    +0.000 C 
BRANCH  26  27
ATOM     27  C   UNL     1       1.346   2.853  20.892  0.00  0.00    +0.000 C 
ATOM     28  O   UNL     1       1.466   2.573  22.080  0.00  0.00    +0.000 OA
BRANCH  27  29
ATOM     29  O   UNL     1       0.287   3.555  20.441  0.00  0.00    +0.000 OA
ATOM     30  H   UNL     1      -0.516   3.385  20.955  0.00  0.00    +0.000 HD
ENDBRANCH  27  29
ENDBRANCH  26  27
ENDBRANCH   4  26
TORSDOF 8
ENDMDL
MODEL 2
REMARK VINA RESULT:      -7.7      0.377      1.002
REMARK  Name = 
REMARK  9 active torsions:
REMARK  status: ('A' for Active; 'I' for Inactive)
REMARK    1  A    between atoms: C_1  and  C_2
REMARK    2  A    between atoms: C_2  and  C_4
REMARK    3  A    between atoms: C_5  and  C_6
REMARK    4  A    between atoms: N_13  and  C_14
REMARK    5  A    between atoms: C_14  and  C_15
REMARK    6  A    between atoms: C_15  and  O_17
REMARK    7  A    between atoms: C_20  and  N_21
REMARK    8  A    between atoms: N_21  and  C_22
REMARK    9  A    between atoms: C_22  and  C_23
REMARK                            x       y       z     vdW  Elec       q    Type
REMARK                         _______ _______ _______ _____ _____    ______ ____
ROOT
ATOM      1  C   UNL     1       4.128   5.361  17.399  0.00  0.00    +0.000 A 
ATOM      2  C   UNL     1       3.068   5.570  18.443  0.00  0.00    +0.000 A 
ATOM      3  N   UNL     1       2.590   4.629  19.196  0.00  0.00    +0.000 NA
ATOM      4  N   UNL     1       3.011   3.341  19.000  0.00  0.00    +0.000 N 
ATOM      5  C   UNL     1       3.779   2.978  17.905  0.00  0.00    +0.000 A 
ATOM      6  O   UNL     1       3.968   1.800  17.599  0.00  0.00    +0.000 OA
ATOM      7  C   UNL     1       4.518   4.089  17.191  0.00  0.00    +0.000 A 
ENDROOT
BRANCH   2   8
ATOM      8  C   UNL     1       2.589   6.967  18.689  0.00  0.00    +0.000 A 
ATOM      9  C   UNL     1       2.223   7.421  19.964  0.00  0.00    +0.000 A 
ATOM     10  C   UNL     1       1.536   8.629  20.099  0.00  0.00    +0.000 A 
ATOM     11  C   UNL     1       1.285   9.422  18.980  0.00  0.00    +0.000 A 
ATOM     12  C   UNL     1       1.765   9.034  17.730  0.00  0.00    +0.000 A 
ATOM     13  C   UNL     1       2.421   7.811  17.584  0.00  0.00    +0.000 A 
ENDBRANCH   2   8
BRANCH   1  15
ATOM     14  C   UNL     1       6.013   7.172  17.584  0.00  0.00    +0.000 C 
ATOM     15  C   UNL     1       4.938   6.471  16.796  0.00  0.00    +0.000 C 
ATOM     16  O   UNL     1       4.721   6.819  15.631  0.00  0.00    +0.000 OA
ENDBRANCH   1  15
BRANCH   7  17
ATOM     17  N   UNL     1       5.617   3.663  16.463  0.00  0.00    +0.000 N 
ATOM     18  H   UNL     1       5.506   2.827  15.897  0.00  0.00    +0.000 HD
BRANCH  17  19
ATOM     19  C   UNL     1       6.702   4.544  16.062  0.00  0.00    +0.000 C 
BRANCH  19  20
ATOM     20  C   UNL     1       6.854   4.485  14.569  0.00  0.00    +0.000 A 
ATOM     21  C   UNL     1       7.756   5.329  13.903  0.00  0.00    +0.000 A 
ATOM     22  C   UNL     1       7.865   5.284  12.516  0.00  0.00    +0.000 A 
ATOM     23  C   UNL     1       7.085   4.392  11.779  0.00  0.00    +0.000 A 
ATOM     24  C   UNL     1       6.202   3.535  12.430  0.00  0.00    +0.000 A 
ATOM     25  C   UNL     1       6.093   3.576  13.818  0.00  0.00    +0.000 A 
ENDBRANCH  19  20
ENDBRANCH  17  19
ENDBRANCH   7  17
BRANCH   4  26
ATOM     26  C   UNL     1       2.275   2.296  19.724  0.00  0.00    +0.000 C 
BRANCH  26  27
ATOM     27  C   UNL     1       1.367   2.753  20.869  0.00  0.00    +0.000 C 
ATOM     28  O   UNL     1       1.594   2.468  22.040  0.00  0.00    +0.000 OA
BRANCH  27  29
ATOM     29  O   UNL     1       0.273   3.461  20.519  0.00  0.00    +0.000 OA
ATOM     30  H   UNL     1       0.074   4.168  21.150  0.00  0.00    +0.000 HD
ENDBRANCH  27  29
ENDBRANCH  26  27
ENDBRANCH   4  26
TORSDOF 8
ENDMDL
MODEL 3
REMARK VINA RESULT:      -7.6      2.818      4.841
REMARK  Name = 
REMARK  9 active torsions:
REMARK  status: ('A' for Active; 'I' for Inactive)
REMARK    1  A    between atoms: C_1  and  C_2
REMARK    2  A    between atoms: C_2  and  C_4
REMARK    3  A    between atoms: C_5  and  C_6
REMARK    4  A    between atoms: N_13  and  C_14
REMARK    5  A    between atoms: C_14  and  C_15
REMARK    6  A    between atoms: C_15  and  O_17
REMARK    7  A    between atoms: C_20  and  N_21
REMARK    8  A    between atoms: N_21  and  C_22
REMARK    9  A    between atoms: C_22  and  C_23
REMARK                            x       y       z     vdW  Elec       q    Type
REMARK                         _______ _______ _______ _____ _____    ______ ____
ROOT
ATOM      1  C   UNL     1       4.705   3.680  17.690  0.00  0.00    +0.000 A 
ATOM      2  C   UNL     1       4.774   4.420  18.996  0.00  0.00    +0.000 A 
ATOM      3  N   UNL     1       5.697   5.278  19.300  0.00  0.00    +0.000 NA
ATOM      4  N   UNL     1       6.726   5.489  18.420  0.00  0.00    +0.000 N 
ATOM      5  C   UNL     1       6.920   4.683  17.310  0.00  0.00    +0.000 A 
ATOM      6  O   UNL     1       7.958   4.718  16.648  0.00  0.00    +0.000 OA
ATOM      7  C   UNL     1       5.733   3.869  16.841  0.00  0.00    +0.000 A 
ENDROOT
BRANCH   2   8
ATOM      8  C   UNL     1       3.662   4.219  19.977  0.00  0.00    +0.000 A 
ATOM      9  C   UNL     1       3.584   3.087  20.801  0.00  0.00    +0.000 A 
ATOM     10  C   UNL     1       2.404   2.816  21.496  0.00  0.00    +0.000 A 
ATOM     11  C   UNL     1       1.334   3.707  21.437  0.00  0.00    +0.000 A 
ATOM     12  C   UNL     1       1.459   4.899  20.722  0.00  0.00    +0.000 A 
ATOM     13  C   UNL     1       2.623   5.158  19.998  0.00  0.00    +0.000 A 
ENDBRANCH   2   8
BRANCH   1  15
ATOM     14  C   UNL     1       3.109   1.601  17.654  0.00  0.00    +0.000 C 
ATOM     15  C   UNL     1       3.473   2.986  17.187  0.00  0.00    +0.000 C 
ATOM     16  O   UNL     1       2.742   3.560  16.373  0.00  0.00    +0.000 OA
ENDBRANCH   1  15
BRANCH   7  17
ATOM     17  N   UNL     1       5.796   3.491  15.510  0.00  0.00    +0.000 N 
ATOM     18  H   UNL     1       5.607   2.517  15.292  0.00  0.00    +0.000 HD
BRANCH  17  19
ATOM     19  C   UNL     1       5.617   4.419  14.405  0.00  0.00    +0.000 C 
BRANCH  19  20
ATOM     20  C   UNL     1       5.629   3.653  13.114  0.00  0.00    +0.000 A 
ATOM     21  C   UNL     1       4.450   3.469  12.375  0.00  0.00    +0.000 A 
ATOM     22  C   UNL     1       4.471   2.730  11.195  0.00  0.00    +0.000 A 
ATOM     23  C   UNL     1       5.666   2.177  10.733  0.00  0.00    +0.000 A 
ATOM     24  C   UNL     1       6.846   2.371  11.447  0.00  0.00    +0.000 A 
ATOM     25  C   UNL     1       6.829   3.111  12.626  0.00  0.00    +0.000 A 
ENDBRANCH  19  20
ENDBRANCH  17  19
ENDBRANCH   7  17
BRANCH   4  26
ATOM     26  C   UNL     1       7.851   6.296  18.912  0.00  0.00    +0.000 C 
BRANCH  26  27
ATOM     27  C   UNL     1       8.090   7.644  18.228  0.00  0.00    +0.000 C 
ATOM     28  O   UNL     1       8.666   8.571  18.788  0.00  0.00    +0.000 OA
BRANCH  27  29
ATOM     29  O   UNL     1       7.598   7.777  16.978  0.00  0.00    +0.000 OA
ATOM     30  H   UNL     1       7.561   6.933  16.504  0.00  0.00    +0.000 HD
ENDBRANCH  27  29
ENDBRANCH  26  27
ENDBRANCH   4  26
TORSDOF 8
ENDMDL
MODEL 4
REMARK VINA RESULT:      -7.5      2.439      6.912
REMARK  Name = 
REMARK  9 active torsions:
REMARK  status: ('A' for Active; 'I' for Inactive)
REMARK    1  A    between atoms: C_1  and  C_2
REMARK    2  A    between atoms: C_2  and  C_4
REMARK    3  A    between atoms: C_5  and  C_6
REMARK    4  A    between atoms: N_13  and  C_14
REMARK    5  A    between atoms: C_14  and  C_15
REMARK    6  A    between atoms: C_15  and  O_17
REMARK    7  A    between atoms: C_20  and  N_21
REMARK    8  A    between atoms: N_21  and  C_22
REMARK    9  A    between atoms: C_22  and  C_23
REMARK                            x       y       z     vdW  Elec       q    Type
REMARK                         _______ _______ _______ _____ _____    ______ ____
ROOT
ATOM      1  C   UNL     1       5.521   5.350  17.332  0.00  0.00    +0.000 A 
ATOM      2  C   UNL     1       6.680   6.102  16.739  0.00  0.00    +0.000 A 
ATOM      3  N   UNL     1       7.159   5.886  15.553  0.00  0.00    +0.000 NA
ATOM      4  N   UNL     1       6.640   4.866  14.800  0.00  0.00    +0.000 N 
ATOM      5  C   UNL     1       5.759   3.938  15.329  0.00  0.00    +0.000 A 
ATOM      6  O   UNL     1       5.469   2.898  14.737  0.00  0.00    +0.000 OA
ATOM      7  C   UNL     1       5.034   4.331  16.600  0.00  0.00    +0.000 A 
ENDROOT
BRANCH   2   8
ATOM      8  C   UNL     1       7.266   7.229  17.531  0.00  0.00    +0.000 A 
ATOM      9  C   UNL     1       7.093   8.571  17.166  0.00  0.00    +0.000 A 
ATOM     10  C   UNL     1       7.873   9.559  17.771  0.00  0.00    +0.000 A 
ATOM     11  C   UNL     1       8.763   9.224  18.790  0.00  0.00    +0.000 A 
ATOM     12  C   UNL     1       8.840   7.908  19.243  0.00  0.00    +0.000 A 
ATOM     13  C   UNL     1       8.088   6.911  18.619  0.00  0.00    +0.000 A 
ENDBRANCH   2   8
BRANCH   1  15
ATOM     14  C   UNL     1       3.530   6.714  18.353  0.00  0.00    +0.000 C 
ATOM     15  C   UNL     1       4.736   5.826  18.518  0.00  0.00    +0.000 C 
ATOM     16  O   UNL     1       5.081   5.484  19.653  0.00  0.00    +0.000 OA
ENDBRANCH   1  15
BRANCH   7  17
ATOM     17  N   UNL     1       3.851   3.642  16.812  0.00  0.00    +0.000 N 
ATOM     18  H   UNL     1       3.124   3.735  16.109  0.00  0.00    +0.000 HD
BRANCH  17  19
ATOM     19  C   UNL     1       3.755   2.459  17.652  0.00  0.00    +0.000 C 
BRANCH  19  20
ATOM     20  C   UNL     1       2.903   2.775  18.848  0.00  0.00    +0.000 A 
ATOM     21  C   UNL     1       1.634   3.355  18.695  0.00  0.00    +0.000 A 
ATOM     22  C   UNL     1       0.868   3.671  19.813  0.00  0.00    +0.000 A 
ATOM     23  C   UNL     1       1.351   3.400  21.095  0.00  0.00    +0.000 A 
ATOM     24  C   UNL     1       2.599   2.805  21.258  0.00  0.00    +0.000 A 
ATOM     25  C   UNL     1       3.367   2.486  20.141  0.00  0.00    +0.000 A 
ENDBRANCH  19  20
ENDBRANCH  17  19
ENDBRANCH   7  17
BRANCH   4  26
ATOM     26  C   UNL     1       7.368   4.528  13.569  0.00  0.00    +0.000 C 
BRANCH  26  27
ATOM     27  C   UNL     1       8.102   5.670  12.861  0.00  0.00    +0.000 C 
ATOM     28  O   UNL     1       7.703   6.151  11.806  0.00  0.00    +0.000 OA
BRANCH  27  29
ATOM     29  O   UNL     1       9.240   6.101  13.442  0.00  0.00    +0.000 OA
ATOM     30  H   UNL     1       9.102   6.890  13.986  0.00  0.00    +0.000 HD
ENDBRANCH  27  29
ENDBRANCH  26  27
ENDBRANCH   4  26
TORSDOF 8
ENDMDL
MODEL 5
REMARK VINA RESULT:      -7.4      2.804      4.930
REMARK  Name = 
REMARK  9 active torsions:
REMARK  status: ('A' for Active; 'I' for Inactive)
REMARK    1  A    between atoms: C_1  and  C_2
REMARK    2  A    between atoms: C_2  and  C_4
REMARK    3  A    between atoms: C_5  and  C_6
REMARK    4  A    between atoms: N_13  and  C_14
REMARK    5  A    between atoms: C_14  and  C_15
REMARK    6  A    between atoms: C_15  and  O_17
REMARK    7  A    between atoms: C_20  and  N_21
REMARK    8  A    between atoms: N_21  and  C_22
REMARK    9  A    between atoms: C_22  and  C_23
REMARK                            x       y       z     vdW  Elec       q    Type
REMARK                         _______ _______ _______ _____ _____    ______ ____
ROOT
ATOM      1  C   UNL     1       4.772   3.623  17.743  0.00  0.00    +0.000 A 
ATOM      2  C   UNL     1       4.840   4.358  19.052  0.00  0.00    +0.000 A 
ATOM      3  N   UNL     1       5.743   5.240  19.346  0.00  0.00    +0.000 NA
ATOM      4  N   UNL     1       6.752   5.485  18.452  0.00  0.00    +0.000 N 
ATOM      5  C   UNL     1       6.951   4.692  17.334  0.00  0.00    +0.000 A 
ATOM      6  O   UNL     1       7.977   4.759  16.657  0.00  0.00    +0.000 OA
ATOM      7  C   UNL     1       5.780   3.846  16.879  0.00  0.00    +0.000 A 
ENDROOT
BRANCH   2   8
ATOM      8  C   UNL     1       3.750   4.120  20.049  0.00  0.00    +0.000 A 
ATOM      9  C   UNL     1       3.649   2.928  20.780  0.00  0.00    +0.000 A 
ATOM     10  C   UNL     1       2.479   2.646  21.489  0.00  0.00    +0.000 A 
ATOM     11  C   UNL     1       1.446   3.580  21.537  0.00  0.00    +0.000 A 
ATOM     12  C   UNL     1       1.599   4.821  20.918  0.00  0.00    +0.000 A 
ATOM     13  C   UNL     1       2.752   5.093  20.180  0.00  0.00    +0.000 A 
ENDBRANCH   2   8
BRANCH   1  15
ATOM     14  C   UNL     1       2.339   3.644  16.769  0.00  0.00    +0.000 C 
ATOM     15  C   UNL     1       3.553   2.897  17.255  0.00  0.00    +0.000 C 
ATOM     16  O   UNL     1       3.542   1.662  17.250  0.00  0.00    +0.000 OA
ENDBRANCH   1  15
BRANCH   7  17
ATOM     17  N   UNL     1       5.833   3.477  15.545  0.00  0.00    +0.000 N 
ATOM     18  H   UNL     1       5.671   2.499  15.325  0.00  0.00    +0.000 HD
BRANCH  17  19
ATOM     19  C   UNL     1       5.608   4.406  14.449  0.00  0.00    +0.000 C 
BRANCH  19  20
ATOM     20  C   UNL     1       5.566   3.639  13.158  0.00  0.00    +0.000 A 
ATOM     21  C   UNL     1       6.714   3.000  12.664  0.00  0.00    +0.000 A 
ATOM     22  C   UNL     1       6.668   2.318  11.451  0.00  0.00    +0.000 A 
ATOM     23  C   UNL     1       5.478   2.255  10.724  0.00  0.00    +0.000 A 
ATOM     24  C   UNL     1       4.328   2.866  11.216  0.00  0.00    +0.000 A 
ATOM     25  C   UNL     1       4.370   3.548  12.429  0.00  0.00    +0.000 A 
ENDBRANCH  19  20
ENDBRANCH  17  19
ENDBRANCH   7  17
BRANCH   4  26
ATOM     26  C   UNL     1       7.860   6.322  18.931  0.00  0.00    +0.000 C 
BRANCH  26  27
ATOM     27  C   UNL     1       8.078   7.660  18.221  0.00  0.00    +0.000 C 
ATOM     28  O   UNL     1       8.663   8.597  18.753  0.00  0.00    +0.000 OA
BRANCH  27  29
ATOM     29  O   UNL     1       7.558   7.771  16.981  0.00  0.00    +0.000 OA
ATOM     30  H   UNL     1       7.800   8.605  16.552  0.00  0.00    +0.000 HD
ENDBRANCH  27  29
ENDBRANCH  26  27
ENDBRANCH   4  26
TORSDOF 8
ENDMDL
MODEL 6
REMARK VINA RESULT:      -7.4      0.686      1.103
REMARK  Name = 
REMARK  9 active torsions:
REMARK  status: ('A' for Active; 'I' for Inactive)
REMARK    1  A    between atoms: C_1  and  C_2
REMARK    2  A    between atoms: C_2  and  C_4
REMARK    3  A    between atoms: C_5  and  C_6
REMARK    4  A    between atoms: N_13  and  C_14
REMARK    5  A    between atoms: C_14  and  C_15
REMARK    6  A    between atoms: C_15  and  O_17
REMARK    7  A    between atoms: C_20  and  N_21
REMARK    8  A    between atoms: N_21  and  C_22
REMARK    9  A    between atoms: C_22  and  C_23
REMARK                            x       y       z     vdW  Elec       q    Type
REMARK                         _______ _______ _______ _____ _____    ______ ____
ROOT
ATOM      1  C   UNL     1       4.330   5.483  17.338  0.00  0.00    +0.000 A 
ATOM      2  C   UNL     1       3.198   5.644  18.313  0.00  0.00    +0.000 A 
ATOM      3  N   UNL     1       2.677   4.670  18.993  0.00  0.00    +0.000 NA
ATOM      4  N   UNL     1       3.123   3.393  18.775  0.00  0.00    +0.000 N 
ATOM      5  C   UNL     1       3.968   3.079  17.723  0.00  0.00    +0.000 A 
ATOM      6  O   UNL     1       4.189   1.916  17.384  0.00  0.00    +0.000 OA
ATOM      7  C   UNL     1       4.745   4.224  17.107  0.00  0.00    +0.000 A 
ENDROOT
BRANCH   2   8
ATOM      8  C   UNL     1       2.691   7.026  18.581  0.00  0.00    +0.000 A 
ATOM      9  C   UNL     1       2.254   7.432  19.850  0.00  0.00    +0.000 A 
ATOM     10  C   UNL     1       1.547   8.628  19.989  0.00  0.00    +0.000 A 
ATOM     11  C   UNL     1       1.344   9.456  18.887  0.00  0.00    +0.000 A 
ATOM     12  C   UNL     1       1.893   9.116  17.650  0.00  0.00    +0.000 A 
ATOM     13  C   UNL     1       2.570   7.905  17.498  0.00  0.00    +0.000 A 
ENDBRANCH   2   8
BRANCH   1  15
ATOM     14  C   UNL     1       6.210   7.270  17.714  0.00  0.00    +0.000 C 
ATOM     15  C   UNL     1       5.170   6.622  16.839  0.00  0.00    +0.000 C 
ATOM     16  O   UNL     1       5.007   7.038  15.687  0.00  0.00    +0.000 OA
ENDBRANCH   1  15
BRANCH   7  17
ATOM     17  N   UNL     1       5.896   3.834  16.442  0.00  0.00    +0.000 N 
ATOM     18  H   UNL     1       5.920   2.891  16.066  0.00  0.00    +0.000 HD
BRANCH  17  19
ATOM     19  C   UNL     1       6.820   4.772  15.825  0.00  0.00    +0.000 C 
BRANCH  19  20
ATOM     20  C   UNL     1       6.834   4.541  14.341  0.00  0.00    +0.000 A 
ATOM     21  C   UNL     1       5.986   3.590  13.753  0.00  0.00    +0.000 A 
ATOM     22  C   UNL     1       6.032   3.364  12.380  0.00  0.00    +0.000 A 
ATOM     23  C   UNL     1       6.912   4.092  11.577  0.00  0.00    +0.000 A 
ATOM     24  C   UNL     1       7.742   5.053  12.147  0.00  0.00    +0.000 A 
ATOM     25  C   UNL     1       7.698   5.282  13.519  0.00  0.00    +0.000 A 
ENDBRANCH  19  20
ENDBRANCH  17  19
ENDBRANCH   7  17
BRANCH   4  26
ATOM     26  C   UNL     1       2.347   2.315  19.403  0.00  0.00    +0.000 C 
BRANCH  26  27
ATOM     27  C   UNL     1       0.823   2.459  19.393  0.00  0.00    +0.000 C 
ATOM     28  O   UNL     1       0.128   2.002  18.492  0.00  0.00    +0.000 OA
BRANCH  27  29
ATOM     29  O   UNL     1       0.280   3.151  20.415  0.00  0.00    +0.000 OA
ATOM     30  H   UNL     1       0.009   2.579  21.147  0.00  0.00    +0.000 HD
ENDBRANCH  27  29
ENDBRANCH  26  27
ENDBRANCH   4  26
TORSDOF 8
ENDMDL
MODEL 7
REMARK VINA RESULT:      -7.4      0.391      1.349
REMARK  Name = 
REMARK  9 active torsions:
REMARK  status: ('A' for Active; 'I' for Inactive)
REMARK    1  A    between atoms: C_1  and  C_2
REMARK    2  A    between atoms: C_2  and  C_4
REMARK    3  A    between atoms: C_5  and  C_6
REMARK    4  A    between atoms: N_13  and  C_14
REMARK    5  A    between atoms: C_14  and  C_15
REMARK    6  A    between atoms: C_15  and  O_17
REMARK    7  A    between atoms: C_20  and  N_21
REMARK    8  A    between atoms: N_21  and  C_22
REMARK    9  A    between atoms: C_22  and  C_23
REMARK                            x       y       z     vdW  Elec       q    Type
REMARK                         _______ _______ _______ _____ _____    ______ ____
ROOT
ATOM      1  C   UNL     1       4.012   5.410  17.366  0.00  0.00    +0.000 A 
ATOM      2  C   UNL     1       2.922   5.568  18.388  0.00  0.00    +0.000 A 
ATOM      3  N   UNL     1       2.494   4.612  19.151  0.00  0.00    +0.000 NA
ATOM      4  N   UNL     1       3.001   3.350  18.986  0.00  0.00    +0.000 N 
ATOM      5  C   UNL     1       3.810   3.018  17.912  0.00  0.00    +0.000 A 
ATOM      6  O   UNL     1       4.081   1.850  17.631  0.00  0.00    +0.000 OA
ATOM      7  C   UNL     1       4.488   4.163  17.188  0.00  0.00    +0.000 A 
ENDROOT
BRANCH   2   8
ATOM      8  C   UNL     1       2.350   6.935  18.600  0.00  0.00    +0.000 A 
ATOM      9  C   UNL     1       2.191   7.852  17.552  0.00  0.00    +0.000 A 
ATOM     10  C   UNL     1       1.911   9.190  17.838  0.00  0.00    +0.000 A 
ATOM     11  C   UNL     1       1.710   9.598  19.155  0.00  0.00    +0.000 A 
ATOM     12  C   UNL     1       1.739   8.661  20.187  0.00  0.00    +0.000 A 
ATOM     13  C   UNL     1       2.053   7.329  19.910  0.00  0.00    +0.000 A 
ENDBRANCH   2   8
BRANCH   1  15
ATOM     14  C   UNL     1       5.776   7.340  17.546  0.00  0.00    +0.000 C 
ATOM     15  C   UNL     1       4.758   6.559  16.756  0.00  0.00    +0.000 C 
ATOM     16  O   UNL     1       4.536   6.874  15.582  0.00  0.00    +0.000 OA
ENDBRANCH   1  15
BRANCH   7  17
ATOM     17  N   UNL     1       5.624   3.796  16.487  0.00  0.00    +0.000 N 
ATOM     18  H   UNL     1       6.486   3.697  17.015  0.00  0.00    +0.000 HD
BRANCH  17  19
ATOM     19  C   UNL     1       5.587   3.083  15.220  0.00  0.00    +0.000 C 
BRANCH  19  20
ATOM     20  C   UNL     1       6.375   3.855  14.201  0.00  0.00    +0.000 A 
ATOM     21  C   UNL     1       7.223   4.903  14.590  0.00  0.00    +0.000 A 
ATOM     22  C   UNL     1       7.924   5.630  13.631  0.00  0.00    +0.000 A 
ATOM     23  C   UNL     1       7.798   5.313  12.278  0.00  0.00    +0.000 A 
ATOM     24  C   UNL     1       6.977   4.260  11.882  0.00  0.00    +0.000 A 
ATOM     25  C   UNL     1       6.276   3.531  12.839  0.00  0.00    +0.000 A 
ENDBRANCH  19  20
ENDBRANCH  17  19
ENDBRANCH   7  17
BRANCH   4  26
ATOM     26  C   UNL     1       2.322   2.272  19.719  0.00  0.00    +0.000 C 
BRANCH  26  27
ATOM     27  C   UNL     1       1.911   2.566  21.164  0.00  0.00    +0.000 C 
ATOM     28  O   UNL     1       2.686   2.435  22.105  0.00  0.00    +0.000 OA
BRANCH  27  29
ATOM     29  O   UNL     1       0.632   2.945  21.357  0.00  0.00    +0.000 OA
ATOM     30  H   UNL     1       0.512   3.436  22.184  0.00  0.00    +0.000 HD
ENDBRANCH  27  29
ENDBRANCH  26  27
ENDBRANCH   4  26
TORSDOF 8
ENDMDL
MODEL 8
REMARK VINA RESULT:      -7.3      0.782      1.049
REMARK  Name = 
REMARK  9 active torsions:
REMARK  status: ('A' for Active; 'I' for Inactive)
REMARK    1  A    between atoms: C_1  and  C_2
REMARK    2  A    between atoms: C_2  and  C_4
REMARK    3  A    between atoms: C_5  and  C_6
REMARK    4  A    between atoms: N_13  and  C_14
REMARK    5  A    between atoms: C_14  and  C_15
REMARK    6  A    between atoms: C_15  and  O_17
REMARK    7  A    between atoms: C_20  and  N_21
REMARK    8  A    between atoms: N_21  and  C_22
REMARK    9  A    between atoms: C_22  and  C_23
REMARK                            x       y       z     vdW  Elec       q    Type
REMARK                         _______ _______ _______ _____ _____    ______ ____
ROOT
ATOM      1  C   UNL     1       3.948   5.423  17.543  0.00  0.00    +0.000 A 
ATOM      2  C   UNL     1       2.868   5.688  18.554  0.00  0.00    +0.000 A 
ATOM      3  N   UNL     1       2.334   4.776  19.307  0.00  0.00    +0.000 NA
ATOM      4  N   UNL     1       2.712   3.470  19.140  0.00  0.00    +0.000 N 
ATOM      5  C   UNL     1       3.495   3.062  18.072  0.00  0.00    +0.000 A 
ATOM      6  O   UNL     1       3.647   1.874  17.787  0.00  0.00    +0.000 OA
ATOM      7  C   UNL     1       4.295   4.135  17.363  0.00  0.00    +0.000 A 
ENDROOT
BRANCH   2   8
ATOM      8  C   UNL     1       2.437   7.105  18.768  0.00  0.00    +0.000 A 
ATOM      9  C   UNL     1       2.090   7.601  20.033  0.00  0.00    +0.000 A 
ATOM     10  C   UNL     1       1.443   8.834  20.140  0.00  0.00    +0.000 A 
ATOM     11  C   UNL     1       1.215   9.607  19.004  0.00  0.00    +0.000 A 
ATOM     12  C   UNL     1       1.678   9.174  17.762  0.00  0.00    +0.000 A 
ATOM     13  C   UNL     1       2.293   7.927  17.644  0.00  0.00    +0.000 A 
ENDBRANCH   2   8
BRANCH   1  15
ATOM     14  C   UNL     1       4.596   6.987  15.542  0.00  0.00    +0.000 C 
ATOM     15  C   UNL     1       4.815   6.493  16.948  0.00  0.00    +0.000 C 
ATOM     16  O   UNL     1       5.728   6.980  17.622  0.00  0.00    +0.000 OA
ENDBRANCH   1  15
BRANCH   7  17
ATOM     17  N   UNL     1       5.396   3.656  16.672  0.00  0.00    +0.000 N 
ATOM     18  H   UNL     1       5.267   2.819  16.112  0.00  0.00    +0.000 HD
BRANCH  17  19
ATOM     19  C   UNL     1       6.526   4.489  16.294  0.00  0.00    +0.000 C 
BRANCH  19  20
ATOM     20  C   UNL     1       6.699   4.432  14.803  0.00  0.00    +0.000 A 
ATOM     21  C   UNL     1       5.912   3.574  14.020  0.00  0.00    +0.000 A 
ATOM     22  C   UNL     1       6.104   3.509  12.643  0.00  0.00    +0.000 A 
ATOM     23  C   UNL     1       7.071   4.307  12.029  0.00  0.00    +0.000 A 
ATOM     24  C   UNL     1       7.842   5.178  12.794  0.00  0.00    +0.000 A 
ATOM     25  C   UNL     1       7.652   5.246  14.171  0.00  0.00    +0.000 A 
ENDBRANCH  19  20
ENDBRANCH  17  19
ENDBRANCH   7  17
BRANCH   4  26
ATOM     26  C   UNL     1       1.917   2.464  19.858  0.00  0.00    +0.000 C 
BRANCH  26  27
ATOM     27  C   UNL     1       2.029   2.451  21.384  0.00  0.00    +0.000 C 
ATOM     28  O   UNL     1       3.101   2.305  21.962  0.00  0.00    +0.000 OA
BRANCH  27  29
ATOM     29  O   UNL     1       0.874   2.573  22.071  0.00  0.00    +0.000 OA
ATOM     30  H   UNL     1       0.245   3.165  21.634  0.00  0.00    +0.000 HD
ENDBRANCH  27  29
ENDBRANCH  26  27
ENDBRANCH   4  26
TORSDOF 8
ENDMDL
MODEL 9
REMARK VINA RESULT:      -7.2      0.512      1.183
REMARK  Name = 
REMARK  9 active torsions:
REMARK  status: ('A' for Active; 'I' for Inactive)
REMARK    1  A    between atoms: C_1  and  C_2
REMARK    2  A    between atoms: C_2  and  C_4
REMARK    3  A    between atoms: C_5  and  C_6
REMARK    4  A    between atoms: N_13  and  C_14
REMARK    5  A    between atoms: C_14  and  C_15
REMARK    6  A    between atoms: C_15  and  O_17
REMARK    7  A    between atoms: C_20  and  N_21
REMARK    8  A    between atoms: N_21  and  C_22
REMARK    9  A    between atoms: C_22  and  C_23
REMARK                            x       y       z     vdW  Elec       q    Type
REMARK                         _______ _______ _______ _____ _____    ______ ____
ROOT
ATOM      1  C   UNL     1       3.880   5.507  17.499  0.00  0.00    +0.000 A 
ATOM      2  C   UNL     1       2.754   5.724  18.470  0.00  0.00    +0.000 A 
ATOM      3  N   UNL     1       2.255   4.796  19.226  0.00  0.00    +0.000 NA
ATOM      4  N   UNL     1       2.719   3.513  19.101  0.00  0.00    +0.000 N 
ATOM      5  C   UNL     1       3.560   3.134  18.067  0.00  0.00    +0.000 A 
ATOM      6  O   UNL     1       3.795   1.952  17.814  0.00  0.00    +0.000 OA
ATOM      7  C   UNL     1       4.313   4.240  17.359  0.00  0.00    +0.000 A 
ENDROOT
BRANCH   2   8
ATOM      8  C   UNL     1       2.229   7.115  18.638  0.00  0.00    +0.000 A 
ATOM      9  C   UNL     1       2.091   8.000  17.559  0.00  0.00    +0.000 A 
ATOM     10  C   UNL     1       1.857   9.356  17.801  0.00  0.00    +0.000 A 
ATOM     11  C   UNL     1       1.680   9.815  19.104  0.00  0.00    +0.000 A 
ATOM     12  C   UNL     1       1.686   8.914  20.168  0.00  0.00    +0.000 A 
ATOM     13  C   UNL     1       1.955   7.564  19.935  0.00  0.00    +0.000 A 
ENDBRANCH   2   8
BRANCH   1  15
ATOM     14  C   UNL     1       5.731   7.350  17.722  0.00  0.00    +0.000 C 
ATOM     15  C   UNL     1       4.698   6.617  16.906  0.00  0.00    +0.000 C 
ATOM     16  O   UNL     1       4.523   6.938  15.727  0.00  0.00    +0.000 OA
ENDBRANCH   1  15
BRANCH   7  17
ATOM     17  N   UNL     1       5.464   3.818  16.714  0.00  0.00    +0.000 N 
ATOM     18  H   UNL     1       6.302   3.712  17.277  0.00  0.00    +0.000 HD
BRANCH  17  19
ATOM     19  C   UNL     1       5.452   3.064  15.470  0.00  0.00    +0.000 C 
BRANCH  19  20
ATOM     20  C   UNL     1       6.233   3.819  14.432  0.00  0.00    +0.000 A 
ATOM     21  C   UNL     1       6.102   3.513  13.069  0.00  0.00    +0.000 A 
ATOM     22  C   UNL     1       6.854   4.201  12.121  0.00  0.00    +0.000 A 
ATOM     23  C   UNL     1       7.735   5.208  12.519  0.00  0.00    +0.000 A 
ATOM     24  C   UNL     1       7.857   5.535  13.866  0.00  0.00    +0.000 A 
ATOM     25  C   UNL     1       7.105   4.850  14.817  0.00  0.00    +0.000 A 
ENDBRANCH  19  20
ENDBRANCH  17  19
ENDBRANCH   7  17
BRANCH   4  26
ATOM     26  C   UNL     1       1.965   2.474  19.816  0.00  0.00    +0.000 C 
BRANCH  26  27
ATOM     27  C   UNL     1       2.061   2.476  21.344  0.00  0.00    +0.000 C 
ATOM     28  O   UNL     1       1.081   2.648  22.062  0.00  0.00    +0.000 OA
BRANCH  27  29
ATOM     29  O   UNL     1       3.293   2.315  21.868  0.00  0.00    +0.000 OA
ATOM     30  H   UNL     1       3.826   3.122  21.814  0.00  0.00    +0.000 HD
ENDBRANCH  27  29
ENDBRANCH  26  27
ENDBRANCH   4  26
TORSDOF 8
ENDMDL
