MODEL 1
REMARK VINA RESULT:      -9.6      0.000      0.000
REMARK  Name = 
REMARK  5 active torsions:
REMARK  status: ('A' for Active; 'I' for Inactive)
REMARK    1  A    between atoms: C_2  and  C_3
REMARK    2  A    between atoms: C_3  and  C_4
REMARK    3  A    between atoms: C_4  and  C_5
REMARK    4  A    between atoms: C_6  and  C_7
REMARK    5  A    between atoms: N_23  and  C_24
REMARK                            x       y       z     vdW  Elec       q    Type
REMARK                         _______ _______ _______ _____ _____    ______ ____
ROOT
ATOM      1  C   UNL     1       3.416   5.826  17.912  0.00  0.00    +0.000 A 
ATOM      2  C   UNL     1       2.511   6.483  18.750  0.00  0.00    +0.000 A 
ATOM      3  N   UNL     1       1.955   5.512  19.557  0.00  0.00    +0.000 N 
ATOM      4  C   UNL     1       2.429   4.262  19.250  0.00  0.00    +0.000 A 
ATOM      5  C   UNL     1       2.120   3.010  19.799  0.00  0.00    +0.000 A 
ATOM      6 CL   UNL     1       1.000   2.864  21.095  0.00  0.00    +0.000 Cl
ATOM      7  C   UNL     1       2.741   1.881  19.270  0.00  0.00    +0.000 A 
ATOM      8  C   UNL     1       3.642   2.019  18.227  0.00  0.00    +0.000 A 
ATOM      9  F   UNL     1       4.226   0.924  17.720  0.00  0.00    +0.000 F 
ATOM     10  C   UNL     1       3.961   3.267  17.687  0.00  0.00    +0.000 A 
ATOM     11  C   UNL     1       3.340   4.421  18.210  0.00  0.00    +0.000 A 
ATOM     12  H   UNL     1       1.255   5.683  20.267  0.00  0.00    +0.000 HD
ENDROOT
BRANCH   2  13
ATOM     13  C   UNL     1       2.113   7.895  18.872  0.00  0.00    +0.000 A 
ATOM     14  C   UNL     1       1.526   8.385  20.051  0.00  0.00    +0.000 A 
ATOM     15  C   UNL     1       1.125   9.719  20.158  0.00  0.00    +0.000 A 
ATOM     16  C   UNL     1       1.341  10.584  19.097  0.00  0.00    +0.000 A 
ATOM     17  F   UNL     1       0.969  11.866  19.204  0.00  0.00    +0.000 F 
ATOM     18  C   UNL     1       1.941  10.138  17.928  0.00  0.00    +0.000 A 
ATOM     19  C   UNL     1       2.317   8.796  17.812  0.00  0.00    +0.000 A 
ENDBRANCH   2  13
BRANCH   1  20
ATOM     20  C   UNL     1       4.312   6.424  16.861  0.00  0.00    +0.000 C 
BRANCH  20  21
ATOM     21  C   UNL     1       5.794   6.354  17.221  0.00  0.00    +0.000 C 
BRANCH  21  23
ATOM     22  O   UNL     1       7.506   4.706  16.770  0.00  0.00    +0.000 OA
ATOM     23  C   UNL     1       6.505   5.307  16.394  0.00  0.00    +0.000 C 
ATOM     24  N   UNL     1       5.899   5.069  15.181  0.00  0.00    +0.000 N 
ATOM     25  H   UNL     1       5.217   5.734  14.828  0.00  0.00    +0.000 HD
BRANCH  24  26
ATOM     26  C   UNL     1       6.479   4.152  14.223  0.00  0.00    +0.000 C 
ATOM     27  C   UNL     1       5.481   3.569  13.221  0.00  0.00    +0.000 C 
ATOM     28  C   UNL     1       6.342   3.274  12.005  0.00  0.00    +0.000 C 
ATOM     29  N   UNL     1       7.338   4.302  12.039  0.00  0.00    +0.000 N 
ATOM     30  C   UNL     1       7.463   4.865  13.295  0.00  0.00    +0.000 C 
ATOM     31  O   UNL     1       8.233   5.759  13.600  0.00  0.00    +0.000 OA
ATOM     32  H   UNL     1       7.932   4.588  11.270  0.00  0.00    +0.000 HD
ENDBRANCH  24  26
ENDBRANCH  21  23
ENDBRANCH  20  21
ENDBRANCH   1  20
TORSDOF 5
ENDMDL
MODEL 2
REMARK VINA RESULT:      -9.1      1.364      5.369
REMARK  Name = 
REMARK  5 active torsions:
REMARK  status: ('A' for Active; 'I' for Inactive)
REMARK    1  A    between atoms: C_2  and  C_3
REMARK    2  A    between atoms: C_3  and  C_4
REMARK    3  A    between atoms: C_4  and  C_5
REMARK    4  A    between atoms: C_6  and  C_7
REMARK    5  A    between atoms: N_23  and  C_24
REMARK                            x       y       z     vdW  Elec       q    Type
REMARK                         _______ _______ _______ _____ _____    ______ ____
ROOT
ATOM      1  C   UNL     1       3.052   7.174  17.850  0.00  0.00    +0.000 A 
ATOM      2  C   UNL     1       2.673   6.114  18.677  0.00  0.00    +0.000 A 
ATOM      3  N   UNL     1       1.807   6.641  19.613  0.00  0.00    +0.000 N 
ATOM      4  C   UNL     1       1.645   7.994  19.450  0.00  0.00    +0.000 A 
ATOM      5  C   UNL     1       0.883   8.915  20.182  0.00  0.00    +0.000 A 
ATOM      6 CL   UNL     1      -0.078   8.408  21.513  0.00  0.00    +0.000 Cl
ATOM      7  C   UNL     1       0.921  10.256  19.807  0.00  0.00    +0.000 A 
ATOM      8  C   UNL     1       1.701  10.645  18.730  0.00  0.00    +0.000 A 
ATOM      9  F   UNL     1       1.738  11.940  18.385  0.00  0.00    +0.000 F 
ATOM     10  C   UNL     1       2.451   9.726  17.991  0.00  0.00    +0.000 A 
ATOM     11  C   UNL     1       2.424   8.364  18.358  0.00  0.00    +0.000 A 
ATOM     12  H   UNL     1       1.369   6.114  20.356  0.00  0.00    +0.000 HD
ENDROOT
BRANCH   2  13
ATOM     13  C   UNL     1       3.031   4.686  18.691  0.00  0.00    +0.000 A 
ATOM     14  C   UNL     1       2.473   3.788  17.766  0.00  0.00    +0.000 A 
ATOM     15  C   UNL     1       2.793   2.429  17.794  0.00  0.00    +0.000 A 
ATOM     16  C   UNL     1       3.703   1.961  18.728  0.00  0.00    +0.000 A 
ATOM     17  F   UNL     1       4.021   0.660  18.748  0.00  0.00    +0.000 F 
ATOM     18  C   UNL     1       4.292   2.825  19.641  0.00  0.00    +0.000 A 
ATOM     19  C   UNL     1       3.950   4.181  19.629  0.00  0.00    +0.000 A 
ENDBRANCH   2  13
BRANCH   1  20
ATOM     20  C   UNL     1       3.960   7.139  16.651  0.00  0.00    +0.000 C 
BRANCH  20  21
ATOM     21  C   UNL     1       5.414   6.837  17.002  0.00  0.00    +0.000 C 
BRANCH  21  23
ATOM     22  O   UNL     1       6.080   4.511  16.981  0.00  0.00    +0.000 OA
ATOM     23  C   UNL     1       5.871   5.547  16.359  0.00  0.00    +0.000 C 
ATOM     24  N   UNL     1       6.003   5.639  14.992  0.00  0.00    +0.000 N 
ATOM     25  H   UNL     1       6.033   6.556  14.556  0.00  0.00    +0.000 HD
BRANCH  24  26
ATOM     26  C   UNL     1       6.502   4.526  14.212  0.00  0.00    +0.000 C 
ATOM     27  C   UNL     1       5.453   3.853  13.325  0.00  0.00    +0.000 C 
ATOM     28  C   UNL     1       6.277   3.284  12.183  0.00  0.00    +0.000 C 
ATOM     29  N   UNL     1       7.349   4.223  12.039  0.00  0.00    +0.000 N 
ATOM     30  C   UNL     1       7.528   4.987  13.177  0.00  0.00    +0.000 C 
ATOM     31  O   UNL     1       8.367   5.859  13.322  0.00  0.00    +0.000 OA
ATOM     32  H   UNL     1       7.955   4.323  11.233  0.00  0.00    +0.000 HD
ENDBRANCH  24  26
ENDBRANCH  21  23
ENDBRANCH  20  21
ENDBRANCH   1  20
TORSDOF 5
ENDMDL
MODEL 3
REMARK VINA RESULT:      -8.8      1.039      1.390
REMARK  Name = 
REMARK  5 active torsions:
REMARK  status: ('A' for Active; 'I' for Inactive)
REMARK    1  A    between atoms: C_2  and  C_3
REMARK    2  A    between atoms: C_3  and  C_4
REMARK    3  A    between atoms: C_4  and  C_5
REMARK    4  A    between atoms: C_6  and  C_7
REMARK    5  A    between atoms: N_23  and  C_24
REMARK                            x       y       z     vdW  Elec       q    Type
REMARK                         _______ _______ _______ _____ _____    ______ ____
ROOT
ATOM      1  C   UNL     1       3.877   5.767  19.044  0.00  0.00    +0.000 A 
ATOM      2  C   UNL     1       2.702   6.371  19.497  0.00  0.00    +0.000 A 
ATOM      3  N   UNL     1       2.060   5.434  20.281  0.00  0.00    +0.000 N 
ATOM      4  C   UNL     1       2.748   4.247  20.318  0.00  0.00    +0.000 A 
ATOM      5  C   UNL     1       2.448   3.041  20.968  0.00  0.00    +0.000 A 
ATOM      6 CL   UNL     1       1.035   2.883  21.933  0.00  0.00    +0.000 Cl
ATOM      7  C   UNL     1       3.322   1.968  20.813  0.00  0.00    +0.000 A 
ATOM      8  C   UNL     1       4.457   2.115  20.032  0.00  0.00    +0.000 A 
ATOM      9  F   UNL     1       5.286   1.072  19.882  0.00  0.00    +0.000 F 
ATOM     10  C   UNL     1       4.763   3.320  19.394  0.00  0.00    +0.000 A 
ATOM     11  C   UNL     1       3.888   4.416  19.540  0.00  0.00    +0.000 A 
ATOM     12  H   UNL     1       1.174   5.579  20.745  0.00  0.00    +0.000 HD
ENDROOT
BRANCH   2  13
ATOM     13  C   UNL     1       2.120   7.706  19.277  0.00  0.00    +0.000 A 
ATOM     14  C   UNL     1       2.210   8.338  18.026  0.00  0.00    +0.000 A 
ATOM     15  C   UNL     1       1.681   9.615  17.822  0.00  0.00    +0.000 A 
ATOM     16  C   UNL     1       1.025  10.256  18.862  0.00  0.00    +0.000 A 
ATOM     17  F   UNL     1       0.506  11.475  18.664  0.00  0.00    +0.000 F 
ATOM     18  C   UNL     1       0.898   9.649  20.103  0.00  0.00    +0.000 A 
ATOM     19  C   UNL     1       1.452   8.382  20.313  0.00  0.00    +0.000 A 
ENDBRANCH   2  13
BRANCH   1  20
ATOM     20  C   UNL     1       4.955   6.362  18.179  0.00  0.00    +0.000 C 
BRANCH  20  21
ATOM     21  C   UNL     1       4.680   6.217  16.685  0.00  0.00    +0.000 C 
BRANCH  21  23
ATOM     22  O   UNL     1       6.445   4.563  16.686  0.00  0.00    +0.000 OA
ATOM     23  C   UNL     1       5.578   5.168  16.066  0.00  0.00    +0.000 C 
ATOM     24  N   UNL     1       5.305   4.936  14.738  0.00  0.00    +0.000 N 
ATOM     25  H   UNL     1       4.739   5.604  14.222  0.00  0.00    +0.000 HD
BRANCH  24  26
ATOM     26  C   UNL     1       6.110   4.019  13.959  0.00  0.00    +0.000 C 
ATOM     27  C   UNL     1       5.386   3.400  12.762  0.00  0.00    +0.000 C 
ATOM     28  C   UNL     1       6.513   3.107  11.787  0.00  0.00    +0.000 C 
ATOM     29  N   UNL     1       7.454   4.158  12.034  0.00  0.00    +0.000 N 
ATOM     30  C   UNL     1       7.271   4.740  13.274  0.00  0.00    +0.000 C 
ATOM     31  O   UNL     1       7.932   5.656  13.734  0.00  0.00    +0.000 OA
ATOM     32  H   UNL     1       8.207   4.446  11.420  0.00  0.00    +0.000 HD
ENDBRANCH  24  26
ENDBRANCH  21  23
ENDBRANCH  20  21
ENDBRANCH   1  20
TORSDOF 5
ENDMDL
MODEL 4
REMARK VINA RESULT:      -8.4      1.111      1.511
REMARK  Name = 
REMARK  5 active torsions:
REMARK  status: ('A' for Active; 'I' for Inactive)
REMARK    1  A    between atoms: C_2  and  C_3
REMARK    2  A    between atoms: C_3  and  C_4
REMARK    3  A    between atoms: C_4  and  C_5
REMARK    4  A    between atoms: C_6  and  C_7
REMARK    5  A    between atoms: N_23  and  C_24
REMARK                            x       y       z     vdW  Elec       q    Type
REMARK                         _______ _______ _______ _____ _____    ______ ____
ROOT
ATOM      1  C   UNL     1       2.865   6.167  18.538  0.00  0.00    +0.000 A 
ATOM      2  C   UNL     1       2.116   6.650  19.614  0.00  0.00    +0.000 A 
ATOM      3  N   UNL     1       1.789   5.552  20.384  0.00  0.00    +0.000 N 
ATOM      4  C   UNL     1       2.260   4.387  19.832  0.00  0.00    +0.000 A 
ATOM      5  C   UNL     1       2.138   3.059  20.267  0.00  0.00    +0.000 A 
ATOM      6 CL   UNL     1       1.315   2.678  21.726  0.00  0.00    +0.000 Cl
ATOM      7  C   UNL     1       2.700   2.052  19.487  0.00  0.00    +0.000 A 
ATOM      8  C   UNL     1       3.361   2.379  18.314  0.00  0.00    +0.000 A 
ATOM      9  F   UNL     1       3.888   1.399  17.567  0.00  0.00    +0.000 F 
ATOM     10  C   UNL     1       3.493   3.702  17.886  0.00  0.00    +0.000 A 
ATOM     11  C   UNL     1       2.929   4.736  18.663  0.00  0.00    +0.000 A 
ATOM     12  H   UNL     1       1.240   5.584  21.231  0.00  0.00    +0.000 HD
ENDROOT
BRANCH   2  13
ATOM     13  C   UNL     1       1.674   8.003  19.991  0.00  0.00    +0.000 A 
ATOM     14  C   UNL     1       1.502   9.006  19.023  0.00  0.00    +0.000 A 
ATOM     15  C   UNL     1       1.107  10.297  19.382  0.00  0.00    +0.000 A 
ATOM     16  C   UNL     1       0.846  10.586  20.713  0.00  0.00    +0.000 A 
ATOM     17  F   UNL     1       0.455  11.819  21.057  0.00  0.00    +0.000 F 
ATOM     18  C   UNL     1       0.982   9.611  21.691  0.00  0.00    +0.000 A 
ATOM     19  C   UNL     1       1.404   8.326  21.333  0.00  0.00    +0.000 A 
ENDBRANCH   2  13
BRANCH   1  20
ATOM     20  C   UNL     1       3.495   6.950  17.418  0.00  0.00    +0.000 C 
BRANCH  20  21
ATOM     21  C   UNL     1       5.005   6.757  17.321  0.00  0.00    +0.000 C 
BRANCH  21  23
ATOM     22  O   UNL     1       5.163   6.619  14.910  0.00  0.00    +0.000 OA
ATOM     23  C   UNL     1       5.387   6.115  16.005  0.00  0.00    +0.000 C 
ATOM     24  N   UNL     1       6.043   4.915  16.158  0.00  0.00    +0.000 N 
ATOM     25  H   UNL     1       6.010   4.441  17.055  0.00  0.00    +0.000 HD
BRANCH  24  26
ATOM     26  C   UNL     1       6.421   4.118  15.010  0.00  0.00    +0.000 C 
ATOM     27  C   UNL     1       5.260   3.746  14.087  0.00  0.00    +0.000 C 
ATOM     28  C   UNL     1       5.929   3.586  12.733  0.00  0.00    +0.000 C 
ATOM     29  N   UNL     1       6.997   4.540  12.769  0.00  0.00    +0.000 N 
ATOM     30  C   UNL     1       7.327   4.903  14.061  0.00  0.00    +0.000 C 
ATOM     31  O   UNL     1       8.196   5.698  14.375  0.00  0.00    +0.000 OA
ATOM     32  H   UNL     1       7.505   4.903  11.971  0.00  0.00    +0.000 HD
ENDBRANCH  24  26
ENDBRANCH  21  23
ENDBRANCH  20  21
ENDBRANCH   1  20
TORSDOF 5
ENDMDL
MODEL 5
REMARK VINA RESULT:      -8.4      2.004      3.370
REMARK  Name = 
REMARK  5 active torsions:
REMARK  status: ('A' for Active; 'I' for Inactive)
REMARK    1  A    between atoms: C_2  and  C_3
REMARK    2  A    between atoms: C_3  and  C_4
REMARK    3  A    between atoms: C_4  and  C_5
REMARK    4  A    between atoms: C_6  and  C_7
REMARK    5  A    between atoms: N_23  and  C_24
REMARK                            x       y       z     vdW  Elec       q    Type
REMARK                         _______ _______ _______ _____ _____    ______ ____
ROOT
ATOM      1  C   UNL     1       3.189   5.838  18.092  0.00  0.00    +0.000 A 
ATOM      2  C   UNL     1       2.347   6.439  19.031  0.00  0.00    +0.000 A 
ATOM      3  N   UNL     1       1.908   5.429  19.862  0.00  0.00    +0.000 N 
ATOM      4  C   UNL     1       2.395   4.206  19.475  0.00  0.00    +0.000 A 
ATOM      5  C   UNL     1       2.187   2.929  20.017  0.00  0.00    +0.000 A 
ATOM      6 CL   UNL     1       1.205   2.710  21.410  0.00  0.00    +0.000 Cl
ATOM      7  C   UNL     1       2.794   1.839  19.400  0.00  0.00    +0.000 A 
ATOM      8  C   UNL     1       3.583   2.036  18.279  0.00  0.00    +0.000 A 
ATOM      9  F   UNL     1       4.154   0.977  17.687  0.00  0.00    +0.000 F 
ATOM     10  C   UNL     1       3.801   3.309  17.745  0.00  0.00    +0.000 A 
ATOM     11  C   UNL     1       3.194   4.425  18.357  0.00  0.00    +0.000 A 
ATOM     12  H   UNL     1       1.275   5.555  20.639  0.00  0.00    +0.000 HD
ENDROOT
BRANCH   2  13
ATOM     13  C   UNL     1       1.912   7.832  19.230  0.00  0.00    +0.000 A 
ATOM     14  C   UNL     1       1.470   8.282  20.485  0.00  0.00    +0.000 A 
ATOM     15  C   UNL     1       1.033   9.596  20.669  0.00  0.00    +0.000 A 
ATOM     16  C   UNL     1       1.068  10.482  19.603  0.00  0.00    +0.000 A 
ATOM     17  F   UNL     1       0.662  11.746  19.781  0.00  0.00    +0.000 F 
ATOM     18  C   UNL     1       1.522  10.076  18.357  0.00  0.00    +0.000 A 
ATOM     19  C   UNL     1       1.934   8.753  18.168  0.00  0.00    +0.000 A 
ENDBRANCH   2  13
BRANCH   1  20
ATOM     20  C   UNL     1       3.956   6.495  16.976  0.00  0.00    +0.000 C 
BRANCH  20  21
ATOM     21  C   UNL     1       4.954   5.561  16.298  0.00  0.00    +0.000 C 
BRANCH  21  23
ATOM     22  O   UNL     1       7.331   5.591  15.846  0.00  0.00    +0.000 OA
ATOM     23  C   UNL     1       6.359   6.116  16.379  0.00  0.00    +0.000 C 
ATOM     24  N   UNL     1       6.438   7.292  17.090  0.00  0.00    +0.000 N 
ATOM     25  H   UNL     1       5.663   7.564  17.687  0.00  0.00    +0.000 HD
BRANCH  24  26
ATOM     26  C   UNL     1       7.713   7.931  17.337  0.00  0.00    +0.000 C 
ATOM     27  C   UNL     1       7.635   9.448  17.520  0.00  0.00    +0.000 C 
ATOM     28  C   UNL     1       8.828   9.752  18.409  0.00  0.00    +0.000 C 
ATOM     29  N   UNL     1       8.942   8.585  19.232  0.00  0.00    +0.000 N 
ATOM     30  C   UNL     1       8.307   7.492  18.675  0.00  0.00    +0.000 C 
ATOM     31  O   UNL     1       8.249   6.377  19.166  0.00  0.00    +0.000 OA
ATOM     32  H   UNL     1       9.452   8.514  20.105  0.00  0.00    +0.000 HD
ENDBRANCH  24  26
ENDBRANCH  21  23
ENDBRANCH  20  21
ENDBRANCH   1  20
TORSDOF 5
ENDMDL
MODEL 6
REMARK VINA RESULT:      -8.2      3.656      7.185
REMARK  Name = 
REMARK  5 active torsions:
REMARK  status: ('A' for Active; 'I' for Inactive)
REMARK    1  A    between atoms: C_2  and  C_3
REMARK    2  A    between atoms: C_3  and  C_4
REMARK    3  A    between atoms: C_4  and  C_5
REMARK    4  A    between atoms: C_6  and  C_7
REMARK    5  A    between atoms: N_23  and  C_24
REMARK                            x       y       z     vdW  Elec       q    Type
REMARK                         _______ _______ _______ _____ _____    ______ ____
ROOT
ATOM      1  C   UNL     1       3.417   4.606  18.187  0.00  0.00    +0.000 A 
ATOM      2  C   UNL     1       4.624   4.086  17.713  0.00  0.00    +0.000 A 
ATOM      3  N   UNL     1       4.975   3.070  18.578  0.00  0.00    +0.000 N 
ATOM      4  C   UNL     1       4.073   2.942  19.605  0.00  0.00    +0.000 A 
ATOM      5  C   UNL     1       4.056   2.065  20.698  0.00  0.00    +0.000 A 
ATOM      6 CL   UNL     1       5.288   0.884  20.904  0.00  0.00    +0.000 Cl
ATOM      7  C   UNL     1       3.017   2.171  21.619  0.00  0.00    +0.000 A 
ATOM      8  C   UNL     1       2.032   3.128  21.435  0.00  0.00    +0.000 A 
ATOM      9  F   UNL     1       1.042   3.228  22.333  0.00  0.00    +0.000 F 
ATOM     10  C   UNL     1       2.041   3.995  20.339  0.00  0.00    +0.000 A 
ATOM     11  C   UNL     1       3.087   3.901  19.397  0.00  0.00    +0.000 A 
ATOM     12  H   UNL     1       5.811   2.507  18.499  0.00  0.00    +0.000 HD
ENDROOT
BRANCH   2  13
ATOM     13  C   UNL     1       5.473   4.433  16.562  0.00  0.00    +0.000 A 
ATOM     14  C   UNL     1       6.636   5.203  16.724  0.00  0.00    +0.000 A 
ATOM     15  C   UNL     1       7.429   5.554  15.628  0.00  0.00    +0.000 A 
ATOM     16  C   UNL     1       7.082   5.108  14.363  0.00  0.00    +0.000 A 
ATOM     17  F   UNL     1       7.847   5.433  13.314  0.00  0.00    +0.000 F 
ATOM     18  C   UNL     1       5.952   4.325  14.172  0.00  0.00    +0.000 A 
ATOM     19  C   UNL     1       5.145   3.996  15.266  0.00  0.00    +0.000 A 
ENDBRANCH   2  13
BRANCH   1  20
ATOM     20  C   UNL     1       2.584   5.711  17.595  0.00  0.00    +0.000 C 
BRANCH  20  21
ATOM     21  C   UNL     1       3.134   7.104  17.885  0.00  0.00    +0.000 C 
BRANCH  21  23
ATOM     22  O   UNL     1       2.131   7.526  20.046  0.00  0.00    +0.000 OA
ATOM     23  C   UNL     1       2.252   7.842  18.868  0.00  0.00    +0.000 C 
ATOM     24  N   UNL     1       1.615   8.930  18.315  0.00  0.00    +0.000 N 
ATOM     25  H   UNL     1       1.573   9.020  17.304  0.00  0.00    +0.000 HD
BRANCH  24  26
ATOM     26  C   UNL     1       0.673   9.715  19.083  0.00  0.00    +0.000 C 
ATOM     27  C   UNL     1       1.238  11.025  19.632  0.00  0.00    +0.000 C 
ATOM     28  C   UNL     1       0.013  11.917  19.736  0.00  0.00    +0.000 C 
ATOM     29  N   UNL     1      -0.811  11.487  18.646  0.00  0.00    +0.000 N 
ATOM     30  C   UNL     1      -0.475  10.220  18.208  0.00  0.00    +0.000 C 
ATOM     31  O   UNL     1      -1.014   9.618  17.295  0.00  0.00    +0.000 OA
ATOM     32  H   UNL     1      -1.584  12.000  18.240  0.00  0.00    +0.000 HD
ENDBRANCH  24  26
ENDBRANCH  21  23
ENDBRANCH  20  21
ENDBRANCH   1  20
TORSDOF 5
ENDMDL
MODEL 7
REMARK VINA RESULT:      -8.1      4.212      6.715
REMARK  Name = 
REMARK  5 active torsions:
REMARK  status: ('A' for Active; 'I' for Inactive)
REMARK    1  A    between atoms: C_2  and  C_3
REMARK    2  A    between atoms: C_3  and  C_4
REMARK    3  A    between atoms: C_4  and  C_5
REMARK    4  A    between atoms: C_6  and  C_7
REMARK    5  A    between atoms: N_23  and  C_24
REMARK                            x       y       z     vdW  Elec       q    Type
REMARK                         _______ _______ _______ _____ _____    ______ ____
ROOT
ATOM      1  C   UNL     1       2.538   7.228  18.972  0.00  0.00    +0.000 A 
ATOM      2  C   UNL     1       1.974   7.037  20.236  0.00  0.00    +0.000 A 
ATOM      3  N   UNL     1       2.258   5.736  20.596  0.00  0.00    +0.000 N 
ATOM      4  C   UNL     1       2.942   5.073  19.608  0.00  0.00    +0.000 A 
ATOM      5  C   UNL     1       3.404   3.750  19.550  0.00  0.00    +0.000 A 
ATOM      6 CL   UNL     1       3.171   2.674  20.869  0.00  0.00    +0.000 Cl
ATOM      7  C   UNL     1       4.056   3.325  18.396  0.00  0.00    +0.000 A 
ATOM      8  C   UNL     1       4.235   4.209  17.344  0.00  0.00    +0.000 A 
ATOM      9  F   UNL     1       4.856   3.785  16.234  0.00  0.00    +0.000 F 
ATOM     10  C   UNL     1       3.787   5.531  17.405  0.00  0.00    +0.000 A 
ATOM     11  C   UNL     1       3.123   5.978  18.567  0.00  0.00    +0.000 A 
ATOM     12  H   UNL     1       1.971   5.301  21.462  0.00  0.00    +0.000 HD
ENDROOT
BRANCH   2  13
ATOM     13  C   UNL     1       1.205   7.923  21.126  0.00  0.00    +0.000 A 
ATOM     14  C   UNL     1       1.852   8.769  22.043  0.00  0.00    +0.000 A 
ATOM     15  C   UNL     1       1.123   9.591  22.905  0.00  0.00    +0.000 A 
ATOM     16  C   UNL     1      -0.262   9.600  22.833  0.00  0.00    +0.000 A 
ATOM     17  F   UNL     1      -0.961  10.398  23.650  0.00  0.00    +0.000 F 
ATOM     18  C   UNL     1      -0.930   8.795  21.922  0.00  0.00    +0.000 A 
ATOM     19  C   UNL     1      -0.200   7.952  21.077  0.00  0.00    +0.000 A 
ENDBRANCH   2  13
BRANCH   1  20
ATOM     20  C   UNL     1       2.545   8.479  18.136  0.00  0.00    +0.000 C 
BRANCH  20  21
ATOM     21  C   UNL     1       1.181   8.817  17.543  0.00  0.00    +0.000 C 
BRANCH  21  23
ATOM     22  O   UNL     1      -0.579  10.278  18.331  0.00  0.00    +0.000 OA
ATOM     23  C   UNL     1       0.618  10.079  18.159  0.00  0.00    +0.000 C 
ATOM     24  N   UNL     1       1.590  10.977  18.540  0.00  0.00    +0.000 N 
ATOM     25  H   UNL     1       2.534  10.867  18.184  0.00  0.00    +0.000 HD
BRANCH  24  26
ATOM     26  C   UNL     1       1.239  12.273  19.081  0.00  0.00    +0.000 C 
ATOM     27  C   UNL     1       0.978  12.281  20.588  0.00  0.00    +0.000 C 
ATOM     28  C   UNL     1       1.334  13.700  20.995  0.00  0.00    +0.000 C 
ATOM     29  N   UNL     1       2.392  14.054  20.096  0.00  0.00    +0.000 N 
ATOM     30  C   UNL     1       2.403  13.257  18.967  0.00  0.00    +0.000 C 
ATOM     31  O   UNL     1       3.197  13.343  18.046  0.00  0.00    +0.000 OA
ATOM     32  H   UNL     1       3.050  14.815  20.215  0.00  0.00    +0.000 HD
ENDBRANCH  24  26
ENDBRANCH  21  23
ENDBRANCH  20  21
ENDBRANCH   1  20
TORSDOF 5
ENDMDL
MODEL 8
REMARK VINA RESULT:      -8.0      1.535      2.224
REMARK  Name = 
REMARK  5 active torsions:
REMARK  status: ('A' for Active; 'I' for Inactive)
REMARK    1  A    between atoms: C_2  and  C_3
REMARK    2  A    between atoms: C_3  and  C_4
REMARK    3  A    between atoms: C_4  and  C_5
REMARK    4  A    between atoms: C_6  and  C_7
REMARK    5  A    between atoms: N_23  and  C_24
REMARK                            x       y       z     vdW  Elec       q    Type
REMARK                         _______ _______ _______ _____ _____    ______ ____
ROOT
ATOM      1  C   UNL     1       2.049   6.362  18.883  0.00  0.00    +0.000 A 
ATOM      2  C   UNL     1       1.526   6.760  20.116  0.00  0.00    +0.000 A 
ATOM      3  N   UNL     1       1.371   5.609  20.862  0.00  0.00    +0.000 N 
ATOM      4  C   UNL     1       1.733   4.491  20.152  0.00  0.00    +0.000 A 
ATOM      5  C   UNL     1       1.714   3.137  20.513  0.00  0.00    +0.000 A 
ATOM      6 CL   UNL     1       1.205   2.647  22.080  0.00  0.00    +0.000 Cl
ATOM      7  C   UNL     1       2.118   2.193  19.573  0.00  0.00    +0.000 A 
ATOM      8  C   UNL     1       2.527   2.608  18.316  0.00  0.00    +0.000 A 
ATOM      9  F   UNL     1       2.903   1.689  17.415  0.00  0.00    +0.000 F 
ATOM     10  C   UNL     1       2.558   3.958  17.958  0.00  0.00    +0.000 A 
ATOM     11  C   UNL     1       2.151   4.928  18.899  0.00  0.00    +0.000 A 
ATOM     12  H   UNL     1       1.003   5.575  21.802  0.00  0.00    +0.000 HD
ENDROOT
BRANCH   2  13
ATOM     13  C   UNL     1       1.155   8.076  20.662  0.00  0.00    +0.000 A 
ATOM     14  C   UNL     1       1.041   9.201  19.829  0.00  0.00    +0.000 A 
ATOM     15  C   UNL     1       0.714  10.456  20.350  0.00  0.00    +0.000 A 
ATOM     16  C   UNL     1       0.464  10.588  21.706  0.00  0.00    +0.000 A 
ATOM     17  F   UNL     1       0.138  11.787  22.205  0.00  0.00    +0.000 F 
ATOM     18  C   UNL     1       0.544   9.491  22.553  0.00  0.00    +0.000 A 
ATOM     19  C   UNL     1       0.898   8.241  22.035  0.00  0.00    +0.000 A 
ENDBRANCH   2  13
BRANCH   1  20
ATOM     20  C   UNL     1       2.434   7.228  17.714  0.00  0.00    +0.000 C 
BRANCH  20  21
ATOM     21  C   UNL     1       3.888   7.689  17.756  0.00  0.00    +0.000 C 
BRANCH  21  23
ATOM     22  O   UNL     1       5.514   6.004  18.365  0.00  0.00    +0.000 OA
ATOM     23  C   UNL     1       4.831   6.535  17.496  0.00  0.00    +0.000 C 
ATOM     24  N   UNL     1       4.825   6.114  16.185  0.00  0.00    +0.000 N 
ATOM     25  H   UNL     1       4.419   6.713  15.473  0.00  0.00    +0.000 HD
BRANCH  24  26
ATOM     26  C   UNL     1       5.718   5.069  15.732  0.00  0.00    +0.000 C 
ATOM     27  C   UNL     1       5.361   4.478  14.368  0.00  0.00    +0.000 C 
ATOM     28  C   UNL     1       6.701   4.004  13.832  0.00  0.00    +0.000 C 
ATOM     29  N   UNL     1       7.633   4.947  14.372  0.00  0.00    +0.000 N 
ATOM     30  C   UNL     1       7.124   5.611  15.472  0.00  0.00    +0.000 C 
ATOM     31  O   UNL     1       7.706   6.465  16.119  0.00  0.00    +0.000 OA
ATOM     32  H   UNL     1       8.578   5.112  14.045  0.00  0.00    +0.000 HD
ENDBRANCH  24  26
ENDBRANCH  21  23
ENDBRANCH  20  21
ENDBRANCH   1  20
TORSDOF 5
ENDMDL
MODEL 9
REMARK VINA RESULT:      -8.0      1.616      2.241
REMARK  Name = 
REMARK  5 active torsions:
REMARK  status: ('A' for Active; 'I' for Inactive)
REMARK    1  A    between atoms: C_2  and  C_3
REMARK    2  A    between atoms: C_3  and  C_4
REMARK    3  A    between atoms: C_4  and  C_5
REMARK    4  A    between atoms: C_6  and  C_7
REMARK    5  A    between atoms: N_23  and  C_24
REMARK                            x       y       z     vdW  Elec       q    Type
REMARK                         _______ _______ _______ _____ _____    ______ ____
ROOT
ATOM      1  C   UNL     1       2.001   6.391  18.822  0.00  0.00    +0.000 A 
ATOM      2  C   UNL     1       1.534   6.790  20.077  0.00  0.00    +0.000 A 
ATOM      3  N   UNL     1       1.436   5.643  20.838  0.00  0.00    +0.000 N 
ATOM      4  C   UNL     1       1.780   4.525  20.119  0.00  0.00    +0.000 A 
ATOM      5  C   UNL     1       1.802   3.174  20.491  0.00  0.00    +0.000 A 
ATOM      6 CL   UNL     1       1.380   2.689  22.085  0.00  0.00    +0.000 Cl
ATOM      7  C   UNL     1       2.173   2.229  19.539  0.00  0.00    +0.000 A 
ATOM      8  C   UNL     1       2.512   2.640  18.259  0.00  0.00    +0.000 A 
ATOM      9  F   UNL     1       2.858   1.720  17.348  0.00  0.00    +0.000 F 
ATOM     10  C   UNL     1       2.502   3.987  17.890  0.00  0.00    +0.000 A 
ATOM     11  C   UNL     1       2.127   4.958  18.843  0.00  0.00    +0.000 A 
ATOM     12  H   UNL     1       1.116   5.611  21.796  0.00  0.00    +0.000 HD
ENDROOT
BRANCH   2  13
ATOM     13  C   UNL     1       1.169   8.104  20.631  0.00  0.00    +0.000 A 
ATOM     14  C   UNL     1       0.842   8.254  21.989  0.00  0.00    +0.000 A 
ATOM     15  C   UNL     1       0.472   9.497  22.509  0.00  0.00    +0.000 A 
ATOM     16  C   UNL     1       0.459  10.608  21.681  0.00  0.00    +0.000 A 
ATOM     17  F   UNL     1       0.117  11.802  22.182  0.00  0.00    +0.000 F 
ATOM     18  C   UNL     1       0.800  10.498  20.341  0.00  0.00    +0.000 A 
ATOM     19  C   UNL     1       1.145   9.249  19.814  0.00  0.00    +0.000 A 
ENDBRANCH   2  13
BRANCH   1  20
ATOM     20  C   UNL     1       2.312   7.253  17.628  0.00  0.00    +0.000 C 
BRANCH  20  21
ATOM     21  C   UNL     1       3.747   7.770  17.614  0.00  0.00    +0.000 C 
BRANCH  21  23
ATOM     22  O   UNL     1       4.785   7.188  15.508  0.00  0.00    +0.000 OA
ATOM     23  C   UNL     1       4.615   6.938  16.697  0.00  0.00    +0.000 C 
ATOM     24  N   UNL     1       5.226   5.884  17.336  0.00  0.00    +0.000 N 
ATOM     25  H   UNL     1       4.888   5.593  18.249  0.00  0.00    +0.000 HD
BRANCH  24  26
ATOM     26  C   UNL     1       6.037   4.934  16.604  0.00  0.00    +0.000 C 
ATOM     27  C   UNL     1       5.334   4.290  15.408  0.00  0.00    +0.000 C 
ATOM     28  C   UNL     1       6.480   3.954  14.471  0.00  0.00    +0.000 C 
ATOM     29  N   UNL     1       7.431   4.998  14.711  0.00  0.00    +0.000 N 
ATOM     30  C   UNL     1       7.225   5.619  15.929  0.00  0.00    +0.000 C 
ATOM     31  O   UNL     1       7.888   6.538  16.379  0.00  0.00    +0.000 OA
ATOM     32  H   UNL     1       8.202   5.258  14.108  0.00  0.00    +0.000 HD
ENDBRANCH  24  26
ENDBRANCH  21  23
ENDBRANCH  20  21
ENDBRANCH   1  20
TORSDOF 5
ENDMDL
