MODEL 1
REMARK VINA RESULT:      -8.3      0.000      0.000
REMARK  Name = 
REMARK  5 active torsions:
REMARK  status: ('A' for Active; 'I' for Inactive)
REMARK    1  A    between atoms: C_1  and  C_2
REMARK    2  A    between atoms: C_7  and  N_8
REMARK    3  A    between atoms: C_9  and  C_11
REMARK    4  A    between atoms: C_11  and  O_12
REMARK    5  A    between atoms: O_12  and  C_13
REMARK                            x       y       z     vdW  Elec       q    Type
REMARK                         _______ _______ _______ _____ _____    ______ ____
ROOT
ATOM      1  N   UNL     1       4.847   5.498  17.246  0.00  0.00    +0.000 N 
ATOM      2  C   UNL     1       4.624   4.240  16.740  0.00  0.00    +0.000 C 
ATOM      3  O   UNL     1       5.536   3.665  16.139  0.00  0.00    +0.000 OA
ATOM      4  H   UNL     1       5.817   5.792  17.223  0.00  0.00    +0.000 HD
ENDROOT
BRANCH   1  11
ATOM      5  C   UNL     1      -0.249  10.276  20.698  0.00  0.00    +0.000 C 
ATOM      6  C   UNL     1       0.701   9.546  19.799  0.00  0.00    +0.000 A 
ATOM      7  C   UNL     1       0.988  10.018  18.524  0.00  0.00    +0.000 A 
ATOM      8  C   UNL     1       1.888   9.304  17.739  0.00  0.00    +0.000 A 
ATOM      9  C   UNL     1       2.478   8.140  18.243  0.00  0.00    +0.000 A 
ATOM     10  C   UNL     1       3.392   7.390  17.489  0.00  0.00    +0.000 A 
ATOM     11  C   UNL     1       3.947   6.229  18.021  0.00  0.00    +0.000 A 
ATOM     12  C   UNL     1       3.619   5.818  19.308  0.00  0.00    +0.000 A 
ATOM     13  C   UNL     1       2.706   6.573  20.052  0.00  0.00    +0.000 A 
ATOM     14  C   UNL     1       2.125   7.731  19.545  0.00  0.00    +0.000 A 
ATOM     15  N   UNL     1       1.258   8.419  20.303  0.00  0.00    +0.000 NA
ENDBRANCH   1  11
BRANCH   2  16
ATOM     16  C   UNL     1       3.257   3.592  16.946  0.00  0.00    +0.000 C 
BRANCH  16  17
ATOM     17  O   UNL     1       3.438   2.522  17.868  0.00  0.00    +0.000 OA
BRANCH  17  18
ATOM     18  C   UNL     1       2.824   2.633  19.085  0.00  0.00    +0.000 A 
ATOM     19  C   UNL     1       1.459   2.932  19.012  0.00  0.00    +0.000 A 
ATOM     20  C   UNL     1       0.694   3.066  20.173  0.00  0.00    +0.000 A 
ATOM     21  C   UNL     1       1.288   2.904  21.423  0.00  0.00    +0.000 A 
ATOM     22  C   UNL     1       2.648   2.613  21.508  0.00  0.00    +0.000 A 
ATOM     23  C   UNL     1       3.408   2.481  20.346  0.00  0.00    +0.000 A 
ATOM     24  F   UNL     1       4.712   2.204  20.486  0.00  0.00    +0.000 F 
ENDBRANCH  17  18
ENDBRANCH  16  17
ENDBRANCH   2  16
TORSDOF 4
ENDMDL
MODEL 2
REMARK VINA RESULT:      -8.2      2.750      6.134
REMARK  Name = 
REMARK  5 active torsions:
REMARK  status: ('A' for Active; 'I' for Inactive)
REMARK    1  A    between atoms: C_1  and  C_2
REMARK    2  A    between atoms: C_7  and  N_8
REMARK    3  A    between atoms: C_9  and  C_11
REMARK    4  A    between atoms: C_11  and  O_12
REMARK    5  A    between atoms: O_12  and  C_13
REMARK                            x       y       z     vdW  Elec       q    Type
REMARK                         _______ _______ _______ _____ _____    ______ ____
ROOT
ATOM      1  N   UNL     1       3.014   2.694  20.553  0.00  0.00    +0.000 N 
ATOM      2  C   UNL     1       2.042   3.388  21.232  0.00  0.00    +0.000 C 
ATOM      3  O   UNL     1       1.706   3.004  22.356  0.00  0.00    +0.000 OA
ATOM      4  H   UNL     1       3.502   2.003  21.111  0.00  0.00    +0.000 HD
ENDROOT
BRANCH   1  11
ATOM      5  C   UNL     1       6.943   5.078  14.261  0.00  0.00    +0.000 C 
ATOM      6  C   UNL     1       6.436   4.708  15.620  0.00  0.00    +0.000 A 
ATOM      7  C   UNL     1       7.199   4.940  16.759  0.00  0.00    +0.000 A 
ATOM      8  C   UNL     1       6.670   4.587  17.995  0.00  0.00    +0.000 A 
ATOM      9  C   UNL     1       5.397   4.012  18.068  0.00  0.00    +0.000 A 
ATOM     10  C   UNL     1       4.822   3.642  19.293  0.00  0.00    +0.000 A 
ATOM     11  C   UNL     1       3.558   3.060  19.322  0.00  0.00    +0.000 A 
ATOM     12  C   UNL     1       2.848   2.862  18.144  0.00  0.00    +0.000 A 
ATOM     13  C   UNL     1       3.429   3.233  16.927  0.00  0.00    +0.000 A 
ATOM     14  C   UNL     1       4.694   3.807  16.863  0.00  0.00    +0.000 A 
ATOM     15  N   UNL     1       5.203   4.148  15.669  0.00  0.00    +0.000 NA
ENDBRANCH   1  11
BRANCH   2  16
ATOM     16  C   UNL     1       1.415   4.616  20.577  0.00  0.00    +0.000 C 
BRANCH  16  17
ATOM     17  O   UNL     1       2.306   5.705  20.795  0.00  0.00    +0.000 OA
BRANCH  17  18
ATOM     18  C   UNL     1       2.188   6.787  19.967  0.00  0.00    +0.000 A 
ATOM     19  C   UNL     1       2.788   6.617  18.715  0.00  0.00    +0.000 A 
ATOM     20  C   UNL     1       2.741   7.633  17.756  0.00  0.00    +0.000 A 
ATOM     21  C   UNL     1       2.092   8.833  18.043  0.00  0.00    +0.000 A 
ATOM     22  C   UNL     1       1.496   9.015  19.289  0.00  0.00    +0.000 A 
ATOM     23  C   UNL     1       1.547   7.998  20.243  0.00  0.00    +0.000 A 
ATOM     24  F   UNL     1       0.961   8.228  21.427  0.00  0.00    +0.000 F 
ENDBRANCH  17  18
ENDBRANCH  16  17
ENDBRANCH   2  16
TORSDOF 4
ENDMDL
MODEL 3
REMARK VINA RESULT:      -8.1      2.562      6.084
REMARK  Name = 
REMARK  5 active torsions:
REMARK  status: ('A' for Active; 'I' for Inactive)
REMARK    1  A    between atoms: C_1  and  C_2
REMARK    2  A    between atoms: C_7  and  N_8
REMARK    3  A    between atoms: C_9  and  C_11
REMARK    4  A    between atoms: C_11  and  O_12
REMARK    5  A    between atoms: O_12  and  C_13
REMARK                            x       y       z     vdW  Elec       q    Type
REMARK                         _______ _______ _______ _____ _____    ______ ____
ROOT
ATOM      1  N   UNL     1       3.044   2.701  20.556  0.00  0.00    +0.000 N 
ATOM      2  C   UNL     1       2.054   3.402  21.200  0.00  0.00    +0.000 C 
ATOM      3  O   UNL     1       1.704   3.046  22.328  0.00  0.00    +0.000 OA
ATOM      4  H   UNL     1       3.530   2.031  21.140  0.00  0.00    +0.000 HD
ENDROOT
BRANCH   1  11
ATOM      5  C   UNL     1       7.020   5.012  14.266  0.00  0.00    +0.000 C 
ATOM      6  C   UNL     1       6.493   4.678  15.627  0.00  0.00    +0.000 A 
ATOM      7  C   UNL     1       7.203   5.014  16.774  0.00  0.00    +0.000 A 
ATOM      8  C   UNL     1       6.657   4.691  18.011  0.00  0.00    +0.000 A 
ATOM      9  C   UNL     1       5.420   4.041  18.076  0.00  0.00    +0.000 A 
ATOM     10  C   UNL     1       4.831   3.697  19.301  0.00  0.00    +0.000 A 
ATOM     11  C   UNL     1       3.604   3.039  19.323  0.00  0.00    +0.000 A 
ATOM     12  C   UNL     1       2.946   2.738  18.137  0.00  0.00    +0.000 A 
ATOM     13  C   UNL     1       3.542   3.084  16.920  0.00  0.00    +0.000 A 
ATOM     14  C   UNL     1       4.771   3.733  16.863  0.00  0.00    +0.000 A 
ATOM     15  N   UNL     1       5.296   4.045  15.669  0.00  0.00    +0.000 NA
ENDBRANCH   1  11
BRANCH   2  16
ATOM     16  C   UNL     1       1.424   4.605  20.501  0.00  0.00    +0.000 C 
BRANCH  16  17
ATOM     17  O   UNL     1       2.258   5.728  20.773  0.00  0.00    +0.000 OA
BRANCH  17  18
ATOM     18  C   UNL     1       2.025   6.869  20.056  0.00  0.00    +0.000 A 
ATOM     19  C   UNL     1       1.376   7.876  20.779  0.00  0.00    +0.000 A 
ATOM     20  C   UNL     1       1.079   9.105  20.184  0.00  0.00    +0.000 A 
ATOM     21  C   UNL     1       1.428   9.339  18.856  0.00  0.00    +0.000 A 
ATOM     22  C   UNL     1       2.070   8.341  18.125  0.00  0.00    +0.000 A 
ATOM     23  C   UNL     1       2.363   7.116  18.723  0.00  0.00    +0.000 A 
ATOM     24  F   UNL     1       2.977   6.190  17.972  0.00  0.00    +0.000 F 
ENDBRANCH  17  18
ENDBRANCH  16  17
ENDBRANCH   2  16
TORSDOF 4
ENDMDL
MODEL 4
REMARK VINA RESULT:      -8.0      1.027      1.430
REMARK  Name = 
REMARK  5 active torsions:
REMARK  status: ('A' for Active; 'I' for Inactive)
REMARK    1  A    between atoms: C_1  and  C_2
REMARK    2  A    between atoms: C_7  and  N_8
REMARK    3  A    between atoms: C_9  and  C_11
REMARK    4  A    between atoms: C_11  and  O_12
REMARK    5  A    between atoms: O_12  and  C_13
REMARK                            x       y       z     vdW  Elec       q    Type
REMARK                         _______ _______ _______ _____ _____    ______ ____
ROOT
ATOM      1  N   UNL     1       4.886   5.540  17.353  0.00  0.00    +0.000 N 
ATOM      2  C   UNL     1       4.671   4.296  16.813  0.00  0.00    +0.000 C 
ATOM      3  O   UNL     1       5.604   3.717  16.249  0.00  0.00    +0.000 OA
ATOM      4  H   UNL     1       5.860   5.819  17.386  0.00  0.00    +0.000 HD
ENDROOT
BRANCH   1  11
ATOM      5  C   UNL     1      -0.332  10.320  20.614  0.00  0.00    +0.000 C 
ATOM      6  C   UNL     1       0.651   9.590  19.752  0.00  0.00    +0.000 A 
ATOM      7  C   UNL     1       0.988  10.064  18.489  0.00  0.00    +0.000 A 
ATOM      8  C   UNL     1       1.916   9.350  17.739  0.00  0.00    +0.000 A 
ATOM      9  C   UNL     1       2.485   8.185  18.263  0.00  0.00    +0.000 A 
ATOM     10  C   UNL     1       3.426   7.434  17.543  0.00  0.00    +0.000 A 
ATOM     11  C   UNL     1       3.958   6.272  18.095  0.00  0.00    +0.000 A 
ATOM     12  C   UNL     1       3.579   5.859  19.366  0.00  0.00    +0.000 A 
ATOM     13  C   UNL     1       2.640   6.613  20.076  0.00  0.00    +0.000 A 
ATOM     14  C   UNL     1       2.081   7.773  19.549  0.00  0.00    +0.000 A 
ATOM     15  N   UNL     1       1.186   8.461  20.275  0.00  0.00    +0.000 NA
ENDBRANCH   1  11
BRANCH   2  16
ATOM     16  C   UNL     1       3.286   3.665  16.935  0.00  0.00    +0.000 C 
BRANCH  16  17
ATOM     17  O   UNL     1       3.405   2.570  17.838  0.00  0.00    +0.000 OA
BRANCH  17  18
ATOM     18  C   UNL     1       2.723   2.656  19.020  0.00  0.00    +0.000 A 
ATOM     19  C   UNL     1       3.521   2.474  20.155  0.00  0.00    +0.000 A 
ATOM     20  C   UNL     1       2.968   2.543  21.436  0.00  0.00    +0.000 A 
ATOM     21  C   UNL     1       1.606   2.794  21.595  0.00  0.00    +0.000 A 
ATOM     22  C   UNL     1       0.801   2.971  20.472  0.00  0.00    +0.000 A 
ATOM     23  C   UNL     1       1.358   2.899  19.195  0.00  0.00    +0.000 A 
ATOM     24  F   UNL     1       0.537   3.072  18.149  0.00  0.00    +0.000 F 
ENDBRANCH  17  18
ENDBRANCH  16  17
ENDBRANCH   2  16
TORSDOF 4
ENDMDL
MODEL 5
REMARK VINA RESULT:      -7.9      0.789      1.584
REMARK  Name = 
REMARK  5 active torsions:
REMARK  status: ('A' for Active; 'I' for Inactive)
REMARK    1  A    between atoms: C_1  and  C_2
REMARK    2  A    between atoms: C_7  and  N_8
REMARK    3  A    between atoms: C_9  and  C_11
REMARK    4  A    between atoms: C_11  and  O_12
REMARK    5  A    between atoms: O_12  and  C_13
REMARK                            x       y       z     vdW  Elec       q    Type
REMARK                         _______ _______ _______ _____ _____    ______ ____
ROOT
ATOM      1  N   UNL     1       4.752   5.350  17.480  0.00  0.00    +0.000 N 
ATOM      2  C   UNL     1       4.397   4.120  16.980  0.00  0.00    +0.000 C 
ATOM      3  O   UNL     1       5.283   3.312  16.691  0.00  0.00    +0.000 OA
ATOM      4  H   UNL     1       5.731   5.434  17.728  0.00  0.00    +0.000 HD
ENDROOT
BRANCH   1  11
ATOM      5  C   UNL     1      -0.319  10.159  20.927  0.00  0.00    +0.000 C 
ATOM      6  C   UNL     1       0.625   9.071  20.517  0.00  0.00    +0.000 A 
ATOM      7  C   UNL     1       0.855   7.973  21.339  0.00  0.00    +0.000 A 
ATOM      8  C   UNL     1       1.733   6.988  20.900  0.00  0.00    +0.000 A 
ATOM      9  C   UNL     1       2.359   7.120  19.656  0.00  0.00    +0.000 A 
ATOM     10  C   UNL     1       3.250   6.151  19.172  0.00  0.00    +0.000 A 
ATOM     11  C   UNL     1       3.864   6.326  17.934  0.00  0.00    +0.000 A 
ATOM     12  C   UNL     1       3.583   7.446  17.162  0.00  0.00    +0.000 A 
ATOM     13  C   UNL     1       2.694   8.408  17.653  0.00  0.00    +0.000 A 
ATOM     14  C   UNL     1       2.073   8.268  18.890  0.00  0.00    +0.000 A 
ATOM     15  N   UNL     1       1.226   9.219  19.312  0.00  0.00    +0.000 NA
ENDBRANCH   1  11
BRANCH   2  16
ATOM     16  C   UNL     1       2.916   3.792  16.807  0.00  0.00    +0.000 C 
BRANCH  16  17
ATOM     17  O   UNL     1       2.667   2.594  17.536  0.00  0.00    +0.000 OA
BRANCH  17  18
ATOM     18  C   UNL     1       2.421   2.716  18.876  0.00  0.00    +0.000 A 
ATOM     19  C   UNL     1       1.114   3.106  19.185  0.00  0.00    +0.000 A 
ATOM     20  C   UNL     1       0.710   3.262  20.513  0.00  0.00    +0.000 A 
ATOM     21  C   UNL     1       1.613   3.031  21.549  0.00  0.00    +0.000 A 
ATOM     22  C   UNL     1       2.919   2.649  21.253  0.00  0.00    +0.000 A 
ATOM     23  C   UNL     1       3.318   2.495  19.925  0.00  0.00    +0.000 A 
ATOM     24  F   UNL     1       4.588   2.130  19.697  0.00  0.00    +0.000 F 
ENDBRANCH  17  18
ENDBRANCH  16  17
ENDBRANCH   2  16
TORSDOF 4
ENDMDL
MODEL 6
REMARK VINA RESULT:      -7.8      2.961      6.583
REMARK  Name = 
REMARK  5 active torsions:
REMARK  status: ('A' for Active; 'I' for Inactive)
REMARK    1  A    between atoms: C_1  and  C_2
REMARK    2  A    between atoms: C_7  and  N_8
REMARK    3  A    between atoms: C_9  and  C_11
REMARK    4  A    between atoms: C_11  and  O_12
REMARK    5  A    between atoms: O_12  and  C_13
REMARK                            x       y       z     vdW  Elec       q    Type
REMARK                         _______ _______ _______ _____ _____    ______ ____
ROOT
ATOM      1  N   UNL     1       4.251   3.790  19.508  0.00  0.00    +0.000 N 
ATOM      2  C   UNL     1       3.124   4.446  19.942  0.00  0.00    +0.000 C 
ATOM      3  O   UNL     1       2.526   4.019  20.933  0.00  0.00    +0.000 OA
ATOM      4  H   UNL     1       4.599   3.087  20.149  0.00  0.00    +0.000 HD
ENDROOT
BRANCH   1  11
ATOM      5  C   UNL     1       8.184   5.518  13.007  0.00  0.00    +0.000 C 
ATOM      6  C   UNL     1       7.246   5.034  14.069  0.00  0.00    +0.000 A 
ATOM      7  C   UNL     1       6.169   4.213  13.755  0.00  0.00    +0.000 A 
ATOM      8  C   UNL     1       5.339   3.784  14.785  0.00  0.00    +0.000 A 
ATOM      9  C   UNL     1       5.600   4.184  16.100  0.00  0.00    +0.000 A 
ATOM     10  C   UNL     1       4.791   3.775  17.170  0.00  0.00    +0.000 A 
ATOM     11  C   UNL     1       5.077   4.206  18.463  0.00  0.00    +0.000 A 
ATOM     12  C   UNL     1       6.174   5.023  18.706  0.00  0.00    +0.000 A 
ATOM     13  C   UNL     1       6.975   5.426  17.632  0.00  0.00    +0.000 A 
ATOM     14  C   UNL     1       6.710   5.022  16.328  0.00  0.00    +0.000 A 
ATOM     15  N   UNL     1       7.513   5.435  15.335  0.00  0.00    +0.000 NA
ENDBRANCH   1  11
BRANCH   2  16
ATOM     16  C   UNL     1       2.654   5.687  19.187  0.00  0.00    +0.000 C 
BRANCH  16  17
ATOM     17  O   UNL     1       2.380   6.688  20.161  0.00  0.00    +0.000 OA
BRANCH  17  18
ATOM     18  C   UNL     1       1.908   7.890  19.710  0.00  0.00    +0.000 A 
ATOM     19  C   UNL     1       2.267   8.187  18.391  0.00  0.00    +0.000 A 
ATOM     20  C   UNL     1       1.850   9.376  17.787  0.00  0.00    +0.000 A 
ATOM     21  C   UNL     1       1.068  10.283  18.499  0.00  0.00    +0.000 A 
ATOM     22  C   UNL     1       0.709  10.000  19.815  0.00  0.00    +0.000 A 
ATOM     23  C   UNL     1       1.130   8.813  20.414  0.00  0.00    +0.000 A 
ATOM     24  F   UNL     1       0.759   8.593  21.684  0.00  0.00    +0.000 F 
ENDBRANCH  17  18
ENDBRANCH  16  17
ENDBRANCH   2  16
TORSDOF 4
ENDMDL
MODEL 7
REMARK VINA RESULT:      -7.8      3.045      6.585
REMARK  Name = 
REMARK  5 active torsions:
REMARK  status: ('A' for Active; 'I' for Inactive)
REMARK    1  A    between atoms: C_1  and  C_2
REMARK    2  A    between atoms: C_7  and  N_8
REMARK    3  A    between atoms: C_9  and  C_11
REMARK    4  A    between atoms: C_11  and  O_12
REMARK    5  A    between atoms: O_12  and  C_13
REMARK                            x       y       z     vdW  Elec       q    Type
REMARK                         _______ _______ _______ _____ _____    ______ ____
ROOT
ATOM      1  N   UNL     1       4.202   4.183  19.475  0.00  0.00    +0.000 N 
ATOM      2  C   UNL     1       3.035   4.821  19.820  0.00  0.00    +0.000 C 
ATOM      3  O   UNL     1       2.441   4.474  20.844  0.00  0.00    +0.000 OA
ATOM      4  H   UNL     1       4.573   3.573  20.195  0.00  0.00    +0.000 HD
ENDROOT
BRANCH   1  11
ATOM      5  C   UNL     1       8.163   5.396  12.876  0.00  0.00    +0.000 C 
ATOM      6  C   UNL     1       7.231   4.982  13.972  0.00  0.00    +0.000 A 
ATOM      7  C   UNL     1       6.205   4.073  13.737  0.00  0.00    +0.000 A 
ATOM      8  C   UNL     1       5.379   3.716  14.797  0.00  0.00    +0.000 A 
ATOM      9  C   UNL     1       5.593   4.272  16.063  0.00  0.00    +0.000 A 
ATOM     10  C   UNL     1       4.787   3.940  17.161  0.00  0.00    +0.000 A 
ATOM     11  C   UNL     1       5.025   4.525  18.402  0.00  0.00    +0.000 A 
ATOM     12  C   UNL     1       6.073   5.423  18.567  0.00  0.00    +0.000 A 
ATOM     13  C   UNL     1       6.871   5.748  17.466  0.00  0.00    +0.000 A 
ATOM     14  C   UNL     1       6.653   5.189  16.211  0.00  0.00    +0.000 A 
ATOM     15  N   UNL     1       7.452   5.534  15.189  0.00  0.00    +0.000 NA
ENDBRANCH   1  11
BRANCH   2  16
ATOM     16  C   UNL     1       2.516   5.945  18.927  0.00  0.00    +0.000 C 
BRANCH  16  17
ATOM     17  O   UNL     1       2.858   7.173  19.562  0.00  0.00    +0.000 OA
BRANCH  17  18
ATOM     18  C   UNL     1       1.872   8.113  19.681  0.00  0.00    +0.000 A 
ATOM     19  C   UNL     1       1.248   8.132  20.933  0.00  0.00    +0.000 A 
ATOM     20  C   UNL     1       0.227   9.046  21.209  0.00  0.00    +0.000 A 
ATOM     21  C   UNL     1      -0.180   9.952  20.232  0.00  0.00    +0.000 A 
ATOM     22  C   UNL     1       0.431   9.938  18.980  0.00  0.00    +0.000 A 
ATOM     23  C   UNL     1       1.448   9.023  18.709  0.00  0.00    +0.000 A 
ATOM     24  F   UNL     1       1.998   9.051  17.487  0.00  0.00    +0.000 F 
ENDBRANCH  17  18
ENDBRANCH  16  17
ENDBRANCH   2  16
TORSDOF 4
ENDMDL
MODEL 8
REMARK VINA RESULT:      -7.7      2.427      4.150
REMARK  Name = 
REMARK  5 active torsions:
REMARK  status: ('A' for Active; 'I' for Inactive)
REMARK    1  A    between atoms: C_1  and  C_2
REMARK    2  A    between atoms: C_7  and  N_8
REMARK    3  A    between atoms: C_9  and  C_11
REMARK    4  A    between atoms: C_11  and  O_12
REMARK    5  A    between atoms: O_12  and  C_13
REMARK                            x       y       z     vdW  Elec       q    Type
REMARK                         _______ _______ _______ _____ _____    ______ ____
ROOT
ATOM      1  N   UNL     1       2.557   3.783  18.798  0.00  0.00    +0.000 N 
ATOM      2  C   UNL     1       3.787   3.185  18.938  0.00  0.00    +0.000 C 
ATOM      3  O   UNL     1       3.954   2.048  18.489  0.00  0.00    +0.000 OA
ATOM      4  H   UNL     1       1.921   3.293  18.181  0.00  0.00    +0.000 HD
ENDROOT
BRANCH   1  11
ATOM      5  C   UNL     1       1.074  11.363  19.828  0.00  0.00    +0.000 C 
ATOM      6  C   UNL     1       1.418   9.988  19.345  0.00  0.00    +0.000 A 
ATOM      7  C   UNL     1       1.822   9.769  18.033  0.00  0.00    +0.000 A 
ATOM      8  C   UNL     1       2.141   8.472  17.645  0.00  0.00    +0.000 A 
ATOM      9  C   UNL     1       2.050   7.427  18.570  0.00  0.00    +0.000 A 
ATOM     10  C   UNL     1       2.363   6.105  18.225  0.00  0.00    +0.000 A 
ATOM     11  C   UNL     1       2.247   5.091  19.172  0.00  0.00    +0.000 A 
ATOM     12  C   UNL     1       1.842   5.383  20.469  0.00  0.00    +0.000 A 
ATOM     13  C   UNL     1       1.531   6.705  20.804  0.00  0.00    +0.000 A 
ATOM     14  C   UNL     1       1.627   7.739  19.879  0.00  0.00    +0.000 A 
ATOM     15  N   UNL     1       1.319   8.989  20.254  0.00  0.00    +0.000 NA
ENDBRANCH   1  11
BRANCH   2  16
ATOM     16  C   UNL     1       4.907   3.952  19.636  0.00  0.00    +0.000 C 
BRANCH  16  17
ATOM     17  O   UNL     1       6.024   3.954  18.752  0.00  0.00    +0.000 OA
BRANCH  17  18
ATOM     18  C   UNL     1       6.463   5.168  18.301  0.00  0.00    +0.000 A 
ATOM     19  C   UNL     1       7.550   5.685  19.015  0.00  0.00    +0.000 A 
ATOM     20  C   UNL     1       8.116   6.913  18.665  0.00  0.00    +0.000 A 
ATOM     21  C   UNL     1       7.599   7.640  17.595  0.00  0.00    +0.000 A 
ATOM     22  C   UNL     1       6.513   7.138  16.880  0.00  0.00    +0.000 A 
ATOM     23  C   UNL     1       5.950   5.912  17.235  0.00  0.00    +0.000 A 
ATOM     24  F   UNL     1       4.904   5.478  16.517  0.00  0.00    +0.000 F 
ENDBRANCH  17  18
ENDBRANCH  16  17
ENDBRANCH   2  16
TORSDOF 4
ENDMDL
MODEL 9
REMARK VINA RESULT:      -7.7      2.690      5.008
REMARK  Name = 
REMARK  5 active torsions:
REMARK  status: ('A' for Active; 'I' for Inactive)
REMARK    1  A    between atoms: C_1  and  C_2
REMARK    2  A    between atoms: C_7  and  N_8
REMARK    3  A    between atoms: C_9  and  C_11
REMARK    4  A    between atoms: C_11  and  O_12
REMARK    5  A    between atoms: O_12  and  C_13
REMARK                            x       y       z     vdW  Elec       q    Type
REMARK                         _______ _______ _______ _____ _____    ______ ____
ROOT
ATOM      1  N   UNL     1       4.679   2.835  17.257  0.00  0.00    +0.000 N 
ATOM      2  C   UNL     1       3.770   2.420  18.199  0.00  0.00    +0.000 C 
ATOM      3  O   UNL     1       3.409   1.240  18.205  0.00  0.00    +0.000 OA
ATOM      4  H   UNL     1       5.111   2.084  16.732  0.00  0.00    +0.000 HD
ENDROOT
BRANCH   1  11
ATOM      5  C   UNL     1       8.463   9.630  17.731  0.00  0.00    +0.000 C 
ATOM      6  C   UNL     1       7.913   8.245  17.872  0.00  0.00    +0.000 A 
ATOM      7  C   UNL     1       8.370   7.389  18.867  0.00  0.00    +0.000 A 
ATOM      8  C   UNL     1       7.812   6.118  18.957  0.00  0.00    +0.000 A 
ATOM      9  C   UNL     1       6.816   5.731  18.055  0.00  0.00    +0.000 A 
ATOM     10  C   UNL     1       6.224   4.460  18.109  0.00  0.00    +0.000 A 
ATOM     11  C   UNL     1       5.244   4.109  17.184  0.00  0.00    +0.000 A 
ATOM     12  C   UNL     1       4.831   5.017  16.218  0.00  0.00    +0.000 A 
ATOM     13  C   UNL     1       5.428   6.281  16.171  0.00  0.00    +0.000 A 
ATOM     14  C   UNL     1       6.416   6.660  17.074  0.00  0.00    +0.000 A 
ATOM     15  N   UNL     1       6.952   7.887  16.986  0.00  0.00    +0.000 NA
ENDBRANCH   1  11
BRANCH   2  16
ATOM     16  C   UNL     1       3.242   3.431  19.215  0.00  0.00    +0.000 C 
BRANCH  16  17
ATOM     17  O   UNL     1       2.444   4.365  18.496  0.00  0.00    +0.000 OA
BRANCH  17  18
ATOM     18  C   UNL     1       2.223   5.581  19.081  0.00  0.00    +0.000 A 
ATOM     19  C   UNL     1       2.405   6.671  18.222  0.00  0.00    +0.000 A 
ATOM     20  C   UNL     1       2.206   7.978  18.674  0.00  0.00    +0.000 A 
ATOM     21  C   UNL     1       1.822   8.209  19.993  0.00  0.00    +0.000 A 
ATOM     22  C   UNL     1       1.644   7.132  20.859  0.00  0.00    +0.000 A 
ATOM     23  C   UNL     1       1.846   5.829  20.403  0.00  0.00    +0.000 A 
ATOM     24  F   UNL     1       1.664   4.830  21.280  0.00  0.00    +0.000 F 
ENDBRANCH  17  18
ENDBRANCH  16  17
ENDBRANCH   2  16
TORSDOF 4
ENDMDL
