MODEL 1
REMARK VINA RESULT:      -7.3      0.000      0.000
REMARK  Name = 
REMARK  7 active torsions:
REMARK  status: ('A' for Active; 'I' for Inactive)
REMARK    1  A    between atoms: C_1  and  C_2
REMARK    2  A    between atoms: N_4  and  C_5
REMARK    3  A    between atoms: N_9  and  C_10
REMARK    4  A    between atoms: C_10  and  C_11
REMARK    5  A    between atoms: C_14  and  C_15
REMARK    6  A    between atoms: N_17  and  C_18
REMARK    7  A    between atoms: C_18  and  C_19
REMARK                            x       y       z     vdW  Elec       q    Type
REMARK                         _______ _______ _______ _____ _____    ______ ____
ROOT
ATOM      1  C   UNL     1       6.776   6.584  17.092  0.00  0.00    +0.000 A 
ATOM      2  C   UNL     1       7.530   6.010  18.092  0.00  0.00    +0.000 A 
ATOM      3  C   UNL     1       8.266   7.056  18.687  0.00  0.00    +0.000 A 
ATOM      4  C   UNL     1       7.945   8.218  18.008  0.00  0.00    +0.000 A 
ATOM      5  O   UNL     1       7.035   7.930  17.019  0.00  0.00    +0.000 OA
ENDROOT
BRANCH   4   6
ATOM      6  C   UNL     1       8.407   9.572  18.239  0.00  0.00    +0.000 C 
ATOM      7  O   UNL     1       8.114  10.506  17.494  0.00  0.00    +0.000 OA
ATOM      8  N   UNL     1       9.204   9.763  19.350  0.00  0.00    +0.000 N 
ATOM      9  H   UNL     1       9.440   8.966  19.926  0.00  0.00    +0.000 HD
BRANCH   8  10
ATOM     10  C   UNL     1       9.803  11.054  19.587  0.00  0.00    +0.000 C 
BRANCH  10  11
ATOM     11  C   UNL     1      11.165  11.131  18.981  0.00  0.00    +0.000 C 
ATOM     12  C   UNL     1      11.526  12.228  18.011  0.00  0.00    +0.000 C 
ATOM     13  C   UNL     1      12.112  12.233  19.395  0.00  0.00    +0.000 C 
ENDBRANCH  10  11
ENDBRANCH   8  10
ENDBRANCH   4   6
BRANCH   1  14
ATOM     14  C   UNL     1       5.800   6.025  16.120  0.00  0.00    +0.000 C 
BRANCH  14  23
ATOM     15  C   UNL     1       3.102   7.724  18.062  0.00  0.00    +0.000 C 
ATOM     16  C   UNL     1       2.913   6.261  18.076  0.00  0.00    +0.000 A 
ATOM     17  N   UNL     1       1.863   5.698  18.716  0.00  0.00    +0.000 NA
ATOM     18  N   UNL     1       2.127   4.376  18.498  0.00  0.00    +0.000 N 
ATOM     19  C   UNL     1       1.256   3.366  19.045  0.00  0.00    +0.000 C 
ATOM     20  C   UNL     1       3.251   4.102  17.762  0.00  0.00    +0.000 A 
ATOM     21  C   UNL     1       4.116   3.148  17.167  0.00  0.00    +0.000 A 
ATOM     22  N   UNL     1       5.168   3.694  16.519  0.00  0.00    +0.000 NA
ATOM     23  N   UNL     1       4.924   5.033  16.734  0.00  0.00    +0.000 N 
ATOM     24  C   UNL     1       3.794   5.321  17.470  0.00  0.00    +0.000 A 
ENDBRANCH  14  23
ENDBRANCH   1  14
TORSDOF 5
ENDMDL
MODEL 2
REMARK VINA RESULT:      -7.3      4.061      6.467
REMARK  Name = 
REMARK  7 active torsions:
REMARK  status: ('A' for Active; 'I' for Inactive)
REMARK    1  A    between atoms: C_1  and  C_2
REMARK    2  A    between atoms: N_4  and  C_5
REMARK    3  A    between atoms: N_9  and  C_10
REMARK    4  A    between atoms: C_10  and  C_11
REMARK    5  A    between atoms: C_14  and  C_15
REMARK    6  A    between atoms: N_17  and  C_18
REMARK    7  A    between atoms: C_18  and  C_19
REMARK                            x       y       z     vdW  Elec       q    Type
REMARK                         _______ _______ _______ _____ _____    ______ ____
ROOT
ATOM      1  C   UNL     1       4.679   6.557  17.477  0.00  0.00    +0.000 A 
ATOM      2  C   UNL     1       5.826   6.398  18.223  0.00  0.00    +0.000 A 
ATOM      3  C   UNL     1       6.788   5.831  17.360  0.00  0.00    +0.000 A 
ATOM      4  C   UNL     1       6.175   5.649  16.133  0.00  0.00    +0.000 A 
ATOM      5  O   UNL     1       4.875   6.086  16.203  0.00  0.00    +0.000 OA
ENDROOT
BRANCH   4   6
ATOM      6  C   UNL     1       6.731   5.125  14.901  0.00  0.00    +0.000 C 
ATOM      7  O   UNL     1       7.837   5.463  14.479  0.00  0.00    +0.000 OA
ATOM      8  N   UNL     1       5.947   4.220  14.214  0.00  0.00    +0.000 N 
ATOM      9  H   UNL     1       5.035   3.983  14.583  0.00  0.00    +0.000 HD
BRANCH   8  10
ATOM     10  C   UNL     1       6.372   3.741  12.921  0.00  0.00    +0.000 C 
BRANCH  10  11
ATOM     11  C   UNL     1       5.459   2.671  12.420  0.00  0.00    +0.000 C 
ATOM     12  C   UNL     1       4.598   2.890  11.202  0.00  0.00    +0.000 C 
ATOM     13  C   UNL     1       5.774   1.958  11.126  0.00  0.00    +0.000 C 
ENDBRANCH  10  11
ENDBRANCH   8  10
ENDBRANCH   4   6
BRANCH   1  14
ATOM     14  C   UNL     1       3.335   7.102  17.803  0.00  0.00    +0.000 C 
BRANCH  14  23
ATOM     15  C   UNL     1       3.284   3.436  17.094  0.00  0.00    +0.000 C 
ATOM     16  C   UNL     1       2.746   3.715  18.439  0.00  0.00    +0.000 A 
ATOM     17  N   UNL     1       2.330   2.714  19.247  0.00  0.00    +0.000 NA
ATOM     18  N   UNL     1       1.892   3.435  20.321  0.00  0.00    +0.000 N 
ATOM     19  C   UNL     1       1.313   2.761  21.457  0.00  0.00    +0.000 C 
ATOM     20  C   UNL     1       2.026   4.797  20.225  0.00  0.00    +0.000 A 
ATOM     21  C   UNL     1       1.853   6.082  20.799  0.00  0.00    +0.000 A 
ATOM     22  N   UNL     1       2.268   7.094  20.006  0.00  0.00    +0.000 NA
ATOM     23  N   UNL     1       2.708   6.386  18.910  0.00  0.00    +0.000 N 
ATOM     24  C   UNL     1       2.583   5.015  18.996  0.00  0.00    +0.000 A 
ENDBRANCH  14  23
ENDBRANCH   1  14
TORSDOF 5
ENDMDL
MODEL 3
REMARK VINA RESULT:      -7.3      4.409      7.077
REMARK  Name = 
REMARK  7 active torsions:
REMARK  status: ('A' for Active; 'I' for Inactive)
REMARK    1  A    between atoms: C_1  and  C_2
REMARK    2  A    between atoms: N_4  and  C_5
REMARK    3  A    between atoms: N_9  and  C_10
REMARK    4  A    between atoms: C_10  and  C_11
REMARK    5  A    between atoms: C_14  and  C_15
REMARK    6  A    between atoms: N_17  and  C_18
REMARK    7  A    between atoms: C_18  and  C_19
REMARK                            x       y       z     vdW  Elec       q    Type
REMARK                         _______ _______ _______ _____ _____    ______ ____
ROOT
ATOM      1  C   UNL     1       5.625   5.498  16.379  0.00  0.00    +0.000 A 
ATOM      2  C   UNL     1       6.999   5.439  16.448  0.00  0.00    +0.000 A 
ATOM      3  C   UNL     1       7.437   4.893  15.223  0.00  0.00    +0.000 A 
ATOM      4  C   UNL     1       6.307   4.622  14.472  0.00  0.00    +0.000 A 
ATOM      5  O   UNL     1       5.189   4.984  15.183  0.00  0.00    +0.000 OA
ENDROOT
BRANCH   4   6
ATOM      6  C   UNL     1       6.208   4.078  13.132  0.00  0.00    +0.000 C 
ATOM      7  O   UNL     1       7.144   4.111  12.334  0.00  0.00    +0.000 OA
ATOM      8  N   UNL     1       4.994   3.516  12.790  0.00  0.00    +0.000 N 
ATOM      9  H   UNL     1       4.242   3.526  13.467  0.00  0.00    +0.000 HD
BRANCH   8  10
ATOM     10  C   UNL     1       4.772   3.059  11.440  0.00  0.00    +0.000 C 
BRANCH  10  11
ATOM     11  C   UNL     1       3.384   3.375  10.990  0.00  0.00    +0.000 C 
ATOM     12  C   UNL     1       3.134   4.263   9.796  0.00  0.00    +0.000 C 
ATOM     13  C   UNL     1       2.858   2.789   9.700  0.00  0.00    +0.000 C 
ENDBRANCH  10  11
ENDBRANCH   8  10
ENDBRANCH   4   6
BRANCH   1  14
ATOM     14  C   UNL     1       4.588   5.977  17.332  0.00  0.00    +0.000 C 
BRANCH  14  23
ATOM     15  C   UNL     1       2.137   7.337  19.798  0.00  0.00    +0.000 C 
ATOM     16  C   UNL     1       2.302   5.881  19.974  0.00  0.00    +0.000 A 
ATOM     17  N   UNL     1       1.603   5.207  20.916  0.00  0.00    +0.000 NA
ATOM     18  N   UNL     1       2.104   3.950  20.735  0.00  0.00    +0.000 N 
ATOM     19  C   UNL     1       1.654   2.866  21.574  0.00  0.00    +0.000 C 
ATOM     20  C   UNL     1       3.043   3.814  19.745  0.00  0.00    +0.000 A 
ATOM     21  C   UNL     1       3.930   2.985  19.012  0.00  0.00    +0.000 A 
ATOM     22  N   UNL     1       4.632   3.641  18.064  0.00  0.00    +0.000 NA
ATOM     23  N   UNL     1       4.146   4.919  18.234  0.00  0.00    +0.000 N 
ATOM     24  C   UNL     1       3.198   5.068  19.225  0.00  0.00    +0.000 A 
ENDBRANCH  14  23
ENDBRANCH   1  14
TORSDOF 5
ENDMDL
MODEL 4
REMARK VINA RESULT:      -7.0      3.602      6.918
REMARK  Name = 
REMARK  7 active torsions:
REMARK  status: ('A' for Active; 'I' for Inactive)
REMARK    1  A    between atoms: C_1  and  C_2
REMARK    2  A    between atoms: N_4  and  C_5
REMARK    3  A    between atoms: N_9  and  C_10
REMARK    4  A    between atoms: C_10  and  C_11
REMARK    5  A    between atoms: C_14  and  C_15
REMARK    6  A    between atoms: N_17  and  C_18
REMARK    7  A    between atoms: C_18  and  C_19
REMARK                            x       y       z     vdW  Elec       q    Type
REMARK                         _______ _______ _______ _____ _____    ______ ____
ROOT
ATOM      1  C   UNL     1       3.685   5.527  19.582  0.00  0.00    +0.000 A 
ATOM      2  C   UNL     1       2.669   5.487  20.511  0.00  0.00    +0.000 A 
ATOM      3  C   UNL     1       1.842   6.599  20.247  0.00  0.00    +0.000 A 
ATOM      4  C   UNL     1       2.405   7.280  19.183  0.00  0.00    +0.000 A 
ATOM      5  O   UNL     1       3.545   6.630  18.777  0.00  0.00    +0.000 OA
ENDROOT
BRANCH   4   6
ATOM      6  C   UNL     1       1.935   8.474  18.508  0.00  0.00    +0.000 C 
ATOM      7  O   UNL     1       2.310   8.784  17.378  0.00  0.00    +0.000 OA
ATOM      8  N   UNL     1       1.039   9.257  19.207  0.00  0.00    +0.000 N 
ATOM      9  H   UNL     1       0.771   8.979  20.143  0.00  0.00    +0.000 HD
BRANCH   8  10
ATOM     10  C   UNL     1       0.613  10.522  18.658  0.00  0.00    +0.000 C 
BRANCH  10  11
ATOM     11  C   UNL     1      -0.863  10.696  18.797  0.00  0.00    +0.000 C 
ATOM     12  C   UNL     1      -1.560  11.914  18.244  0.00  0.00    +0.000 C 
ATOM     13  C   UNL     1      -1.753  10.579  17.581  0.00  0.00    +0.000 C 
ENDBRANCH  10  11
ENDBRANCH   8  10
ENDBRANCH   4   6
BRANCH   1  14
ATOM     14  C   UNL     1       4.854   4.644  19.330  0.00  0.00    +0.000 C 
BRANCH  14  23
ATOM     15  C   UNL     1       7.558   6.869  18.035  0.00  0.00    +0.000 C 
ATOM     16  C   UNL     1       7.082   5.957  16.978  0.00  0.00    +0.000 A 
ATOM     17  N   UNL     1       7.622   5.980  15.738  0.00  0.00    +0.000 NA
ATOM     18  N   UNL     1       6.859   5.030  15.122  0.00  0.00    +0.000 N 
ATOM     19  C   UNL     1       7.066   4.729  13.728  0.00  0.00    +0.000 C 
ATOM     20  C   UNL     1       5.906   4.427  15.904  0.00  0.00    +0.000 A 
ATOM     21  C   UNL     1       4.855   3.484  16.034  0.00  0.00    +0.000 A 
ATOM     22  N   UNL     1       4.307   3.444  17.267  0.00  0.00    +0.000 NA
ATOM     23  N   UNL     1       5.061   4.405  17.905  0.00  0.00    +0.000 N 
ATOM     24  C   UNL     1       6.024   5.016  17.131  0.00  0.00    +0.000 A 
ENDBRANCH  14  23
ENDBRANCH   1  14
TORSDOF 5
ENDMDL
MODEL 5
REMARK VINA RESULT:      -6.9      4.520      6.585
REMARK  Name = 
REMARK  7 active torsions:
REMARK  status: ('A' for Active; 'I' for Inactive)
REMARK    1  A    between atoms: C_1  and  C_2
REMARK    2  A    between atoms: N_4  and  C_5
REMARK    3  A    between atoms: N_9  and  C_10
REMARK    4  A    between atoms: C_10  and  C_11
REMARK    5  A    between atoms: C_14  and  C_15
REMARK    6  A    between atoms: N_17  and  C_18
REMARK    7  A    between atoms: C_18  and  C_19
REMARK                            x       y       z     vdW  Elec       q    Type
REMARK                         _______ _______ _______ _____ _____    ______ ____
ROOT
ATOM      1  C   UNL     1       4.864   3.909  17.864  0.00  0.00    +0.000 A 
ATOM      2  C   UNL     1       5.954   4.514  18.451  0.00  0.00    +0.000 A 
ATOM      3  C   UNL     1       6.848   4.827  17.406  0.00  0.00    +0.000 A 
ATOM      4  C   UNL     1       6.273   4.377  16.230  0.00  0.00    +0.000 A 
ATOM      5  O   UNL     1       5.057   3.803  16.508  0.00  0.00    +0.000 OA
ENDROOT
BRANCH   4   6
ATOM      6  C   UNL     1       6.770   4.475  14.872  0.00  0.00    +0.000 C 
ATOM      7  O   UNL     1       7.636   5.285  14.543  0.00  0.00    +0.000 OA
ATOM      8  N   UNL     1       6.214   3.606  13.955  0.00  0.00    +0.000 N 
ATOM      9  H   UNL     1       5.490   2.969  14.261  0.00  0.00    +0.000 HD
BRANCH   8  10
ATOM     10  C   UNL     1       6.566   3.717  12.560  0.00  0.00    +0.000 C 
BRANCH  10  11
ATOM     11  C   UNL     1       5.577   3.000  11.701  0.00  0.00    +0.000 C 
ATOM     12  C   UNL     1       4.097   3.094  11.972  0.00  0.00    +0.000 C 
ATOM     13  C   UNL     1       4.681   3.783  10.771  0.00  0.00    +0.000 C 
ENDBRANCH  10  11
ENDBRANCH   8  10
ENDBRANCH   4   6
BRANCH   1  14
ATOM     14  C   UNL     1       3.597   3.363  18.416  0.00  0.00    +0.000 C 
BRANCH  14  23
ATOM     15  C   UNL     1       3.554   6.871  17.136  0.00  0.00    +0.000 C 
ATOM     16  C   UNL     1       2.894   6.787  18.453  0.00  0.00    +0.000 A 
ATOM     17  N   UNL     1       2.357   7.883  19.037  0.00  0.00    +0.000 NA
ATOM     18  N   UNL     1       1.919   7.342  20.212  0.00  0.00    +0.000 N 
ATOM     19  C   UNL     1       1.285   8.178  21.200  0.00  0.00    +0.000 C 
ATOM     20  C   UNL     1       2.142   5.998  20.374  0.00  0.00    +0.000 A 
ATOM     21  C   UNL     1       2.023   4.830  21.169  0.00  0.00    +0.000 A 
ATOM     22  N   UNL     1       2.550   3.725  20.599  0.00  0.00    +0.000 NA
ATOM     23  N   UNL     1       3.006   4.253  19.411  0.00  0.00    +0.000 N 
ATOM     24  C   UNL     1       2.785   5.602  19.235  0.00  0.00    +0.000 A 
ENDBRANCH  14  23
ENDBRANCH   1  14
TORSDOF 5
ENDMDL
MODEL 6
REMARK VINA RESULT:      -6.9      0.858      1.231
REMARK  Name = 
REMARK  7 active torsions:
REMARK  status: ('A' for Active; 'I' for Inactive)
REMARK    1  A    between atoms: C_1  and  C_2
REMARK    2  A    between atoms: N_4  and  C_5
REMARK    3  A    between atoms: N_9  and  C_10
REMARK    4  A    between atoms: C_10  and  C_11
REMARK    5  A    between atoms: C_14  and  C_15
REMARK    6  A    between atoms: N_17  and  C_18
REMARK    7  A    between atoms: C_18  and  C_19
REMARK                            x       y       z     vdW  Elec       q    Type
REMARK                         _______ _______ _______ _____ _____    ______ ____
ROOT
ATOM      1  C   UNL     1       6.485   6.787  17.103  0.00  0.00    +0.000 A 
ATOM      2  C   UNL     1       7.304   6.126  17.992  0.00  0.00    +0.000 A 
ATOM      3  C   UNL     1       8.163   7.099  18.544  0.00  0.00    +0.000 A 
ATOM      4  C   UNL     1       7.844   8.307  17.949  0.00  0.00    +0.000 A 
ATOM      5  O   UNL     1       6.819   8.118  17.054  0.00  0.00    +0.000 OA
ENDROOT
BRANCH   4   6
ATOM      6  C   UNL     1       8.412   9.620  18.181  0.00  0.00    +0.000 C 
ATOM      7  O   UNL     1       8.137  10.592  17.479  0.00  0.00    +0.000 OA
ATOM      8  N   UNL     1       9.290   9.726  19.241  0.00  0.00    +0.000 N 
ATOM      9  H   UNL     1       9.507   8.900  19.782  0.00  0.00    +0.000 HD
BRANCH   8  10
ATOM     10  C   UNL     1       9.990  10.968  19.468  0.00  0.00    +0.000 C 
BRANCH  10  11
ATOM     11  C   UNL     1       9.662  11.528  20.812  0.00  0.00    +0.000 C 
ATOM     12  C   UNL     1      10.299  12.804  21.302  0.00  0.00    +0.000 C 
ATOM     13  C   UNL     1       8.846  12.795  20.921  0.00  0.00    +0.000 C 
ENDBRANCH  10  11
ENDBRANCH   8  10
ENDBRANCH   4   6
BRANCH   1  14
ATOM     14  C   UNL     1       5.379   6.330  16.221  0.00  0.00    +0.000 C 
BRANCH  14  23
ATOM     15  C   UNL     1       2.620   7.357  18.518  0.00  0.00    +0.000 C 
ATOM     16  C   UNL     1       2.647   5.890  18.357  0.00  0.00    +0.000 A 
ATOM     17  N   UNL     1       1.743   5.102  18.982  0.00  0.00    +0.000 NA
ATOM     18  N   UNL     1       2.178   3.871  18.583  0.00  0.00    +0.000 N 
ATOM     19  C   UNL     1       1.509   2.682  19.049  0.00  0.00    +0.000 C 
ATOM     20  C   UNL     1       3.271   3.860  17.754  0.00  0.00    +0.000 A 
ATOM     21  C   UNL     1       4.217   3.126  16.993  0.00  0.00    +0.000 A 
ATOM     22  N   UNL     1       5.125   3.899  16.359  0.00  0.00    +0.000 NA
ATOM     23  N   UNL     1       4.706   5.150  16.756  0.00  0.00    +0.000 N 
ATOM     24  C   UNL     1       3.606   5.174  17.587  0.00  0.00    +0.000 A 
ENDBRANCH  14  23
ENDBRANCH   1  14
TORSDOF 5
ENDMDL
MODEL 7
REMARK VINA RESULT:      -6.9      3.864      7.008
REMARK  Name = 
REMARK  7 active torsions:
REMARK  status: ('A' for Active; 'I' for Inactive)
REMARK    1  A    between atoms: C_1  and  C_2
REMARK    2  A    between atoms: N_4  and  C_5
REMARK    3  A    between atoms: N_9  and  C_10
REMARK    4  A    between atoms: C_10  and  C_11
REMARK    5  A    between atoms: C_14  and  C_15
REMARK    6  A    between atoms: N_17  and  C_18
REMARK    7  A    between atoms: C_18  and  C_19
REMARK                            x       y       z     vdW  Elec       q    Type
REMARK                         _______ _______ _______ _____ _____    ______ ____
ROOT
ATOM      1  C   UNL     1       3.536   4.632  19.796  0.00  0.00    +0.000 A 
ATOM      2  C   UNL     1       2.324   4.088  20.160  0.00  0.00    +0.000 A 
ATOM      3  C   UNL     1       1.464   5.174  20.431  0.00  0.00    +0.000 A 
ATOM      4  C   UNL     1       2.199   6.331  20.242  0.00  0.00    +0.000 A 
ATOM      5  O   UNL     1       3.477   6.002  19.860  0.00  0.00    +0.000 OA
ENDROOT
BRANCH   4   6
ATOM      6  C   UNL     1       1.780   7.713  20.366  0.00  0.00    +0.000 C 
ATOM      7  O   UNL     1       1.652   8.454  19.392  0.00  0.00    +0.000 OA
ATOM      8  N   UNL     1       1.531   8.162  21.648  0.00  0.00    +0.000 N 
ATOM      9  H   UNL     1       1.668   7.529  22.424  0.00  0.00    +0.000 HD
BRANCH   8  10
ATOM     10  C   UNL     1       1.225   9.555  21.870  0.00  0.00    +0.000 C 
BRANCH  10  11
ATOM     11  C   UNL     1      -0.250   9.770  21.961  0.00  0.00    +0.000 C 
ATOM     12  C   UNL     1      -0.823  10.919  22.751  0.00  0.00    +0.000 C 
ATOM     13  C   UNL     1      -0.885  10.942  21.250  0.00  0.00    +0.000 C 
ENDBRANCH  10  11
ENDBRANCH   8  10
ENDBRANCH   4   6
BRANCH   1  14
ATOM     14  C   UNL     1       4.830   4.024  19.388  0.00  0.00    +0.000 C 
BRANCH  14  23
ATOM     15  C   UNL     1       7.618   6.321  18.442  0.00  0.00    +0.000 C 
ATOM     16  C   UNL     1       7.083   5.631  17.252  0.00  0.00    +0.000 A 
ATOM     17  N   UNL     1       7.606   5.848  16.024  0.00  0.00    +0.000 NA
ATOM     18  N   UNL     1       6.789   5.056  15.269  0.00  0.00    +0.000 N 
ATOM     19  C   UNL     1       6.962   4.996  13.839  0.00  0.00    +0.000 C 
ATOM     20  C   UNL     1       5.820   4.368  15.954  0.00  0.00    +0.000 A 
ATOM     21  C   UNL     1       4.727   3.464  15.940  0.00  0.00    +0.000 A 
ATOM     22  N   UNL     1       4.196   3.232  17.160  0.00  0.00    +0.000 NA
ATOM     23  N   UNL     1       5.004   4.031  17.939  0.00  0.00    +0.000 N 
ATOM     24  C   UNL     1       5.984   4.726  17.262  0.00  0.00    +0.000 A 
ENDBRANCH  14  23
ENDBRANCH   1  14
TORSDOF 5
ENDMDL
MODEL 8
REMARK VINA RESULT:      -6.8      1.960      2.771
REMARK  Name = 
REMARK  7 active torsions:
REMARK  status: ('A' for Active; 'I' for Inactive)
REMARK    1  A    between atoms: C_1  and  C_2
REMARK    2  A    between atoms: N_4  and  C_5
REMARK    3  A    between atoms: N_9  and  C_10
REMARK    4  A    between atoms: C_10  and  C_11
REMARK    5  A    between atoms: C_14  and  C_15
REMARK    6  A    between atoms: N_17  and  C_18
REMARK    7  A    between atoms: C_18  and  C_19
REMARK                            x       y       z     vdW  Elec       q    Type
REMARK                         _______ _______ _______ _____ _____    ______ ____
ROOT
ATOM      1  C   UNL     1       5.175   4.599  16.412  0.00  0.00    +0.000 A 
ATOM      2  C   UNL     1       6.242   4.319  15.587  0.00  0.00    +0.000 A 
ATOM      3  C   UNL     1       7.346   5.026  16.110  0.00  0.00    +0.000 A 
ATOM      4  C   UNL     1       6.895   5.723  17.216  0.00  0.00    +0.000 A 
ATOM      5  O   UNL     1       5.558   5.471  17.400  0.00  0.00    +0.000 OA
ENDROOT
BRANCH   4   6
ATOM      6  C   UNL     1       7.634   6.580  18.122  0.00  0.00    +0.000 C 
ATOM      7  O   UNL     1       8.020   6.197  19.226  0.00  0.00    +0.000 OA
ATOM      8  N   UNL     1       7.884   7.864  17.680  0.00  0.00    +0.000 N 
ATOM      9  H   UNL     1       7.533   8.147  16.775  0.00  0.00    +0.000 HD
BRANCH   8  10
ATOM     10  C   UNL     1       8.509   8.816  18.566  0.00  0.00    +0.000 C 
BRANCH  10  11
ATOM     11  C   UNL     1       8.859  10.072  17.840  0.00  0.00    +0.000 C 
ATOM     12  C   UNL     1       8.715  11.420  18.501  0.00  0.00    +0.000 C 
ATOM     13  C   UNL     1      10.084  10.859  18.242  0.00  0.00    +0.000 C 
ENDBRANCH  10  11
ENDBRANCH   8  10
ENDBRANCH   4   6
BRANCH   1  14
ATOM     14  C   UNL     1       3.754   4.160  16.404  0.00  0.00    +0.000 C 
BRANCH  14  23
ATOM     15  C   UNL     1       2.628   6.584  19.011  0.00  0.00    +0.000 C 
ATOM     16  C   UNL     1       2.495   5.197  19.495  0.00  0.00    +0.000 A 
ATOM     17  N   UNL     1       2.003   4.931  20.727  0.00  0.00    +0.000 NA
ATOM     18  N   UNL     1       2.108   3.569  20.741  0.00  0.00    +0.000 N 
ATOM     19  C   UNL     1       1.716   2.827  21.912  0.00  0.00    +0.000 C 
ATOM     20  C   UNL     1       2.615   2.995  19.603  0.00  0.00    +0.000 A 
ATOM     21  C   UNL     1       2.996   1.828  18.892  0.00  0.00    +0.000 A 
ATOM     22  N   UNL     1       3.485   2.075  17.659  0.00  0.00    +0.000 NA
ATOM     23  N   UNL     1       3.394   3.450  17.627  0.00  0.00    +0.000 N 
ATOM     24  C   UNL     1       2.883   4.039  18.763  0.00  0.00    +0.000 A 
ENDBRANCH  14  23
ENDBRANCH   1  14
TORSDOF 5
ENDMDL
MODEL 9
REMARK VINA RESULT:      -6.8      4.249      6.306
REMARK  Name = 
REMARK  7 active torsions:
REMARK  status: ('A' for Active; 'I' for Inactive)
REMARK    1  A    between atoms: C_1  and  C_2
REMARK    2  A    between atoms: N_4  and  C_5
REMARK    3  A    between atoms: N_9  and  C_10
REMARK    4  A    between atoms: C_10  and  C_11
REMARK    5  A    between atoms: C_14  and  C_15
REMARK    6  A    between atoms: N_17  and  C_18
REMARK    7  A    between atoms: C_18  and  C_19
REMARK                            x       y       z     vdW  Elec       q    Type
REMARK                         _______ _______ _______ _____ _____    ______ ____
ROOT
ATOM      1  C   UNL     1       5.847   5.628  17.761  0.00  0.00    +0.000 A 
ATOM      2  C   UNL     1       5.423   6.815  17.206  0.00  0.00    +0.000 A 
ATOM      3  C   UNL     1       5.733   6.746  15.831  0.00  0.00    +0.000 A 
ATOM      4  C   UNL     1       6.353   5.528  15.615  0.00  0.00    +0.000 A 
ATOM      5  O   UNL     1       6.434   4.841  16.802  0.00  0.00    +0.000 OA
ENDROOT
BRANCH   4   6
ATOM      6  C   UNL     1       6.845   4.957  14.377  0.00  0.00    +0.000 C 
ATOM      7  O   UNL     1       7.895   5.325  13.852  0.00  0.00    +0.000 OA
ATOM      8  N   UNL     1       6.064   3.971  13.808  0.00  0.00    +0.000 N 
ATOM      9  H   UNL     1       5.197   3.711  14.259  0.00  0.00    +0.000 HD
BRANCH   8  10
ATOM     10  C   UNL     1       6.419   3.435  12.516  0.00  0.00    +0.000 C 
BRANCH  10  11
ATOM     11  C   UNL     1       5.246   2.777  11.869  0.00  0.00    +0.000 C 
ATOM     12  C   UNL     1       3.867   3.383  11.953  0.00  0.00    +0.000 C 
ATOM     13  C   UNL     1       4.611   3.401  10.648  0.00  0.00    +0.000 C 
ENDBRANCH  10  11
ENDBRANCH   8  10
ENDBRANCH   4   6
BRANCH   1  14
ATOM     14  C   UNL     1       5.799   5.092  19.147  0.00  0.00    +0.000 C 
BRANCH  14  23
ATOM     15  C   UNL     1       2.430   6.412  18.228  0.00  0.00    +0.000 C 
ATOM     16  C   UNL     1       2.358   4.973  18.546  0.00  0.00    +0.000 A 
ATOM     17  N   UNL     1       1.188   4.298  18.470  0.00  0.00    +0.000 NA
ATOM     18  N   UNL     1       1.595   3.061  18.881  0.00  0.00    +0.000 N 
ATOM     19  C   UNL     1       0.641   1.986  18.991  0.00  0.00    +0.000 C 
ATOM     20  C   UNL     1       2.927   2.938  19.187  0.00  0.00    +0.000 A 
ATOM     21  C   UNL     1       4.008   2.129  19.622  0.00  0.00    +0.000 A 
ATOM     22  N   UNL     1       5.185   2.787  19.699  0.00  0.00    +0.000 NA
ATOM     23  N   UNL     1       4.793   4.045  19.294  0.00  0.00    +0.000 N 
ATOM     24  C   UNL     1       3.458   4.180  18.980  0.00  0.00    +0.000 A 
ENDBRANCH  14  23
ENDBRANCH   1  14
TORSDOF 5
ENDMDL
