MODEL 1
REMARK VINA RESULT:      -7.9      0.000      0.000
REMARK  Name = 
REMARK  7 active torsions:
REMARK  status: ('A' for Active; 'I' for Inactive)
REMARK    1  A    between atoms: C_1  and  C_2
REMARK    2  A    between atoms: C_5  and  S_6
REMARK    3  A    between atoms: S_6  and  N_9
REMARK    4  A    between atoms: C_14  and  C_15
REMARK    5  A    between atoms: C_15  and  N_16
REMARK    6  A    between atoms: C_17  and  C_19
REMARK    7  A    between atoms: N_21  and  C_22
REMARK                            x       y       z     vdW  Elec       q    Type
REMARK                         _______ _______ _______ _____ _____    ______ ____
ROOT
ATOM      1  N   UNL     1       4.182   3.952  17.909  0.00  0.00    +0.000 NA
ATOM      2  C   UNL     1       4.126   3.033  19.061  0.00  0.00    +0.000 C 
ATOM      3  C   UNL     1       3.055   1.990  18.778  0.00  0.00    +0.000 C 
ATOM      4  C   UNL     1       1.750   2.634  18.333  0.00  0.00    +0.000 C 
ATOM      5  O   UNL     1       1.946   3.618  17.328  0.00  0.00    +0.000 OA
ATOM      6  C   UNL     1       2.903   4.636  17.654  0.00  0.00    +0.000 C 
ENDROOT
BRANCH   1   7
ATOM      7  S   UNL     1       5.560   4.907  17.697  0.00  0.00    +0.000 S 
ATOM      8  O   UNL     1       6.620   4.307  18.483  0.00  0.00    +0.000 OA
ATOM      9  O   UNL     1       5.195   6.296  17.855  0.00  0.00    +0.000 OA
BRANCH   7  14
ATOM     10  C   UNL     1       7.043   3.934  11.886  0.00  0.00    +0.000 C 
ATOM     11  C   UNL     1       6.650   4.227  13.305  0.00  0.00    +0.000 A 
ATOM     12  C   UNL     1       7.487   4.977  14.141  0.00  0.00    +0.000 A 
ATOM     13  C   UNL     1       7.135   5.205  15.474  0.00  0.00    +0.000 A 
ATOM     14  C   UNL     1       5.935   4.687  15.971  0.00  0.00    +0.000 A 
ATOM     15  C   UNL     1       5.083   3.951  15.147  0.00  0.00    +0.000 A 
ATOM     16  C   UNL     1       5.444   3.725  13.815  0.00  0.00    +0.000 A 
ENDBRANCH   7  14
ENDBRANCH   1   7
BRANCH   6  17
ATOM     17  C   UNL     1       2.430   5.552  18.814  0.00  0.00    +0.000 C 
BRANCH  17  18
ATOM     18  N   UNL     1       2.198   6.919  18.397  0.00  0.00    +0.000 N 
ATOM     19  C   UNL     1       1.877   7.922  19.279  0.00  0.00    +0.000 C 
ATOM     20  O   UNL     1       1.688   7.805  20.477  0.00  0.00    +0.000 OA
ATOM     21  H   UNL     1       2.434   7.217  17.454  0.00  0.00    +0.000 HD
BRANCH  19  22
ATOM     22  C   UNL     1       1.746   9.292  18.581  0.00  0.00    +0.000 C 
ATOM     23  O   UNL     1       2.058   9.401  17.401  0.00  0.00    +0.000 OA
ATOM     24  N   UNL     1       1.244  10.287  19.385  0.00  0.00    +0.000 N 
ATOM     25  H   UNL     1       1.159  10.075  20.377  0.00  0.00    +0.000 HD
BRANCH  24  26
ATOM     26  C   UNL     1       1.044  11.618  18.883  0.00  0.00    +0.000 C 
ATOM     27  C   UNL     1      -0.420  11.943  18.627  0.00  0.00    +0.000 C 
ATOM     28  C   UNL     1      -0.412  13.460  18.492  0.00  0.00    +0.000 C 
ATOM     29  C   UNL     1       0.728  13.950  19.389  0.00  0.00    +0.000 C 
ATOM     30  C   UNL     1       1.461  12.700  19.872  0.00  0.00    +0.000 C 
ENDBRANCH  24  26
ENDBRANCH  19  22
ENDBRANCH  17  18
ENDBRANCH   6  17
TORSDOF 6
ENDMDL
MODEL 2
REMARK VINA RESULT:      -7.9      3.117      8.624
REMARK  Name = 
REMARK  7 active torsions:
REMARK  status: ('A' for Active; 'I' for Inactive)
REMARK    1  A    between atoms: C_1  and  C_2
REMARK    2  A    between atoms: C_5  and  S_6
REMARK    3  A    between atoms: S_6  and  N_9
REMARK    4  A    between atoms: C_14  and  C_15
REMARK    5  A    between atoms: C_15  and  N_16
REMARK    6  A    between atoms: C_17  and  C_19
REMARK    7  A    between atoms: N_21  and  C_22
REMARK                            x       y       z     vdW  Elec       q    Type
REMARK                         _______ _______ _______ _____ _____    ______ ____
ROOT
ATOM      1  N   UNL     1       0.623  10.157  20.740  0.00  0.00    +0.000 NA
ATOM      2  C   UNL     1      -0.779  10.119  21.193  0.00  0.00    +0.000 C 
ATOM      3  C   UNL     1      -0.796  10.378  22.692  0.00  0.00    +0.000 C 
ATOM      4  C   UNL     1       0.200   9.490  23.424  0.00  0.00    +0.000 C 
ATOM      5  O   UNL     1       1.478   9.483  22.804  0.00  0.00    +0.000 OA
ATOM      6  C   UNL     1       1.474   9.157  21.407  0.00  0.00    +0.000 C 
ENDROOT
BRANCH   1   7
ATOM      7  S   UNL     1       0.941  10.384  19.095  0.00  0.00    +0.000 S 
ATOM      8  O   UNL     1       1.425   9.120  18.576  0.00  0.00    +0.000 OA
ATOM      9  O   UNL     1       1.692  11.607  18.929  0.00  0.00    +0.000 OA
BRANCH   7  14
ATOM     10  C   UNL     1      -4.690  11.255  16.985  0.00  0.00    +0.000 C 
ATOM     11  C   UNL     1      -3.276  11.067  17.456  0.00  0.00    +0.000 A 
ATOM     12  C   UNL     1      -2.543   9.931  17.090  0.00  0.00    +0.000 A 
ATOM     13  C   UNL     1      -1.245   9.743  17.572  0.00  0.00    +0.000 A 
ATOM     14  C   UNL     1      -0.674  10.699  18.417  0.00  0.00    +0.000 A 
ATOM     15  C   UNL     1      -1.386  11.843  18.778  0.00  0.00    +0.000 A 
ATOM     16  C   UNL     1      -2.686  12.024  18.295  0.00  0.00    +0.000 A 
ENDBRANCH   7  14
ENDBRANCH   1   7
BRANCH   6  17
ATOM     17  C   UNL     1       1.055   7.687  21.138  0.00  0.00    +0.000 C 
BRANCH  17  18
ATOM     18  N   UNL     1       2.113   6.897  20.546  0.00  0.00    +0.000 N 
ATOM     19  C   UNL     1       2.004   5.544  20.333  0.00  0.00    +0.000 C 
ATOM     20  O   UNL     1       1.067   4.832  20.651  0.00  0.00    +0.000 OA
ATOM     21  H   UNL     1       2.913   7.350  20.110  0.00  0.00    +0.000 HD
BRANCH  19  22
ATOM     22  C   UNL     1       3.249   4.960  19.633  0.00  0.00    +0.000 C 
ATOM     23  O   UNL     1       3.394   3.745  19.575  0.00  0.00    +0.000 OA
ATOM     24  N   UNL     1       4.090   5.906  19.101  0.00  0.00    +0.000 N 
ATOM     25  H   UNL     1       3.904   6.876  19.348  0.00  0.00    +0.000 HD
BRANCH  24  26
ATOM     26  C   UNL     1       5.286   5.527  18.401  0.00  0.00    +0.000 C 
ATOM     27  C   UNL     1       5.701   6.537  17.343  0.00  0.00    +0.000 C 
ATOM     28  C   UNL     1       7.138   6.137  17.036  0.00  0.00    +0.000 C 
ATOM     29  C   UNL     1       7.692   5.553  18.338  0.00  0.00    +0.000 C 
ATOM     30  C   UNL     1       6.513   5.462  19.304  0.00  0.00    +0.000 C 
ENDBRANCH  24  26
ENDBRANCH  19  22
ENDBRANCH  17  18
ENDBRANCH   6  17
TORSDOF 6
ENDMDL
MODEL 3
REMARK VINA RESULT:      -7.8      2.891      6.946
REMARK  Name = 
REMARK  7 active torsions:
REMARK  status: ('A' for Active; 'I' for Inactive)
REMARK    1  A    between atoms: C_1  and  C_2
REMARK    2  A    between atoms: C_5  and  S_6
REMARK    3  A    between atoms: S_6  and  N_9
REMARK    4  A    between atoms: C_14  and  C_15
REMARK    5  A    between atoms: C_15  and  N_16
REMARK    6  A    between atoms: C_17  and  C_19
REMARK    7  A    between atoms: N_21  and  C_22
REMARK                            x       y       z     vdW  Elec       q    Type
REMARK                         _______ _______ _______ _____ _____    ______ ____
ROOT
ATOM      1  N   UNL     1       2.475   4.723  19.044  0.00  0.00    +0.000 NA
ATOM      2  C   UNL     1       1.716   4.214  17.888  0.00  0.00    +0.000 C 
ATOM      3  C   UNL     1       0.681   3.226  18.403  0.00  0.00    +0.000 C 
ATOM      4  C   UNL     1       1.304   2.199  19.338  0.00  0.00    +0.000 C 
ATOM      5  O   UNL     1       2.143   2.795  20.316  0.00  0.00    +0.000 OA
ATOM      6  C   UNL     1       3.163   3.660  19.797  0.00  0.00    +0.000 C 
ENDROOT
BRANCH   1   7
ATOM      7  S   UNL     1       3.349   6.160  18.875  0.00  0.00    +0.000 S 
ATOM      8  O   UNL     1       3.500   6.403  17.453  0.00  0.00    +0.000 OA
ATOM      9  O   UNL     1       4.490   6.119  19.760  0.00  0.00    +0.000 OA
BRANCH   7  14
ATOM     10  C   UNL     1      -0.653  10.211  20.994  0.00  0.00    +0.000 C 
ATOM     11  C   UNL     1       0.382   9.244  20.494  0.00  0.00    +0.000 A 
ATOM     12  C   UNL     1       0.984   9.421  19.242  0.00  0.00    +0.000 A 
ATOM     13  C   UNL     1       1.911   8.490  18.766  0.00  0.00    +0.000 A 
ATOM     14  C   UNL     1       2.244   7.380  19.549  0.00  0.00    +0.000 A 
ATOM     15  C   UNL     1       1.664   7.198  20.805  0.00  0.00    +0.000 A 
ATOM     16  C   UNL     1       0.735   8.133  21.274  0.00  0.00    +0.000 A 
ENDBRANCH   7  14
ENDBRANCH   1   7
BRANCH   6  17
ATOM     17  C   UNL     1       4.236   2.894  18.979  0.00  0.00    +0.000 C 
BRANCH  17  18
ATOM     18  N   UNL     1       5.356   3.727  18.597  0.00  0.00    +0.000 N 
ATOM     19  C   UNL     1       5.712   3.943  17.288  0.00  0.00    +0.000 C 
ATOM     20  O   UNL     1       5.200   3.440  16.303  0.00  0.00    +0.000 OA
ATOM     21  H   UNL     1       5.816   4.320  19.284  0.00  0.00    +0.000 HD
BRANCH  19  22
ATOM     22  C   UNL     1       6.902   4.917  17.159  0.00  0.00    +0.000 C 
ATOM     23  O   UNL     1       7.935   4.541  16.618  0.00  0.00    +0.000 OA
ATOM     24  N   UNL     1       6.658   6.172  17.661  0.00  0.00    +0.000 N 
ATOM     25  H   UNL     1       5.802   6.291  18.200  0.00  0.00    +0.000 HD
BRANCH  24  26
ATOM     26  C   UNL     1       7.657   7.202  17.604  0.00  0.00    +0.000 C 
ATOM     27  C   UNL     1       7.075   8.580  17.328  0.00  0.00    +0.000 C 
ATOM     28  C   UNL     1       8.221   9.513  17.696  0.00  0.00    +0.000 C 
ATOM     29  C   UNL     1       8.993   8.801  18.810  0.00  0.00    +0.000 C 
ATOM     30  C   UNL     1       8.386   7.404  18.927  0.00  0.00    +0.000 C 
ENDBRANCH  24  26
ENDBRANCH  19  22
ENDBRANCH  17  18
ENDBRANCH   6  17
TORSDOF 6
ENDMDL
MODEL 4
REMARK VINA RESULT:      -7.8      2.320      7.879
REMARK  Name = 
REMARK  7 active torsions:
REMARK  status: ('A' for Active; 'I' for Inactive)
REMARK    1  A    between atoms: C_1  and  C_2
REMARK    2  A    between atoms: C_5  and  S_6
REMARK    3  A    between atoms: S_6  and  N_9
REMARK    4  A    between atoms: C_14  and  C_15
REMARK    5  A    between atoms: C_15  and  N_16
REMARK    6  A    between atoms: C_17  and  C_19
REMARK    7  A    between atoms: N_21  and  C_22
REMARK                            x       y       z     vdW  Elec       q    Type
REMARK                         _______ _______ _______ _____ _____    ______ ____
ROOT
ATOM      1  N   UNL     1       2.538   4.802  19.629  0.00  0.00    +0.000 NA
ATOM      2  C   UNL     1       1.405   4.095  19.006  0.00  0.00    +0.000 C 
ATOM      3  C   UNL     1       0.763   3.212  20.066  0.00  0.00    +0.000 C 
ATOM      4  C   UNL     1       1.800   2.368  20.794  0.00  0.00    +0.000 C 
ATOM      5  O   UNL     1       2.923   3.130  21.210  0.00  0.00    +0.000 OA
ATOM      6  C   UNL     1       3.559   3.892  20.174  0.00  0.00    +0.000 C 
ENDROOT
BRANCH   1   7
ATOM      7  S   UNL     1       3.145   6.188  18.875  0.00  0.00    +0.000 S 
ATOM      8  O   UNL     1       2.918   6.034  17.451  0.00  0.00    +0.000 OA
ATOM      9  O   UNL     1       4.460   6.470  19.404  0.00  0.00    +0.000 OA
BRANCH   7  14
ATOM     10  C   UNL     1      -0.254  10.690  21.133  0.00  0.00    +0.000 C 
ATOM     11  C   UNL     1       0.534   9.549  20.556  0.00  0.00    +0.000 A 
ATOM     12  C   UNL     1       0.814   8.411  21.323  0.00  0.00    +0.000 A 
ATOM     13  C   UNL     1       1.589   7.375  20.793  0.00  0.00    +0.000 A 
ATOM     14  C   UNL     1       2.079   7.474  19.488  0.00  0.00    +0.000 A 
ATOM     15  C   UNL     1       1.796   8.596  18.706  0.00  0.00    +0.000 A 
ATOM     16  C   UNL     1       1.023   9.629  19.244  0.00  0.00    +0.000 A 
ENDBRANCH   7  14
ENDBRANCH   1   7
BRANCH   6  17
ATOM     17  C   UNL     1       4.244   2.995  19.108  0.00  0.00    +0.000 C 
BRANCH  17  18
ATOM     18  N   UNL     1       4.652   3.728  17.929  0.00  0.00    +0.000 N 
ATOM     19  C   UNL     1       5.910   4.258  17.779  0.00  0.00    +0.000 C 
ATOM     20  O   UNL     1       6.809   4.243  18.602  0.00  0.00    +0.000 OA
ATOM     21  H   UNL     1       4.069   3.729  17.095  0.00  0.00    +0.000 HD
BRANCH  19  22
ATOM     22  C   UNL     1       6.099   4.935  16.405  0.00  0.00    +0.000 C 
ATOM     23  O   UNL     1       6.242   6.150  16.346  0.00  0.00    +0.000 OA
ATOM     24  N   UNL     1       6.115   4.062  15.345  0.00  0.00    +0.000 N 
ATOM     25  H   UNL     1       5.848   3.098  15.541  0.00  0.00    +0.000 HD
BRANCH  24  26
ATOM     26  C   UNL     1       6.299   4.530  13.999  0.00  0.00    +0.000 C 
ATOM     27  C   UNL     1       7.695   5.074  13.745  0.00  0.00    +0.000 C 
ATOM     28  C   UNL     1       7.766   5.131  12.224  0.00  0.00    +0.000 C 
ATOM     29  C   UNL     1       6.875   3.989  11.726  0.00  0.00    +0.000 C 
ATOM     30  C   UNL     1       6.173   3.423  12.959  0.00  0.00    +0.000 C 
ENDBRANCH  24  26
ENDBRANCH  19  22
ENDBRANCH  17  18
ENDBRANCH   6  17
TORSDOF 6
ENDMDL
MODEL 5
REMARK VINA RESULT:      -7.8      2.891      8.592
REMARK  Name = 
REMARK  7 active torsions:
REMARK  status: ('A' for Active; 'I' for Inactive)
REMARK    1  A    between atoms: C_1  and  C_2
REMARK    2  A    between atoms: C_5  and  S_6
REMARK    3  A    between atoms: S_6  and  N_9
REMARK    4  A    between atoms: C_14  and  C_15
REMARK    5  A    between atoms: C_15  and  N_16
REMARK    6  A    between atoms: C_17  and  C_19
REMARK    7  A    between atoms: N_21  and  C_22
REMARK                            x       y       z     vdW  Elec       q    Type
REMARK                         _______ _______ _______ _____ _____    ______ ____
ROOT
ATOM      1  N   UNL     1       0.640  10.156  20.732  0.00  0.00    +0.000 NA
ATOM      2  C   UNL     1      -0.757  10.100  21.199  0.00  0.00    +0.000 C 
ATOM      3  C   UNL     1      -0.760  10.351  22.700  0.00  0.00    +0.000 C 
ATOM      4  C   UNL     1       0.253   9.471  23.418  0.00  0.00    +0.000 C 
ATOM      5  O   UNL     1       1.524   9.481  22.784  0.00  0.00    +0.000 OA
ATOM      6  C   UNL     1       1.509   9.162  21.385  0.00  0.00    +0.000 C 
ENDROOT
BRANCH   1   7
ATOM      7  S   UNL     1       0.938  10.394  19.086  0.00  0.00    +0.000 S 
ATOM      8  O   UNL     1       1.493   9.158  18.569  0.00  0.00    +0.000 OA
ATOM      9  O   UNL     1       1.616  11.658  18.912  0.00  0.00    +0.000 OA
BRANCH   7  14
ATOM     10  C   UNL     1      -4.520  11.354  16.593  0.00  0.00    +0.000 C 
ATOM     11  C   UNL     1      -3.198  11.087  17.256  0.00  0.00    +0.000 A 
ATOM     12  C   UNL     1      -2.677  11.979  18.202  0.00  0.00    +0.000 A 
ATOM     13  C   UNL     1      -1.426  11.746  18.777  0.00  0.00    +0.000 A 
ATOM     14  C   UNL     1      -0.694  10.612  18.412  0.00  0.00    +0.000 A 
ATOM     15  C   UNL     1      -1.207   9.706  17.482  0.00  0.00    +0.000 A 
ATOM     16  C   UNL     1      -2.459   9.947  16.908  0.00  0.00    +0.000 A 
ENDBRANCH   7  14
ENDBRANCH   1   7
BRANCH   6  17
ATOM     17  C   UNL     1       1.103   7.688  21.113  0.00  0.00    +0.000 C 
BRANCH  17  18
ATOM     18  N   UNL     1       2.143   6.929  20.452  0.00  0.00    +0.000 N 
ATOM     19  C   UNL     1       2.093   5.563  20.310  0.00  0.00    +0.000 C 
ATOM     20  O   UNL     1       1.238   4.817  20.753  0.00  0.00    +0.000 OA
ATOM     21  H   UNL     1       2.867   7.404  19.917  0.00  0.00    +0.000 HD
BRANCH  19  22
ATOM     22  C   UNL     1       3.295   5.014  19.514  0.00  0.00    +0.000 C 
ATOM     23  O   UNL     1       3.887   4.022  19.921  0.00  0.00    +0.000 OA
ATOM     24  N   UNL     1       3.572   5.710  18.363  0.00  0.00    +0.000 N 
ATOM     25  H   UNL     1       3.078   6.591  18.229  0.00  0.00    +0.000 HD
BRANCH  24  26
ATOM     26  C   UNL     1       4.650   5.318  17.498  0.00  0.00    +0.000 C 
ATOM     27  C   UNL     1       4.335   4.075  16.681  0.00  0.00    +0.000 C 
ATOM     28  C   UNL     1       5.413   4.093  15.606  0.00  0.00    +0.000 C 
ATOM     29  C   UNL     1       5.731   5.570  15.362  0.00  0.00    +0.000 C 
ATOM     30  C   UNL     1       4.966   6.355  16.426  0.00  0.00    +0.000 C 
ENDBRANCH  24  26
ENDBRANCH  19  22
ENDBRANCH  17  18
ENDBRANCH   6  17
TORSDOF 6
ENDMDL
MODEL 6
REMARK VINA RESULT:      -7.8      0.708      1.213
REMARK  Name = 
REMARK  7 active torsions:
REMARK  status: ('A' for Active; 'I' for Inactive)
REMARK    1  A    between atoms: C_1  and  C_2
REMARK    2  A    between atoms: C_5  and  S_6
REMARK    3  A    between atoms: S_6  and  N_9
REMARK    4  A    between atoms: C_14  and  C_15
REMARK    5  A    between atoms: C_15  and  N_16
REMARK    6  A    between atoms: C_17  and  C_19
REMARK    7  A    between atoms: N_21  and  C_22
REMARK                            x       y       z     vdW  Elec       q    Type
REMARK                         _______ _______ _______ _____ _____    ______ ____
ROOT
ATOM      1  N   UNL     1       4.275   3.720  17.882  0.00  0.00    +0.000 NA
ATOM      2  C   UNL     1       4.278   2.778  19.016  0.00  0.00    +0.000 C 
ATOM      3  C   UNL     1       3.316   1.646  18.688  0.00  0.00    +0.000 C 
ATOM      4  C   UNL     1       1.967   2.174  18.222  0.00  0.00    +0.000 C 
ATOM      5  O   UNL     1       2.095   3.192  17.239  0.00  0.00    +0.000 OA
ATOM      6  C   UNL     1       2.944   4.288  17.606  0.00  0.00    +0.000 C 
ENDROOT
BRANCH   1   7
ATOM      7  S   UNL     1       5.562   4.804  17.721  0.00  0.00    +0.000 S 
ATOM      8  O   UNL     1       6.622   4.340  18.595  0.00  0.00    +0.000 OA
ATOM      9  O   UNL     1       5.051   6.152  17.803  0.00  0.00    +0.000 OA
BRANCH   7  14
ATOM     10  C   UNL     1       7.082   4.209  11.868  0.00  0.00    +0.000 C 
ATOM     11  C   UNL     1       6.738   4.305  13.327  0.00  0.00    +0.000 A 
ATOM     12  C   UNL     1       5.604   3.663  13.840  0.00  0.00    +0.000 A 
ATOM     13  C   UNL     1       5.266   3.797  15.189  0.00  0.00    +0.000 A 
ATOM     14  C   UNL     1       6.071   4.569  16.032  0.00  0.00    +0.000 A 
ATOM     15  C   UNL     1       7.213   5.202  15.539  0.00  0.00    +0.000 A 
ATOM     16  C   UNL     1       7.543   5.066  14.187  0.00  0.00    +0.000 A 
ENDBRANCH   7  14
ENDBRANCH   1   7
BRANCH   6  17
ATOM     17  C   UNL     1       2.360   5.133  18.770  0.00  0.00    +0.000 C 
BRANCH  17  18
ATOM     18  N   UNL     1       1.978   6.468  18.362  0.00  0.00    +0.000 N 
ATOM     19  C   UNL     1       2.061   7.555  19.198  0.00  0.00    +0.000 C 
ATOM     20  O   UNL     1       2.395   7.547  20.370  0.00  0.00    +0.000 OA
ATOM     21  H   UNL     1       1.794   6.676  17.383  0.00  0.00    +0.000 HD
BRANCH  19  22
ATOM     22  C   UNL     1       1.651   8.866  18.495  0.00  0.00    +0.000 C 
ATOM     23  O   UNL     1       2.153   9.154  17.416  0.00  0.00    +0.000 OA
ATOM     24  N   UNL     1       0.701   9.593  19.170  0.00  0.00    +0.000 N 
ATOM     25  H   UNL     1       0.481   9.292  20.118  0.00  0.00    +0.000 HD
BRANCH  24  26
ATOM     26  C   UNL     1       0.198  10.831  18.642  0.00  0.00    +0.000 C 
ATOM     27  C   UNL     1      -1.197  10.702  18.051  0.00  0.00    +0.000 C 
ATOM     28  C   UNL     1      -1.650  12.151  17.929  0.00  0.00    +0.000 C 
ATOM     29  C   UNL     1      -0.957  12.898  19.071  0.00  0.00    +0.000 C 
ATOM     30  C   UNL     1       0.015  11.906  19.706  0.00  0.00    +0.000 C 
ENDBRANCH  24  26
ENDBRANCH  19  22
ENDBRANCH  17  18
ENDBRANCH   6  17
TORSDOF 6
ENDMDL
MODEL 7
REMARK VINA RESULT:      -7.7      2.965      8.641
REMARK  Name = 
REMARK  7 active torsions:
REMARK  status: ('A' for Active; 'I' for Inactive)
REMARK    1  A    between atoms: C_1  and  C_2
REMARK    2  A    between atoms: C_5  and  S_6
REMARK    3  A    between atoms: S_6  and  N_9
REMARK    4  A    between atoms: C_14  and  C_15
REMARK    5  A    between atoms: C_15  and  N_16
REMARK    6  A    between atoms: C_17  and  C_19
REMARK    7  A    between atoms: N_21  and  C_22
REMARK                            x       y       z     vdW  Elec       q    Type
REMARK                         _______ _______ _______ _____ _____    ______ ____
ROOT
ATOM      1  N   UNL     1       0.551  10.134  20.619  0.00  0.00    +0.000 NA
ATOM      2  C   UNL     1      -0.827  10.089  21.139  0.00  0.00    +0.000 C 
ATOM      3  C   UNL     1      -0.778  10.406  22.626  0.00  0.00    +0.000 C 
ATOM      4  C   UNL     1       0.268   9.566  23.344  0.00  0.00    +0.000 C 
ATOM      5  O   UNL     1       1.515   9.557  22.664  0.00  0.00    +0.000 OA
ATOM      6  C   UNL     1       1.451   9.175  21.282  0.00  0.00    +0.000 C 
ENDROOT
BRANCH   1   7
ATOM      7  S   UNL     1       0.787  10.301  18.953  0.00  0.00    +0.000 S 
ATOM      8  O   UNL     1      -0.497  10.079  18.316  0.00  0.00    +0.000 OA
ATOM      9  O   UNL     1       1.961   9.552  18.570  0.00  0.00    +0.000 OA
BRANCH   7  14
ATOM     10  C   UNL     1       2.323  16.174  18.677  0.00  0.00    +0.000 C 
ATOM     11  C   UNL     1       1.917  14.727  18.690  0.00  0.00    +0.000 A 
ATOM     12  C   UNL     1       0.663  14.338  19.179  0.00  0.00    +0.000 A 
ATOM     13  C   UNL     1       0.314  12.986  19.230  0.00  0.00    +0.000 A 
ATOM     14  C   UNL     1       1.219  12.019  18.783  0.00  0.00    +0.000 A 
ATOM     15  C   UNL     1       2.465  12.392  18.279  0.00  0.00    +0.000 A 
ATOM     16  C   UNL     1       2.810  13.747  18.233  0.00  0.00    +0.000 A 
ENDBRANCH   7  14
ENDBRANCH   1   7
BRANCH   6  17
ATOM     17  C   UNL     1       1.049   7.689  21.090  0.00  0.00    +0.000 C 
BRANCH  17  18
ATOM     18  N   UNL     1       2.106   6.887  20.513  0.00  0.00    +0.000 N 
ATOM     19  C   UNL     1       1.996   5.531  20.325  0.00  0.00    +0.000 C 
ATOM     20  O   UNL     1       1.060   4.825  20.658  0.00  0.00    +0.000 OA
ATOM     21  H   UNL     1       2.906   7.332  20.067  0.00  0.00    +0.000 HD
BRANCH  19  22
ATOM     22  C   UNL     1       3.240   4.933  19.635  0.00  0.00    +0.000 C 
ATOM     23  O   UNL     1       3.385   3.717  19.600  0.00  0.00    +0.000 OA
ATOM     24  N   UNL     1       4.080   5.868  19.083  0.00  0.00    +0.000 N 
ATOM     25  H   UNL     1       3.896   6.843  19.312  0.00  0.00    +0.000 HD
BRANCH  24  26
ATOM     26  C   UNL     1       5.276   5.475  18.389  0.00  0.00    +0.000 C 
ATOM     27  C   UNL     1       5.687   6.463  17.308  0.00  0.00    +0.000 C 
ATOM     28  C   UNL     1       7.123   6.057  17.006  0.00  0.00    +0.000 C 
ATOM     29  C   UNL     1       7.682   5.503  18.320  0.00  0.00    +0.000 C 
ATOM     30  C   UNL     1       6.504   5.432  19.290  0.00  0.00    +0.000 C 
ENDBRANCH  24  26
ENDBRANCH  19  22
ENDBRANCH  17  18
ENDBRANCH   6  17
TORSDOF 6
ENDMDL
MODEL 8
REMARK VINA RESULT:      -7.7      1.711      2.098
REMARK  Name = 
REMARK  7 active torsions:
REMARK  status: ('A' for Active; 'I' for Inactive)
REMARK    1  A    between atoms: C_1  and  C_2
REMARK    2  A    between atoms: C_5  and  S_6
REMARK    3  A    between atoms: S_6  and  N_9
REMARK    4  A    between atoms: C_14  and  C_15
REMARK    5  A    between atoms: C_15  and  N_16
REMARK    6  A    between atoms: C_17  and  C_19
REMARK    7  A    between atoms: N_21  and  C_22
REMARK                            x       y       z     vdW  Elec       q    Type
REMARK                         _______ _______ _______ _____ _____    ______ ____
ROOT
ATOM      1  N   UNL     1       3.137   4.632  19.127  0.00  0.00    +0.000 NA
ATOM      2  C   UNL     1       3.532   3.522  20.013  0.00  0.00    +0.000 C 
ATOM      3  C   UNL     1       2.484   2.426  19.889  0.00  0.00    +0.000 C 
ATOM      4  C   UNL     1       1.075   2.979  20.046  0.00  0.00    +0.000 C 
ATOM      5  O   UNL     1       0.859   4.143  19.262  0.00  0.00    +0.000 OA
ATOM      6  C   UNL     1       1.816   5.194  19.458  0.00  0.00    +0.000 C 
ENDROOT
BRANCH   1   7
ATOM      7  S   UNL     1       4.305   5.768  18.676  0.00  0.00    +0.000 S 
ATOM      8  O   UNL     1       5.410   5.636  19.606  0.00  0.00    +0.000 OA
ATOM      9  O   UNL     1       3.657   7.038  18.446  0.00  0.00    +0.000 OA
BRANCH   7  14
ATOM     10  C   UNL     1       6.392   3.866  13.295  0.00  0.00    +0.000 C 
ATOM     11  C   UNL     1       5.819   4.333  14.603  0.00  0.00    +0.000 A 
ATOM     12  C   UNL     1       5.585   5.694  14.839  0.00  0.00    +0.000 A 
ATOM     13  C   UNL     1       5.096   6.122  16.076  0.00  0.00    +0.000 A 
ATOM     14  C   UNL     1       4.831   5.185  17.079  0.00  0.00    +0.000 A 
ATOM     15  C   UNL     1       5.045   3.824  16.853  0.00  0.00    +0.000 A 
ATOM     16  C   UNL     1       5.537   3.403  15.614  0.00  0.00    +0.000 A 
ENDBRANCH   7  14
ENDBRANCH   1   7
BRANCH   6  17
ATOM     17  C   UNL     1       1.731   5.824  20.874  0.00  0.00    +0.000 C 
BRANCH  17  18
ATOM     18  N   UNL     1       1.759   7.271  20.851  0.00  0.00    +0.000 N 
ATOM     19  C   UNL     1       0.683   8.043  21.214  0.00  0.00    +0.000 C 
ATOM     20  O   UNL     1      -0.423   7.644  21.535  0.00  0.00    +0.000 OA
ATOM     21  H   UNL     1       2.639   7.767  20.728  0.00  0.00    +0.000 HD
BRANCH  19  22
ATOM     22  C   UNL     1       1.002   9.552  21.159  0.00  0.00    +0.000 C 
ATOM     23  O   UNL     1       1.396  10.123  22.169  0.00  0.00    +0.000 OA
ATOM     24  N   UNL     1       0.829  10.118  19.920  0.00  0.00    +0.000 N 
ATOM     25  H   UNL     1       0.368   9.546  19.214  0.00  0.00    +0.000 HD
BRANCH  24  26
ATOM     26  C   UNL     1       1.099  11.511  19.694  0.00  0.00    +0.000 C 
ATOM     27  C   UNL     1       1.995  11.756  18.490  0.00  0.00    +0.000 C 
ATOM     28  C   UNL     1       1.816  13.246  18.231  0.00  0.00    +0.000 C 
ATOM     29  C   UNL     1       0.390  13.576  18.681  0.00  0.00    +0.000 C 
ATOM     30  C   UNL     1      -0.150  12.316  19.354  0.00  0.00    +0.000 C 
ENDBRANCH  24  26
ENDBRANCH  19  22
ENDBRANCH  17  18
ENDBRANCH   6  17
TORSDOF 6
ENDMDL
MODEL 9
REMARK VINA RESULT:      -7.7      2.545      3.315
REMARK  Name = 
REMARK  7 active torsions:
REMARK  status: ('A' for Active; 'I' for Inactive)
REMARK    1  A    between atoms: C_1  and  C_2
REMARK    2  A    between atoms: C_5  and  S_6
REMARK    3  A    between atoms: S_6  and  N_9
REMARK    4  A    between atoms: C_14  and  C_15
REMARK    5  A    between atoms: C_15  and  N_16
REMARK    6  A    between atoms: C_17  and  C_19
REMARK    7  A    between atoms: N_21  and  C_22
REMARK                            x       y       z     vdW  Elec       q    Type
REMARK                         _______ _______ _______ _____ _____    ______ ____
ROOT
ATOM      1  N   UNL     1       2.743   3.204  19.187  0.00  0.00    +0.000 NA
ATOM      2  C   UNL     1       3.618   2.825  20.311  0.00  0.00    +0.000 C 
ATOM      3  C   UNL     1       2.740   2.583  21.529  0.00  0.00    +0.000 C 
ATOM      4  C   UNL     1       1.767   3.732  21.756  0.00  0.00    +0.000 C 
ATOM      5  O   UNL     1       1.095   4.115  20.566  0.00  0.00    +0.000 OA
ATOM      6  C   UNL     1       1.950   4.417  19.454  0.00  0.00    +0.000 C 
ENDROOT
BRANCH   1   7
ATOM      7  S   UNL     1       3.339   3.072  17.611  0.00  0.00    +0.000 S 
ATOM      8  O   UNL     1       2.278   3.493  16.717  0.00  0.00    +0.000 OA
ATOM      9  O   UNL     1       3.989   1.791  17.463  0.00  0.00    +0.000 OA
BRANCH   7  14
ATOM     10  C   UNL     1       7.563   7.440  17.607  0.00  0.00    +0.000 C 
ATOM     11  C   UNL     1       6.554   6.328  17.569  0.00  0.00    +0.000 A 
ATOM     12  C   UNL     1       5.546   6.307  16.597  0.00  0.00    +0.000 A 
ATOM     13  C   UNL     1       4.584   5.294  16.599  0.00  0.00    +0.000 A 
ATOM     14  C   UNL     1       4.634   4.292  17.572  0.00  0.00    +0.000 A 
ATOM     15  C   UNL     1       5.641   4.291  18.538  0.00  0.00    +0.000 A 
ATOM     16  C   UNL     1       6.599   5.309  18.532  0.00  0.00    +0.000 A 
ENDBRANCH   7  14
ENDBRANCH   1   7
BRANCH   6  17
ATOM     17  C   UNL     1       2.802   5.694  19.685  0.00  0.00    +0.000 C 
BRANCH  17  18
ATOM     18  N   UNL     1       2.001   6.892  19.810  0.00  0.00    +0.000 N 
ATOM     19  C   UNL     1       2.136   7.970  18.969  0.00  0.00    +0.000 C 
ATOM     20  O   UNL     1       2.953   8.096  18.074  0.00  0.00    +0.000 OA
ATOM     21  H   UNL     1       1.189   6.908  20.424  0.00  0.00    +0.000 HD
BRANCH  19  22
ATOM     22  C   UNL     1       1.119   9.088  19.284  0.00  0.00    +0.000 C 
ATOM     23  O   UNL     1       0.593   9.701  18.364  0.00  0.00    +0.000 OA
ATOM     24  N   UNL     1       0.879   9.268  20.624  0.00  0.00    +0.000 N 
ATOM     25  H   UNL     1       1.492   8.775  21.271  0.00  0.00    +0.000 HD
BRANCH  24  26
ATOM     26  C   UNL     1      -0.055  10.258  21.085  0.00  0.00    +0.000 C 
ATOM     27  C   UNL     1      -0.483  10.045  22.529  0.00  0.00    +0.000 C 
ATOM     28  C   UNL     1      -1.124  11.377  22.893  0.00  0.00    +0.000 C 
ATOM     29  C   UNL     1      -0.387  12.432  22.063  0.00  0.00    +0.000 C 
ATOM     30  C   UNL     1       0.529  11.666  21.111  0.00  0.00    +0.000 C 
ENDBRANCH  24  26
ENDBRANCH  19  22
ENDBRANCH  17  18
ENDBRANCH   6  17
TORSDOF 6
ENDMDL
