MODEL 1
REMARK VINA RESULT:      -6.1      0.000      0.000
REMARK  Name = 
REMARK  9 active torsions:
REMARK  status: ('A' for Active; 'I' for Inactive)
REMARK    1  A    between atoms: C_1  and  C_2
REMARK    2  A    between atoms: C_2  and  N_3
REMARK    3  A    between atoms: N_3  and  C_4
REMARK    4  A    between atoms: N_3  and  C_6
REMARK    5  A    between atoms: C_4  and  C_5
REMARK    6  A    between atoms: C_6  and  C_7
REMARK    7  A    between atoms: C_7  and  C_8
REMARK    8  A    between atoms: C_8  and  N_9
REMARK    9  A    between atoms: C_10  and  C_12
REMARK                            x       y       z     vdW  Elec       q    Type
REMARK                         _______ _______ _______ _____ _____    ______ ____
ROOT
ATOM      1  N   UNL     1       4.776   3.689  17.450  0.00  0.00    +0.000 N 
ATOM      2  C   UNL     1       3.941   2.707  17.938  0.00  0.00    +0.000 C 
ATOM      3  O   UNL     1       3.864   1.597  17.418  0.00  0.00    +0.000 OA
ATOM      4  H   UNL     1       4.680   4.641  17.783  0.00  0.00    +0.000 HD
ENDROOT
BRANCH   2   5
ATOM      5  C   UNL     1       3.097   3.039  19.123  0.00  0.00    +0.000 A 
ATOM      6  C   UNL     1       1.914   3.797  19.020  0.00  0.00    +0.000 A 
ATOM      7 CL   UNL     1       1.331   4.498  17.550  0.00  0.00    +0.000 Cl
ATOM      8  C   UNL     1       1.102   4.018  20.140  0.00  0.00    +0.000 A 
ATOM      9  C   UNL     1       1.442   3.486  21.379  0.00  0.00    +0.000 A 
ATOM     10  C   UNL     1       2.611   2.747  21.502  0.00  0.00    +0.000 A 
ATOM     11  C   UNL     1       3.442   2.527  20.392  0.00  0.00    +0.000 A 
ATOM     12 CL   UNL     1       4.908   1.665  20.719  0.00  0.00    +0.000 Cl
ENDBRANCH   2   5
BRANCH   1  13
ATOM     13  C   UNL     1       5.567   3.492  16.249  0.00  0.00    +0.000 C 
BRANCH  13  14
ATOM     14  C   UNL     1       6.167   4.787  15.702  0.00  0.00    +0.000 C 
BRANCH  14  15
ATOM     15  C   UNL     1       5.239   6.008  15.787  0.00  0.00    +0.000 C 
BRANCH  15  16
ATOM     16  N   UNL     1       5.488   6.912  16.931  0.00  0.00    +0.000 NA
BRANCH  16  18
ATOM     17  C   UNL     1       3.194   7.664  17.671  0.00  0.00    +0.000 C 
ATOM     18  C   UNL     1       4.425   6.807  17.945  0.00  0.00    +0.000 C 
ENDBRANCH  16  18
BRANCH  16  19
ATOM     19  C   UNL     1       6.850   6.733  17.468  0.00  0.00    +0.000 C 
ATOM     20  C   UNL     1       7.703   7.993  17.592  0.00  0.00    +0.000 C 
ENDBRANCH  16  19
ENDBRANCH  15  16
ENDBRANCH  14  15
ENDBRANCH  13  14
ENDBRANCH   1  13
TORSDOF 7
ENDMDL
MODEL 2
REMARK VINA RESULT:      -6.1      2.773      4.282
REMARK  Name = 
REMARK  9 active torsions:
REMARK  status: ('A' for Active; 'I' for Inactive)
REMARK    1  A    between atoms: C_1  and  C_2
REMARK    2  A    between atoms: C_2  and  N_3
REMARK    3  A    between atoms: N_3  and  C_4
REMARK    4  A    between atoms: N_3  and  C_6
REMARK    5  A    between atoms: C_4  and  C_5
REMARK    6  A    between atoms: C_6  and  C_7
REMARK    7  A    between atoms: C_7  and  C_8
REMARK    8  A    between atoms: C_8  and  N_9
REMARK    9  A    between atoms: C_10  and  C_12
REMARK                            x       y       z     vdW  Elec       q    Type
REMARK                         _______ _______ _______ _____ _____    ______ ____
ROOT
ATOM      1  N   UNL     1       4.556   4.718  17.210  0.00  0.00    +0.000 N 
ATOM      2  C   UNL     1       4.564   4.363  18.542  0.00  0.00    +0.000 C 
ATOM      3  O   UNL     1       5.596   4.344  19.206  0.00  0.00    +0.000 OA
ATOM      4  H   UNL     1       3.729   4.547  16.649  0.00  0.00    +0.000 HD
ENDROOT
BRANCH   2   5
ATOM      5  C   UNL     1       3.265   3.970  19.163  0.00  0.00    +0.000 A 
ATOM      6  C   UNL     1       2.822   2.634  19.209  0.00  0.00    +0.000 A 
ATOM      7 CL   UNL     1       3.668   1.303  18.498  0.00  0.00    +0.000 Cl
ATOM      8  C   UNL     1       1.638   2.291  19.875  0.00  0.00    +0.000 A 
ATOM      9  C   UNL     1       0.877   3.264  20.513  0.00  0.00    +0.000 A 
ATOM     10  C   UNL     1       1.291   4.588  20.468  0.00  0.00    +0.000 A 
ATOM     11  C   UNL     1       2.468   4.949  19.794  0.00  0.00    +0.000 A 
ATOM     12 CL   UNL     1       2.807   6.648  19.747  0.00  0.00    +0.000 Cl
ENDBRANCH   2   5
BRANCH   1  13
ATOM     13  C   UNL     1       5.780   5.028  16.495  0.00  0.00    +0.000 C 
BRANCH  13  14
ATOM     14  C   UNL     1       5.586   5.128  14.982  0.00  0.00    +0.000 C 
BRANCH  14  15
ATOM     15  C   UNL     1       6.253   4.003  14.176  0.00  0.00    +0.000 C 
BRANCH  15  16
ATOM     16  N   UNL     1       6.090   4.095  12.709  0.00  0.00    +0.000 NA
BRANCH  16  18
ATOM     17  C   UNL     1       8.119   5.586  12.511  0.00  0.00    +0.000 C 
ATOM     18  C   UNL     1       7.377   4.341  12.036  0.00  0.00    +0.000 C 
ENDBRANCH  16  18
BRANCH  16  19
ATOM     19  C   UNL     1       5.348   2.936  12.178  0.00  0.00    +0.000 C 
ATOM     20  C   UNL     1       4.210   3.244  11.207  0.00  0.00    +0.000 C 
ENDBRANCH  16  19
ENDBRANCH  15  16
ENDBRANCH  14  15
ENDBRANCH  13  14
ENDBRANCH   1  13
TORSDOF 7
ENDMDL
MODEL 3
REMARK VINA RESULT:      -6.0      2.639      3.890
REMARK  Name = 
REMARK  9 active torsions:
REMARK  status: ('A' for Active; 'I' for Inactive)
REMARK    1  A    between atoms: C_1  and  C_2
REMARK    2  A    between atoms: C_2  and  N_3
REMARK    3  A    between atoms: N_3  and  C_4
REMARK    4  A    between atoms: N_3  and  C_6
REMARK    5  A    between atoms: C_4  and  C_5
REMARK    6  A    between atoms: C_6  and  C_7
REMARK    7  A    between atoms: C_7  and  C_8
REMARK    8  A    between atoms: C_8  and  N_9
REMARK    9  A    between atoms: C_10  and  C_12
REMARK                            x       y       z     vdW  Elec       q    Type
REMARK                         _______ _______ _______ _____ _____    ______ ____
ROOT
ATOM      1  N   UNL     1       4.423   4.894  17.232  0.00  0.00    +0.000 N 
ATOM      2  C   UNL     1       4.492   4.354  18.498  0.00  0.00    +0.000 C 
ATOM      3  O   UNL     1       5.560   4.194  19.083  0.00  0.00    +0.000 OA
ATOM      4  H   UNL     1       3.557   4.842  16.710  0.00  0.00    +0.000 HD
ENDROOT
BRANCH   2   5
ATOM      5  C   UNL     1       3.214   3.936  19.145  0.00  0.00    +0.000 A 
ATOM      6  C   UNL     1       2.802   2.591  19.208  0.00  0.00    +0.000 A 
ATOM      7 CL   UNL     1       3.665   1.274  18.491  0.00  0.00    +0.000 Cl
ATOM      8  C   UNL     1       1.638   2.226  19.897  0.00  0.00    +0.000 A 
ATOM      9  C   UNL     1       0.867   3.186  20.542  0.00  0.00    +0.000 A 
ATOM     10  C   UNL     1       1.249   4.519  20.481  0.00  0.00    +0.000 A 
ATOM     11  C   UNL     1       2.406   4.902  19.784  0.00  0.00    +0.000 A 
ATOM     12 CL   UNL     1       2.706   6.607  19.719  0.00  0.00    +0.000 Cl
ENDBRANCH   2   5
BRANCH   1  13
ATOM     13  C   UNL     1       5.617   5.246  16.486  0.00  0.00    +0.000 C 
BRANCH  13  14
ATOM     14  C   UNL     1       6.172   4.090  15.654  0.00  0.00    +0.000 C 
BRANCH  14  15
ATOM     15  C   UNL     1       6.873   4.514  14.355  0.00  0.00    +0.000 C 
BRANCH  15  16
ATOM     16  N   UNL     1       6.484   3.752  13.149  0.00  0.00    +0.000 NA
BRANCH  16  18
ATOM     17  C   UNL     1       4.555   3.193  11.619  0.00  0.00    +0.000 C 
ATOM     18  C   UNL     1       5.024   3.746  12.960  0.00  0.00    +0.000 C 
ENDBRANCH  16  18
BRANCH  16  19
ATOM     19  C   UNL     1       7.241   4.200  11.965  0.00  0.00    +0.000 C 
ATOM     20  C   UNL     1       7.901   5.574  12.059  0.00  0.00    +0.000 C 
ENDBRANCH  16  19
ENDBRANCH  15  16
ENDBRANCH  14  15
ENDBRANCH  13  14
ENDBRANCH   1  13
TORSDOF 7
ENDMDL
MODEL 4
REMARK VINA RESULT:      -6.0      2.218      3.247
REMARK  Name = 
REMARK  9 active torsions:
REMARK  status: ('A' for Active; 'I' for Inactive)
REMARK    1  A    between atoms: C_1  and  C_2
REMARK    2  A    between atoms: C_2  and  N_3
REMARK    3  A    between atoms: N_3  and  C_4
REMARK    4  A    between atoms: N_3  and  C_6
REMARK    5  A    between atoms: C_4  and  C_5
REMARK    6  A    between atoms: C_6  and  C_7
REMARK    7  A    between atoms: C_7  and  C_8
REMARK    8  A    between atoms: C_8  and  N_9
REMARK    9  A    between atoms: C_10  and  C_12
REMARK                            x       y       z     vdW  Elec       q    Type
REMARK                         _______ _______ _______ _____ _____    ______ ____
ROOT
ATOM      1  N   UNL     1       3.616   6.161  17.648  0.00  0.00    +0.000 N 
ATOM      2  C   UNL     1       3.841   5.405  18.779  0.00  0.00    +0.000 C 
ATOM      3  O   UNL     1       4.875   5.503  19.435  0.00  0.00    +0.000 OA
ATOM      4  H   UNL     1       2.846   5.927  17.033  0.00  0.00    +0.000 HD
ENDROOT
BRANCH   2   5
ATOM      5  C   UNL     1       2.788   4.427  19.181  0.00  0.00    +0.000 A 
ATOM      6  C   UNL     1       1.751   4.757  20.074  0.00  0.00    +0.000 A 
ATOM      7 CL   UNL     1       1.602   6.285  20.871  0.00  0.00    +0.000 Cl
ATOM      8  C   UNL     1       0.731   3.841  20.363  0.00  0.00    +0.000 A 
ATOM      9  C   UNL     1       0.717   2.585  19.766  0.00  0.00    +0.000 A 
ATOM     10  C   UNL     1       1.738   2.237  18.893  0.00  0.00    +0.000 A 
ATOM     11  C   UNL     1       2.773   3.140  18.603  0.00  0.00    +0.000 A 
ATOM     12 CL   UNL     1       4.023   2.532  17.568  0.00  0.00    +0.000 Cl
ENDBRANCH   2   5
BRANCH   1  13
ATOM     13  C   UNL     1       4.618   7.072  17.127  0.00  0.00    +0.000 C 
BRANCH  13  14
ATOM     14  C   UNL     1       5.129   6.678  15.741  0.00  0.00    +0.000 C 
BRANCH  14  15
ATOM     15  C   UNL     1       5.120   5.168  15.460  0.00  0.00    +0.000 C 
BRANCH  15  16
ATOM     16  N   UNL     1       6.453   4.540  15.339  0.00  0.00    +0.000 NA
BRANCH  16  18
ATOM     17  C   UNL     1       6.005   3.631  13.027  0.00  0.00    +0.000 C 
ATOM     18  C   UNL     1       6.894   4.472  13.936  0.00  0.00    +0.000 C 
ENDBRANCH  16  18
BRANCH  16  19
ATOM     19  C   UNL     1       7.429   5.175  16.245  0.00  0.00    +0.000 C 
ATOM     20  C   UNL     1       7.602   4.531  17.618  0.00  0.00    +0.000 C 
ENDBRANCH  16  19
ENDBRANCH  15  16
ENDBRANCH  14  15
ENDBRANCH  13  14
ENDBRANCH   1  13
TORSDOF 7
ENDMDL
MODEL 5
REMARK VINA RESULT:      -6.0      0.555      2.732
REMARK  Name = 
REMARK  9 active torsions:
REMARK  status: ('A' for Active; 'I' for Inactive)
REMARK    1  A    between atoms: C_1  and  C_2
REMARK    2  A    between atoms: C_2  and  N_3
REMARK    3  A    between atoms: N_3  and  C_4
REMARK    4  A    between atoms: N_3  and  C_6
REMARK    5  A    between atoms: C_4  and  C_5
REMARK    6  A    between atoms: C_6  and  C_7
REMARK    7  A    between atoms: C_7  and  C_8
REMARK    8  A    between atoms: C_8  and  N_9
REMARK    9  A    between atoms: C_10  and  C_12
REMARK                            x       y       z     vdW  Elec       q    Type
REMARK                         _______ _______ _______ _____ _____    ______ ____
ROOT
ATOM      1  N   UNL     1       4.936   3.608  17.682  0.00  0.00    +0.000 N 
ATOM      2  C   UNL     1       3.955   2.675  17.938  0.00  0.00    +0.000 C 
ATOM      3  O   UNL     1       3.782   1.695  17.218  0.00  0.00    +0.000 OA
ATOM      4  H   UNL     1       4.933   4.490  18.181  0.00  0.00    +0.000 HD
ENDROOT
BRANCH   2   5
ATOM      5  C   UNL     1       3.074   2.900  19.121  0.00  0.00    +0.000 A 
ATOM      6  C   UNL     1       3.437   2.499  20.421  0.00  0.00    +0.000 A 
ATOM      7 CL   UNL     1       4.888   1.639  20.806  0.00  0.00    +0.000 Cl
ATOM      8  C   UNL     1       2.624   2.803  21.521  0.00  0.00    +0.000 A 
ATOM      9  C   UNL     1       1.442   3.515  21.353  0.00  0.00    +0.000 A 
ATOM     10  C   UNL     1       1.061   3.908  20.077  0.00  0.00    +0.000 A 
ATOM     11  C   UNL     1       1.859   3.600  18.964  0.00  0.00    +0.000 A 
ATOM     12 CL   UNL     1       1.210   4.076  17.429  0.00  0.00    +0.000 Cl
ENDBRANCH   2   5
BRANCH   1  13
ATOM     13  C   UNL     1       5.782   3.525  16.506  0.00  0.00    +0.000 C 
BRANCH  13  14
ATOM     14  C   UNL     1       5.347   4.464  15.381  0.00  0.00    +0.000 C 
BRANCH  14  15
ATOM     15  C   UNL     1       5.781   5.926  15.564  0.00  0.00    +0.000 C 
BRANCH  15  16
ATOM     16  N   UNL     1       5.555   6.489  16.913  0.00  0.00    +0.000 NA
BRANCH  16  18
ATOM     17  C   UNL     1       7.696   6.511  18.250  0.00  0.00    +0.000 C 
ATOM     18  C   UNL     1       6.712   7.275  17.372  0.00  0.00    +0.000 C 
ENDBRANCH  16  18
BRANCH  16  19
ATOM     19  C   UNL     1       4.272   7.213  16.983  0.00  0.00    +0.000 C 
ATOM     20  C   UNL     1       3.367   6.880  18.167  0.00  0.00    +0.000 C 
ENDBRANCH  16  19
ENDBRANCH  15  16
ENDBRANCH  14  15
ENDBRANCH  13  14
ENDBRANCH   1  13
TORSDOF 7
ENDMDL
MODEL 6
REMARK VINA RESULT:      -5.9      2.654      3.686
REMARK  Name = 
REMARK  9 active torsions:
REMARK  status: ('A' for Active; 'I' for Inactive)
REMARK    1  A    between atoms: C_1  and  C_2
REMARK    2  A    between atoms: C_2  and  N_3
REMARK    3  A    between atoms: N_3  and  C_4
REMARK    4  A    between atoms: N_3  and  C_6
REMARK    5  A    between atoms: C_4  and  C_5
REMARK    6  A    between atoms: C_6  and  C_7
REMARK    7  A    between atoms: C_7  and  C_8
REMARK    8  A    between atoms: C_8  and  N_9
REMARK    9  A    between atoms: C_10  and  C_12
REMARK                            x       y       z     vdW  Elec       q    Type
REMARK                         _______ _______ _______ _____ _____    ______ ____
ROOT
ATOM      1  N   UNL     1       4.434   4.965  17.231  0.00  0.00    +0.000 N 
ATOM      2  C   UNL     1       4.517   4.359  18.466  0.00  0.00    +0.000 C 
ATOM      3  O   UNL     1       5.592   4.170  19.029  0.00  0.00    +0.000 OA
ATOM      4  H   UNL     1       3.562   4.939  16.716  0.00  0.00    +0.000 HD
ENDROOT
BRANCH   2   5
ATOM      5  C   UNL     1       3.246   3.908  19.104  0.00  0.00    +0.000 A 
ATOM      6  C   UNL     1       2.373   4.795  19.761  0.00  0.00    +0.000 A 
ATOM      7 CL   UNL     1       2.684   6.483  19.982  0.00  0.00    +0.000 Cl
ATOM      8  C   UNL     1       1.147   4.351  20.274  0.00  0.00    +0.000 A 
ATOM      9  C   UNL     1       0.763   3.022  20.139  0.00  0.00    +0.000 A 
ATOM     10  C   UNL     1       1.616   2.129  19.506  0.00  0.00    +0.000 A 
ATOM     11  C   UNL     1       2.853   2.556  18.997  0.00  0.00    +0.000 A 
ATOM     12 CL   UNL     1       3.847   1.312  18.315  0.00  0.00    +0.000 Cl
ENDBRANCH   2   5
BRANCH   1  13
ATOM     13  C   UNL     1       5.620   5.356  16.490  0.00  0.00    +0.000 C 
BRANCH  13  14
ATOM     14  C   UNL     1       5.507   5.094  14.989  0.00  0.00    +0.000 C 
BRANCH  14  15
ATOM     15  C   UNL     1       6.586   4.160  14.419  0.00  0.00    +0.000 C 
BRANCH  15  16
ATOM     16  N   UNL     1       6.230   3.482  13.154  0.00  0.00    +0.000 NA
BRANCH  16  18
ATOM     17  C   UNL     1       4.406   3.203  11.431  0.00  0.00    +0.000 C 
ATOM     18  C   UNL     1       4.802   3.647  12.834  0.00  0.00    +0.000 C 
ENDBRANCH  16  18
BRANCH  16  19
ATOM     19  C   UNL     1       7.139   3.877  12.061  0.00  0.00    +0.000 C 
ATOM     20  C   UNL     1       7.698   5.296  12.120  0.00  0.00    +0.000 C 
ENDBRANCH  16  19
ENDBRANCH  15  16
ENDBRANCH  14  15
ENDBRANCH  13  14
ENDBRANCH   1  13
TORSDOF 7
ENDMDL
MODEL 7
REMARK VINA RESULT:      -5.9      2.661      4.284
REMARK  Name = 
REMARK  9 active torsions:
REMARK  status: ('A' for Active; 'I' for Inactive)
REMARK    1  A    between atoms: C_1  and  C_2
REMARK    2  A    between atoms: C_2  and  N_3
REMARK    3  A    between atoms: N_3  and  C_4
REMARK    4  A    between atoms: N_3  and  C_6
REMARK    5  A    between atoms: C_4  and  C_5
REMARK    6  A    between atoms: C_6  and  C_7
REMARK    7  A    between atoms: C_7  and  C_8
REMARK    8  A    between atoms: C_8  and  N_9
REMARK    9  A    between atoms: C_10  and  C_12
REMARK                            x       y       z     vdW  Elec       q    Type
REMARK                         _______ _______ _______ _____ _____    ______ ____
ROOT
ATOM      1  N   UNL     1       5.570   4.237  17.672  0.00  0.00    +0.000 N 
ATOM      2  C   UNL     1       5.306   4.523  18.994  0.00  0.00    +0.000 C 
ATOM      3  O   UNL     1       6.155   4.997  19.742  0.00  0.00    +0.000 OA
ATOM      4  H   UNL     1       4.913   3.682  17.136  0.00  0.00    +0.000 HD
ENDROOT
BRANCH   2   5
ATOM      5  C   UNL     1       3.940   4.213  19.511  0.00  0.00    +0.000 A 
ATOM      6  C   UNL     1       3.626   2.988  20.129  0.00  0.00    +0.000 A 
ATOM      7 CL   UNL     1       4.735   1.671  20.301  0.00  0.00    +0.000 Cl
ATOM      8  C   UNL     1       2.357   2.764  20.679  0.00  0.00    +0.000 A 
ATOM      9  C   UNL     1       1.380   3.753  20.633  0.00  0.00    +0.000 A 
ATOM     10  C   UNL     1       1.667   4.963  20.016  0.00  0.00    +0.000 A 
ATOM     11  C   UNL     1       2.930   5.197  19.450  0.00  0.00    +0.000 A 
ATOM     12 CL   UNL     1       3.111   6.717  18.637  0.00  0.00    +0.000 Cl
ENDBRANCH   2   5
BRANCH   1  13
ATOM     13  C   UNL     1       6.892   4.418  17.101  0.00  0.00    +0.000 C 
BRANCH  13  14
ATOM     14  C   UNL     1       6.865   5.001  15.688  0.00  0.00    +0.000 C 
BRANCH  14  15
ATOM     15  C   UNL     1       6.226   4.088  14.631  0.00  0.00    +0.000 C 
BRANCH  15  16
ATOM     16  N   UNL     1       6.526   4.441  13.226  0.00  0.00    +0.000 NA
BRANCH  16  18
ATOM     17  C   UNL     1       8.023   6.029  11.957  0.00  0.00    +0.000 C 
ATOM     18  C   UNL     1       7.873   5.021  13.091  0.00  0.00    +0.000 C 
ENDBRANCH  16  18
BRANCH  16  19
ATOM     19  C   UNL     1       6.268   3.305  12.322  0.00  0.00    +0.000 C 
ATOM     20  C   UNL     1       4.827   3.127  11.848  0.00  0.00    +0.000 C 
ENDBRANCH  16  19
ENDBRANCH  15  16
ENDBRANCH  14  15
ENDBRANCH  13  14
ENDBRANCH   1  13
TORSDOF 7
ENDMDL
MODEL 8
REMARK VINA RESULT:      -5.8      1.702      2.776
REMARK  Name = 
REMARK  9 active torsions:
REMARK  status: ('A' for Active; 'I' for Inactive)
REMARK    1  A    between atoms: C_1  and  C_2
REMARK    2  A    between atoms: C_2  and  N_3
REMARK    3  A    between atoms: N_3  and  C_4
REMARK    4  A    between atoms: N_3  and  C_6
REMARK    5  A    between atoms: C_4  and  C_5
REMARK    6  A    between atoms: C_6  and  C_7
REMARK    7  A    between atoms: C_7  and  C_8
REMARK    8  A    between atoms: C_8  and  N_9
REMARK    9  A    between atoms: C_10  and  C_12
REMARK                            x       y       z     vdW  Elec       q    Type
REMARK                         _______ _______ _______ _____ _____    ______ ____
ROOT
ATOM      1  N   UNL     1       4.564   4.082  16.949  0.00  0.00    +0.000 N 
ATOM      2  C   UNL     1       3.251   3.814  17.271  0.00  0.00    +0.000 C 
ATOM      3  O   UNL     1       2.395   3.617  16.413  0.00  0.00    +0.000 OA
ATOM      4  H   UNL     1       5.198   4.420  17.663  0.00  0.00    +0.000 HD
ENDROOT
BRANCH   2   5
ATOM      5  C   UNL     1       2.882   3.795  18.717  0.00  0.00    +0.000 A 
ATOM      6  C   UNL     1       2.993   2.637  19.510  0.00  0.00    +0.000 A 
ATOM      7 CL   UNL     1       3.489   1.091  18.913  0.00  0.00    +0.000 Cl
ATOM      8  C   UNL     1       2.719   2.676  20.883  0.00  0.00    +0.000 A 
ATOM      9  C   UNL     1       2.336   3.864  21.496  0.00  0.00    +0.000 A 
ATOM     10  C   UNL     1       2.209   5.014  20.728  0.00  0.00    +0.000 A 
ATOM     11  C   UNL     1       2.469   4.987  19.348  0.00  0.00    +0.000 A 
ATOM     12 CL   UNL     1       2.179   6.475  18.508  0.00  0.00    +0.000 Cl
ENDBRANCH   2   5
BRANCH   1  13
ATOM     13  C   UNL     1       5.001   4.212  15.571  0.00  0.00    +0.000 C 
BRANCH  13  14
ATOM     14  C   UNL     1       6.266   5.056  15.416  0.00  0.00    +0.000 C 
BRANCH  14  15
ATOM     15  C   UNL     1       7.399   4.696  16.389  0.00  0.00    +0.000 C 
BRANCH  15  16
ATOM     16  N   UNL     1       7.718   5.729  17.398  0.00  0.00    +0.000 NA
BRANCH  16  18
ATOM     17  C   UNL     1       7.700   8.250  17.547  0.00  0.00    +0.000 C 
ATOM     18  C   UNL     1       6.966   6.972  17.156  0.00  0.00    +0.000 C 
ENDBRANCH  16  18
BRANCH  16  19
ATOM     19  C   UNL     1       7.578   5.201  18.768  0.00  0.00    +0.000 C 
ATOM     20  C   UNL     1       6.214   5.381  19.431  0.00  0.00    +0.000 C 
ENDBRANCH  16  19
ENDBRANCH  15  16
ENDBRANCH  14  15
ENDBRANCH  13  14
ENDBRANCH   1  13
TORSDOF 7
ENDMDL
MODEL 9
REMARK VINA RESULT:      -5.8      2.085      3.238
REMARK  Name = 
REMARK  9 active torsions:
REMARK  status: ('A' for Active; 'I' for Inactive)
REMARK    1  A    between atoms: C_1  and  C_2
REMARK    2  A    between atoms: C_2  and  N_3
REMARK    3  A    between atoms: N_3  and  C_4
REMARK    4  A    between atoms: N_3  and  C_6
REMARK    5  A    between atoms: C_4  and  C_5
REMARK    6  A    between atoms: C_6  and  C_7
REMARK    7  A    between atoms: C_7  and  C_8
REMARK    8  A    between atoms: C_8  and  N_9
REMARK    9  A    between atoms: C_10  and  C_12
REMARK                            x       y       z     vdW  Elec       q    Type
REMARK                         _______ _______ _______ _____ _____    ______ ____
ROOT
ATOM      1  N   UNL     1       3.384   6.214  17.825  0.00  0.00    +0.000 N 
ATOM      2  C   UNL     1       3.699   5.405  18.895  0.00  0.00    +0.000 C 
ATOM      3  O   UNL     1       4.757   5.516  19.508  0.00  0.00    +0.000 OA
ATOM      4  H   UNL     1       2.597   5.979  17.232  0.00  0.00    +0.000 HD
ENDROOT
BRANCH   2   5
ATOM      5  C   UNL     1       2.714   4.353  19.284  0.00  0.00    +0.000 A 
ATOM      6  C   UNL     1       2.762   3.045  18.766  0.00  0.00    +0.000 A 
ATOM      7 CL   UNL     1       3.896   2.509  17.574  0.00  0.00    +0.000 Cl
ATOM      8  C   UNL     1       1.873   2.060  19.217  0.00  0.00    +0.000 A 
ATOM      9  C   UNL     1       0.929   2.351  20.194  0.00  0.00    +0.000 A 
ATOM     10  C   UNL     1       0.858   3.639  20.708  0.00  0.00    +0.000 A 
ATOM     11  C   UNL     1       1.733   4.640  20.257  0.00  0.00    +0.000 A 
ATOM     12 CL   UNL     1       1.466   6.217  20.923  0.00  0.00    +0.000 Cl
ENDBRANCH   2   5
BRANCH   1  13
ATOM     13  C   UNL     1       4.315   7.204  17.316  0.00  0.00    +0.000 C 
BRANCH  13  14
ATOM     14  C   UNL     1       4.984   6.786  16.007  0.00  0.00    +0.000 C 
BRANCH  14  15
ATOM     15  C   UNL     1       6.388   6.182  16.170  0.00  0.00    +0.000 C 
BRANCH  15  16
ATOM     16  N   UNL     1       6.422   4.781  16.642  0.00  0.00    +0.000 NA
BRANCH  16  18
ATOM     17  C   UNL     1       6.751   4.359  14.174  0.00  0.00    +0.000 C 
ATOM     18  C   UNL     1       6.283   3.831  15.526  0.00  0.00    +0.000 C 
ENDBRANCH  16  18
BRANCH  16  19
ATOM     19  C   UNL     1       7.597   4.533  17.498  0.00  0.00    +0.000 C 
ATOM     20  C   UNL     1       7.840   5.533  18.626  0.00  0.00    +0.000 C 
ENDBRANCH  16  19
ENDBRANCH  15  16
ENDBRANCH  14  15
ENDBRANCH  13  14
ENDBRANCH   1  13
TORSDOF 7
ENDMDL
