MODEL 1
REMARK VINA RESULT:     -10.1      0.000      0.000
REMARK  Name = 
REMARK  5 active torsions:
REMARK  status: ('A' for Active; 'I' for Inactive)
REMARK    1  A    between atoms: C_1  and  N_2
REMARK    2  A    between atoms: C_9  and  C_10
REMARK    3  A    between atoms: C_13  and  C_14
REMARK    4  A    between atoms: C_20  and  N_21
REMARK    5  A    between atoms: N_21  and  C_22
REMARK                            x       y       z     vdW  Elec       q    Type
REMARK                         _______ _______ _______ _____ _____    ______ ____
ROOT
ATOM      1  C   UNL     1      -1.634  12.325  23.224  0.00  0.00    +0.000 C 
ATOM      2  N   UNL     1      -1.454  11.230  22.273  0.00  0.00    +0.000 NA
ATOM      3  C   UNL     1      -0.549  10.197  22.838  0.00  0.00    +0.000 C 
ATOM      4  C   UNL     1      -0.221   9.054  21.841  0.00  0.00    +0.000 C 
ATOM      5  N   UNL     1       0.325   9.634  20.609  0.00  0.00    +0.000 N 
ATOM      6  C   UNL     1       1.193   8.902  19.827  0.00  0.00    +0.000 A 
ATOM      7  N   UNL     1       1.581   9.378  18.638  0.00  0.00    +0.000 NA
ATOM      8  C   UNL     1       2.466   8.637  17.923  0.00  0.00    +0.000 A 
ATOM      9  C   UNL     1       2.995   7.413  18.301  0.00  0.00    +0.000 A 
ATOM     10  C   UNL     1       2.549   7.020  19.555  0.00  0.00    +0.000 A 
ATOM     11  N   UNL     1       1.694   7.757  20.305  0.00  0.00    +0.000 NA
ATOM     12  C   UNL     1      -0.569  10.609  19.980  0.00  0.00    +0.000 C 
ATOM     13  C   UNL     1      -0.886  11.736  20.999  0.00  0.00    +0.000 C 
ENDROOT
BRANCH   9  14
ATOM     14  C   UNL     1       3.795   6.585  17.362  0.00  0.00    +0.000 A 
ATOM     15  C   UNL     1       3.848   5.177  17.386  0.00  0.00    +0.000 A 
ATOM     16  C   UNL     1       4.623   4.446  16.461  0.00  0.00    +0.000 A 
ATOM     17  C   UNL     1       5.393   5.101  15.491  0.00  0.00    +0.000 A 
ATOM     18  C   UNL     1       5.318   6.498  15.429  0.00  0.00    +0.000 A 
ATOM     19  C   UNL     1       4.541   7.216  16.346  0.00  0.00    +0.000 A 
BRANCH  17  20
ATOM     20  C   UNL     1       6.290   4.354  14.532  0.00  0.00    +0.000 C 
ATOM     21  F   UNL     1       5.689   4.046  13.349  0.00  0.00    +0.000 F 
ATOM     22  F   UNL     1       7.418   5.046  14.211  0.00  0.00    +0.000 F 
ATOM     23  F   UNL     1       6.719   3.166  15.045  0.00  0.00    +0.000 F 
ENDBRANCH  17  20
ENDBRANCH   9  14
BRANCH  10  24
ATOM     24  N   UNL     1       2.996   5.794  20.100  0.00  0.00    +0.000 N 
ATOM     25  H   UNL     1       3.719   6.029  20.776  0.00  0.00    +0.000 HD
BRANCH  24  26
ATOM     26  C   UNL     1       1.947   4.991  20.705  0.00  0.00    +0.000 C 
ATOM     27  C   UNL     1       2.552   3.899  21.613  0.00  0.00    +0.000 C 
ATOM     28  C   UNL     1       1.896   2.608  21.089  0.00  0.00    +0.000 C 
ATOM     29  C   UNL     1       2.546   2.213  19.754  0.00  0.00    +0.000 C 
ATOM     30  C   UNL     1       2.032   3.290  18.791  0.00  0.00    +0.000 C 
ATOM     31  C   UNL     1       1.127   4.156  19.688  0.00  0.00    +0.000 C 
ATOM     32  C   UNL     1       0.528   3.111  20.627  0.00  0.00    +0.000 C 
ENDBRANCH  24  26
ENDBRANCH  10  24
TORSDOF 4
ENDMDL
MODEL 2
REMARK VINA RESULT:      -8.9      0.585      1.511
REMARK  Name = 
REMARK  5 active torsions:
REMARK  status: ('A' for Active; 'I' for Inactive)
REMARK    1  A    between atoms: C_1  and  N_2
REMARK    2  A    between atoms: C_9  and  C_10
REMARK    3  A    between atoms: C_13  and  C_14
REMARK    4  A    between atoms: C_20  and  N_21
REMARK    5  A    between atoms: N_21  and  C_22
REMARK                            x       y       z     vdW  Elec       q    Type
REMARK                         _______ _______ _______ _____ _____    ______ ____
ROOT
ATOM      1  C   UNL     1      -1.753  12.002  23.434  0.00  0.00    +0.000 C 
ATOM      2  N   UNL     1      -1.534  10.953  22.440  0.00  0.00    +0.000 NA
ATOM      3  C   UNL     1      -0.650   9.894  22.991  0.00  0.00    +0.000 C 
ATOM      4  C   UNL     1      -0.281   8.800  21.954  0.00  0.00    +0.000 C 
ATOM      5  N   UNL     1       0.311   9.439  20.773  0.00  0.00    +0.000 N 
ATOM      6  C   UNL     1       1.211   8.744  19.992  0.00  0.00    +0.000 A 
ATOM      7  N   UNL     1       1.644   9.277  18.843  0.00  0.00    +0.000 NA
ATOM      8  C   UNL     1       2.557   8.570  18.128  0.00  0.00    +0.000 A 
ATOM      9  C   UNL     1       3.073   7.330  18.468  0.00  0.00    +0.000 A 
ATOM     10  C   UNL     1       2.579   6.878  19.683  0.00  0.00    +0.000 A 
ATOM     11  N   UNL     1       1.694   7.578  20.434  0.00  0.00    +0.000 NA
ATOM     12  C   UNL     1      -0.559  10.442  20.157  0.00  0.00    +0.000 C 
ATOM     13  C   UNL     1      -0.917  11.519  21.215  0.00  0.00    +0.000 C 
ENDROOT
BRANCH   9  14
ATOM     14  C   UNL     1       3.911   6.547  17.523  0.00  0.00    +0.000 A 
ATOM     15  C   UNL     1       5.175   6.953  17.052  0.00  0.00    +0.000 A 
ATOM     16  C   UNL     1       5.927   6.160  16.159  0.00  0.00    +0.000 A 
ATOM     17  C   UNL     1       5.428   4.940  15.686  0.00  0.00    +0.000 A 
ATOM     18  C   UNL     1       4.191   4.504  16.178  0.00  0.00    +0.000 A 
ATOM     19  C   UNL     1       3.455   5.292  17.070  0.00  0.00    +0.000 A 
BRANCH  17  20
ATOM     20  C   UNL     1       6.172   4.100  14.675  0.00  0.00    +0.000 C 
ATOM     21  F   UNL     1       7.437   4.539  14.425  0.00  0.00    +0.000 F 
ATOM     22  F   UNL     1       6.295   2.798  15.053  0.00  0.00    +0.000 F 
ATOM     23  F   UNL     1       5.547   4.075  13.464  0.00  0.00    +0.000 F 
ENDBRANCH  17  20
ENDBRANCH   9  14
BRANCH  10  24
ATOM     24  N   UNL     1       3.007   5.626  20.186  0.00  0.00    +0.000 N 
ATOM     25  H   UNL     1       2.745   5.610  21.169  0.00  0.00    +0.000 HD
BRANCH  24  26
ATOM     26  C   UNL     1       2.467   4.481  19.475  0.00  0.00    +0.000 C 
ATOM     27  C   UNL     1       0.962   4.313  19.777  0.00  0.00    +0.000 C 
ATOM     28  C   UNL     1       0.862   2.846  20.237  0.00  0.00    +0.000 C 
ATOM     29  C   UNL     1       1.419   2.721  21.663  0.00  0.00    +0.000 C 
ATOM     30  C   UNL     1       2.925   2.929  21.462  0.00  0.00    +0.000 C 
ATOM     31  C   UNL     1       3.049   3.120  19.938  0.00  0.00    +0.000 C 
ATOM     32  C   UNL     1       1.966   2.179  19.417  0.00  0.00    +0.000 C 
ENDBRANCH  24  26
ENDBRANCH  10  24
TORSDOF 4
ENDMDL
MODEL 3
REMARK VINA RESULT:      -8.1      0.725      1.081
REMARK  Name = 
REMARK  5 active torsions:
REMARK  status: ('A' for Active; 'I' for Inactive)
REMARK    1  A    between atoms: C_1  and  N_2
REMARK    2  A    between atoms: C_9  and  C_10
REMARK    3  A    between atoms: C_13  and  C_14
REMARK    4  A    between atoms: C_20  and  N_21
REMARK    5  A    between atoms: N_21  and  C_22
REMARK                            x       y       z     vdW  Elec       q    Type
REMARK                         _______ _______ _______ _____ _____    ______ ____
ROOT
ATOM      1  C   UNL     1      -1.583  11.619  23.565  0.00  0.00    +0.000 C 
ATOM      2  N   UNL     1      -1.337  10.615  22.533  0.00  0.00    +0.000 NA
ATOM      3  C   UNL     1      -0.426   9.560  23.043  0.00  0.00    +0.000 C 
ATOM      4  C   UNL     1      -0.028   8.515  21.966  0.00  0.00    +0.000 C 
ATOM      5  N   UNL     1       0.547   9.213  20.812  0.00  0.00    +0.000 N 
ATOM      6  C   UNL     1       1.464   8.572  20.005  0.00  0.00    +0.000 A 
ATOM      7  N   UNL     1       1.884   9.159  18.878  0.00  0.00    +0.000 NA
ATOM      8  C   UNL     1       2.815   8.504  18.138  0.00  0.00    +0.000 A 
ATOM      9  C   UNL     1       3.363   7.265  18.431  0.00  0.00    +0.000 A 
ATOM     10  C   UNL     1       2.881   6.755  19.628  0.00  0.00    +0.000 A 
ATOM     11  N   UNL     1       1.978   7.403  20.404  0.00  0.00    +0.000 NA
ATOM     12  C   UNL     1      -0.349  10.217  20.233  0.00  0.00    +0.000 C 
ATOM     13  C   UNL     1      -0.735  11.243  21.330  0.00  0.00    +0.000 C 
ENDROOT
BRANCH   9  14
ATOM     14  C   UNL     1       4.222   6.541  17.458  0.00  0.00    +0.000 A 
ATOM     15  C   UNL     1       5.497   6.971  17.044  0.00  0.00    +0.000 A 
ATOM     16  C   UNL     1       6.268   6.233  16.120  0.00  0.00    +0.000 A 
ATOM     17  C   UNL     1       5.777   5.047  15.560  0.00  0.00    +0.000 A 
ATOM     18  C   UNL     1       4.528   4.586  15.993  0.00  0.00    +0.000 A 
ATOM     19  C   UNL     1       3.773   5.319  16.916  0.00  0.00    +0.000 A 
BRANCH  17  20
ATOM     20  C   UNL     1       6.543   4.270  14.514  0.00  0.00    +0.000 C 
ATOM     21  F   UNL     1       6.003   3.052  14.235  0.00  0.00    +0.000 F 
ATOM     22  F   UNL     1       6.629   4.925  13.324  0.00  0.00    +0.000 F 
ATOM     23  F   UNL     1       7.829   4.023  14.893  0.00  0.00    +0.000 F 
ENDBRANCH  17  20
ENDBRANCH   9  14
BRANCH  10  24
ATOM     24  N   UNL     1       3.341   5.497  20.084  0.00  0.00    +0.000 N 
ATOM     25  H   UNL     1       4.096   5.690  20.738  0.00  0.00    +0.000 HD
BRANCH  24  26
ATOM     26  C   UNL     1       2.313   4.669  20.692  0.00  0.00    +0.000 C 
ATOM     27  C   UNL     1       2.815   3.220  20.869  0.00  0.00    +0.000 C 
ATOM     28  C   UNL     1       1.714   2.386  20.187  0.00  0.00    +0.000 C 
ATOM     29  C   UNL     1       1.850   2.514  18.662  0.00  0.00    +0.000 C 
ATOM     30  C   UNL     1       1.414   3.960  18.400  0.00  0.00    +0.000 C 
ATOM     31  C   UNL     1       1.055   4.476  19.807  0.00  0.00    +0.000 C 
ATOM     32  C   UNL     1       0.465   3.226  20.455  0.00  0.00    +0.000 C 
ENDBRANCH  24  26
ENDBRANCH  10  24
TORSDOF 4
ENDMDL
MODEL 4
REMARK VINA RESULT:      -8.0      1.062      1.279
REMARK  Name = 
REMARK  5 active torsions:
REMARK  status: ('A' for Active; 'I' for Inactive)
REMARK    1  A    between atoms: C_1  and  N_2
REMARK    2  A    between atoms: C_9  and  C_10
REMARK    3  A    between atoms: C_13  and  C_14
REMARK    4  A    between atoms: C_20  and  N_21
REMARK    5  A    between atoms: N_21  and  C_22
REMARK                            x       y       z     vdW  Elec       q    Type
REMARK                         _______ _______ _______ _____ _____    ______ ____
ROOT
ATOM      1  C   UNL     1      -2.206  13.225  21.773  0.00  0.00    +0.000 C 
ATOM      2  N   UNL     1      -1.894  12.066  20.939  0.00  0.00    +0.000 NA
ATOM      3  C   UNL     1      -1.188  11.031  21.734  0.00  0.00    +0.000 C 
ATOM      4  C   UNL     1      -0.723   9.815  20.889  0.00  0.00    +0.000 C 
ATOM      5  N   UNL     1       0.100  10.293  19.773  0.00  0.00    +0.000 N 
ATOM      6  C   UNL     1       1.069   9.476  19.231  0.00  0.00    +0.000 A 
ATOM      7  N   UNL     1       1.724   9.860  18.129  0.00  0.00    +0.000 NA
ATOM      8  C   UNL     1       2.695   9.037  17.656  0.00  0.00    +0.000 A 
ATOM      9  C   UNL     1       3.063   7.817  18.199  0.00  0.00    +0.000 A 
ATOM     10  C   UNL     1       2.342   7.522  19.348  0.00  0.00    +0.000 A 
ATOM     11  N   UNL     1       1.393   8.341  19.862  0.00  0.00    +0.000 NA
ATOM     12  C   UNL     1      -0.586  11.267  18.920  0.00  0.00    +0.000 C 
ATOM     13  C   UNL     1      -1.044  12.467  19.790  0.00  0.00    +0.000 C 
ENDROOT
BRANCH   9  14
ATOM     14  C   UNL     1       3.993   6.897  17.495  0.00  0.00    +0.000 A 
ATOM     15  C   UNL     1       3.643   5.619  17.016  0.00  0.00    +0.000 A 
ATOM     16  C   UNL     1       4.572   4.794  16.348  0.00  0.00    +0.000 A 
ATOM     17  C   UNL     1       5.895   5.211  16.154  0.00  0.00    +0.000 A 
ATOM     18  C   UNL     1       6.247   6.495  16.588  0.00  0.00    +0.000 A 
ATOM     19  C   UNL     1       5.317   7.311  17.243  0.00  0.00    +0.000 A 
BRANCH  17  20
ATOM     20  C   UNL     1       6.934   4.326  15.507  0.00  0.00    +0.000 C 
ATOM     21  F   UNL     1       6.427   3.170  14.997  0.00  0.00    +0.000 F 
ATOM     22  F   UNL     1       7.586   4.936  14.479  0.00  0.00    +0.000 F 
ATOM     23  F   UNL     1       7.906   3.944  16.384  0.00  0.00    +0.000 F 
ENDBRANCH  17  20
ENDBRANCH   9  14
BRANCH  10  24
ATOM     24  N   UNL     1       2.595   6.312  20.037  0.00  0.00    +0.000 N 
ATOM     25  H   UNL     1       2.520   6.528  21.029  0.00  0.00    +0.000 HD
BRANCH  24  26
ATOM     26  C   UNL     1       1.714   5.219  19.666  0.00  0.00    +0.000 C 
ATOM     27  C   UNL     1       0.870   4.764  20.876  0.00  0.00    +0.000 C 
ATOM     28  C   UNL     1       1.133   3.248  20.933  0.00  0.00    +0.000 C 
ATOM     29  C   UNL     1       2.539   2.996  21.499  0.00  0.00    +0.000 C 
ATOM     30  C   UNL     1       3.455   3.473  20.366  0.00  0.00    +0.000 C 
ATOM     31  C   UNL     1       2.459   3.915  19.276  0.00  0.00    +0.000 C 
ATOM     32  C   UNL     1       1.330   2.903  19.457  0.00  0.00    +0.000 C 
ENDBRANCH  24  26
ENDBRANCH  10  24
TORSDOF 4
ENDMDL
MODEL 5
REMARK VINA RESULT:      -8.0      3.065      6.161
REMARK  Name = 
REMARK  5 active torsions:
REMARK  status: ('A' for Active; 'I' for Inactive)
REMARK    1  A    between atoms: C_1  and  N_2
REMARK    2  A    between atoms: C_9  and  C_10
REMARK    3  A    between atoms: C_13  and  C_14
REMARK    4  A    between atoms: C_20  and  N_21
REMARK    5  A    between atoms: N_21  and  C_22
REMARK                            x       y       z     vdW  Elec       q    Type
REMARK                         _______ _______ _______ _____ _____    ______ ____
ROOT
ATOM      1  C   UNL     1      -4.141  15.764  24.462  0.00  0.00    +0.000 C 
ATOM      2  N   UNL     1      -3.165  15.369  23.448  0.00  0.00    +0.000 NA
ATOM      3  C   UNL     1      -3.789  14.458  22.456  0.00  0.00    +0.000 C 
ATOM      4  C   UNL     1      -2.785  13.906  21.410  0.00  0.00    +0.000 C 
ATOM      5  N   UNL     1      -1.670  13.259  22.110  0.00  0.00    +0.000 N 
ATOM      6  C   UNL     1      -0.972  12.237  21.501  0.00  0.00    +0.000 A 
ATOM      7  N   UNL     1       0.127  11.743  22.083  0.00  0.00    +0.000 NA
ATOM      8  C   UNL     1       0.757  10.712  21.462  0.00  0.00    +0.000 A 
ATOM      9  C   UNL     1       0.378  10.132  20.262  0.00  0.00    +0.000 A 
ATOM     10  C   UNL     1      -0.782  10.700  19.754  0.00  0.00    +0.000 A 
ATOM     11  N   UNL     1      -1.450  11.705  20.371  0.00  0.00    +0.000 NA
ATOM     12  C   UNL     1      -0.981  14.146  23.050  0.00  0.00    +0.000 C 
ATOM     13  C   UNL     1      -2.007  14.688  24.079  0.00  0.00    +0.000 C 
ENDROOT
BRANCH   9  14
ATOM     14  C   UNL     1       1.245   9.148  19.562  0.00  0.00    +0.000 A 
ATOM     15  C   UNL     1       1.810   9.348  18.287  0.00  0.00    +0.000 A 
ATOM     16  C   UNL     1       2.632   8.376  17.677  0.00  0.00    +0.000 A 
ATOM     17  C   UNL     1       2.900   7.159  18.315  0.00  0.00    +0.000 A 
ATOM     18  C   UNL     1       2.379   6.964  19.600  0.00  0.00    +0.000 A 
ATOM     19  C   UNL     1       1.570   7.935  20.201  0.00  0.00    +0.000 A 
BRANCH  17  20
ATOM     20  C   UNL     1       3.716   6.068  17.662  0.00  0.00    +0.000 C 
ATOM     21  F   UNL     1       4.271   6.437  16.475  0.00  0.00    +0.000 F 
ATOM     22  F   UNL     1       4.747   5.637  18.441  0.00  0.00    +0.000 F 
ATOM     23  F   UNL     1       2.972   4.958  17.389  0.00  0.00    +0.000 F 
ENDBRANCH  17  20
ENDBRANCH   9  14
BRANCH  10  24
ATOM     24  N   UNL     1      -1.315  10.221  18.534  0.00  0.00    +0.000 N 
ATOM     25  H   UNL     1      -1.155   9.216  18.528  0.00  0.00    +0.000 HD
BRANCH  24  26
ATOM     26  C   UNL     1      -2.719  10.535  18.331  0.00  0.00    +0.000 C 
ATOM     27  C   UNL     1      -3.480   9.303  17.798  0.00  0.00    +0.000 C 
ATOM     28  C   UNL     1      -4.179   9.845  16.537  0.00  0.00    +0.000 C 
ATOM     29  C   UNL     1      -3.145  10.006  15.412  0.00  0.00    +0.000 C 
ATOM     30  C   UNL     1      -2.301  11.194  15.890  0.00  0.00    +0.000 C 
ATOM     31  C   UNL     1      -2.974  11.586  17.220  0.00  0.00    +0.000 C 
ATOM     32  C   UNL     1      -4.444  11.301  16.920  0.00  0.00    +0.000 C 
ENDBRANCH  24  26
ENDBRANCH  10  24
TORSDOF 4
ENDMDL
MODEL 6
REMARK VINA RESULT:      -7.8      5.784     10.147
REMARK  Name = 
REMARK  5 active torsions:
REMARK  status: ('A' for Active; 'I' for Inactive)
REMARK    1  A    between atoms: C_1  and  N_2
REMARK    2  A    between atoms: C_9  and  C_10
REMARK    3  A    between atoms: C_13  and  C_14
REMARK    4  A    between atoms: C_20  and  N_21
REMARK    5  A    between atoms: N_21  and  C_22
REMARK                            x       y       z     vdW  Elec       q    Type
REMARK                         _______ _______ _______ _____ _____    ______ ____
ROOT
ATOM      1  C   UNL     1       5.653   4.421  18.195  0.00  0.00    +0.000 C 
ATOM      2  N   UNL     1       4.337   5.056  18.203  0.00  0.00    +0.000 NA
ATOM      3  C   UNL     1       4.437   6.460  17.733  0.00  0.00    +0.000 C 
ATOM      4  C   UNL     1       3.095   7.235  17.820  0.00  0.00    +0.000 C 
ATOM      5  N   UNL     1       2.585   7.160  19.193  0.00  0.00    +0.000 N 
ATOM      6  C   UNL     1       1.780   8.165  19.686  0.00  0.00    +0.000 A 
ATOM      7  N   UNL     1       1.206   8.029  20.887  0.00  0.00    +0.000 NA
ATOM      8  C   UNL     1       0.452   9.062  21.344  0.00  0.00    +0.000 A 
ATOM      9  C   UNL     1       0.202  10.247  20.670  0.00  0.00    +0.000 A 
ATOM     10  C   UNL     1       0.860  10.298  19.449  0.00  0.00    +0.000 A 
ATOM     11  N   UNL     1       1.646   9.296  18.985  0.00  0.00    +0.000 NA
ATOM     12  C   UNL     1       2.405   5.788  19.672  0.00  0.00    +0.000 C 
ATOM     13  C   UNL     1       3.758   5.035  19.569  0.00  0.00    +0.000 C 
ENDROOT
BRANCH   9  14
ATOM     14  C   UNL     1      -0.798  11.230  21.163  0.00  0.00    +0.000 A 
ATOM     15  C   UNL     1      -1.829  11.781  20.377  0.00  0.00    +0.000 A 
ATOM     16  C   UNL     1      -2.754  12.706  20.907  0.00  0.00    +0.000 A 
ATOM     17  C   UNL     1      -2.664  13.131  22.238  0.00  0.00    +0.000 A 
ATOM     18  C   UNL     1      -1.670  12.560  23.042  0.00  0.00    +0.000 A 
ATOM     19  C   UNL     1      -0.761  11.637  22.512  0.00  0.00    +0.000 A 
BRANCH  17  20
ATOM     20  C   UNL     1      -3.592  14.173  22.817  0.00  0.00    +0.000 C 
ATOM     21  F   UNL     1      -3.014  15.398  22.964  0.00  0.00    +0.000 F 
ATOM     22  F   UNL     1      -4.706  14.372  22.061  0.00  0.00    +0.000 F 
ATOM     23  F   UNL     1      -4.044  13.831  24.057  0.00  0.00    +0.000 F 
ENDBRANCH  17  20
ENDBRANCH   9  14
BRANCH  10  24
ATOM     24  N   UNL     1       0.719  11.443  18.630  0.00  0.00    +0.000 N 
ATOM     25  H   UNL     1      -0.185  11.850  18.863  0.00  0.00    +0.000 HD
BRANCH  24  26
ATOM     26  C   UNL     1       1.789  12.415  18.774  0.00  0.00    +0.000 C 
ATOM     27  C   UNL     1       2.056  12.714  20.265  0.00  0.00    +0.000 C 
ATOM     28  C   UNL     1       1.967  14.250  20.333  0.00  0.00    +0.000 C 
ATOM     29  C   UNL     1       0.493  14.677  20.253  0.00  0.00    +0.000 C 
ATOM     30  C   UNL     1       0.125  14.364  18.797  0.00  0.00    +0.000 C 
ATOM     31  C   UNL     1       1.443  13.819  18.214  0.00  0.00    +0.000 C 
ATOM     32  C   UNL     1       2.481  14.660  18.954  0.00  0.00    +0.000 C 
ENDBRANCH  24  26
ENDBRANCH  10  24
TORSDOF 4
ENDMDL
MODEL 7
REMARK VINA RESULT:      -7.7      2.936      5.984
REMARK  Name = 
REMARK  5 active torsions:
REMARK  status: ('A' for Active; 'I' for Inactive)
REMARK    1  A    between atoms: C_1  and  N_2
REMARK    2  A    between atoms: C_9  and  C_10
REMARK    3  A    between atoms: C_13  and  C_14
REMARK    4  A    between atoms: C_20  and  N_21
REMARK    5  A    between atoms: N_21  and  C_22
REMARK                            x       y       z     vdW  Elec       q    Type
REMARK                         _______ _______ _______ _____ _____    ______ ____
ROOT
ATOM      1  C   UNL     1      -3.748  15.656  24.568  0.00  0.00    +0.000 C 
ATOM      2  N   UNL     1      -2.931  15.213  23.439  0.00  0.00    +0.000 NA
ATOM      3  C   UNL     1      -3.611  14.116  22.707  0.00  0.00    +0.000 C 
ATOM      4  C   UNL     1      -2.754  13.516  21.561  0.00  0.00    +0.000 C 
ATOM      5  N   UNL     1      -1.462  13.084  22.104  0.00  0.00    +0.000 N 
ATOM      6  C   UNL     1      -0.769  12.055  21.501  0.00  0.00    +0.000 A 
ATOM      7  N   UNL     1       0.468  11.754  21.913  0.00  0.00    +0.000 NA
ATOM      8  C   UNL     1       1.093  10.709  21.312  0.00  0.00    +0.000 A 
ATOM      9  C   UNL     1       0.576   9.930  20.290  0.00  0.00    +0.000 A 
ATOM     10  C   UNL     1      -0.716  10.308  19.953  0.00  0.00    +0.000 A 
ATOM     11  N   UNL     1      -1.377  11.324  20.560  0.00  0.00    +0.000 NA
ATOM     12  C   UNL     1      -0.725  14.157  22.775  0.00  0.00    +0.000 C 
ATOM     13  C   UNL     1      -1.605  14.741  23.911  0.00  0.00    +0.000 C 
ENDROOT
BRANCH   9  14
ATOM     14  C   UNL     1       1.413   8.942  19.560  0.00  0.00    +0.000 A 
ATOM     15  C   UNL     1       1.914   9.129  18.257  0.00  0.00    +0.000 A 
ATOM     16  C   UNL     1       2.711   8.154  17.620  0.00  0.00    +0.000 A 
ATOM     17  C   UNL     1       3.015   6.945  18.258  0.00  0.00    +0.000 A 
ATOM     18  C   UNL     1       2.558   6.763  19.569  0.00  0.00    +0.000 A 
ATOM     19  C   UNL     1       1.775   7.738  20.197  0.00  0.00    +0.000 A 
BRANCH  17  20
ATOM     20  C   UNL     1       3.805   5.850  17.579  0.00  0.00    +0.000 C 
ATOM     21  F   UNL     1       3.049   4.777  17.216  0.00  0.00    +0.000 F 
ATOM     22  F   UNL     1       4.429   6.270  16.444  0.00  0.00    +0.000 F 
ATOM     23  F   UNL     1       4.790   5.351  18.378  0.00  0.00    +0.000 F 
ENDBRANCH  17  20
ENDBRANCH   9  14
BRANCH  10  24
ATOM     24  N   UNL     1      -1.400   9.612  18.928  0.00  0.00    +0.000 N 
ATOM     25  H   UNL     1      -2.313   9.371  19.307  0.00  0.00    +0.000 HD
BRANCH  24  26
ATOM     26  C   UNL     1      -1.522  10.350  17.683  0.00  0.00    +0.000 C 
ATOM     27  C   UNL     1      -2.210  11.712  17.923  0.00  0.00    +0.000 C 
ATOM     28  C   UNL     1      -3.362  11.703  16.900  0.00  0.00    +0.000 C 
ATOM     29  C   UNL     1      -4.476  10.769  17.397  0.00  0.00    +0.000 C 
ATOM     30  C   UNL     1      -3.850   9.377  17.240  0.00  0.00    +0.000 C 
ATOM     31  C   UNL     1      -2.462   9.685  16.646  0.00  0.00    +0.000 C 
ATOM     32  C   UNL     1      -2.765  10.887  15.754  0.00  0.00    +0.000 C 
ENDBRANCH  24  26
ENDBRANCH  10  24
TORSDOF 4
ENDMDL
MODEL 8
REMARK VINA RESULT:      -7.7      5.798     10.181
REMARK  Name = 
REMARK  5 active torsions:
REMARK  status: ('A' for Active; 'I' for Inactive)
REMARK    1  A    between atoms: C_1  and  N_2
REMARK    2  A    between atoms: C_9  and  C_10
REMARK    3  A    between atoms: C_13  and  C_14
REMARK    4  A    between atoms: C_20  and  N_21
REMARK    5  A    between atoms: N_21  and  C_22
REMARK                            x       y       z     vdW  Elec       q    Type
REMARK                         _______ _______ _______ _____ _____    ______ ____
ROOT
ATOM      1  C   UNL     1       5.783   4.800  17.783  0.00  0.00    +0.000 C 
ATOM      2  N   UNL     1       4.431   5.343  17.905  0.00  0.00    +0.000 NA
ATOM      3  C   UNL     1       4.413   6.777  17.526  0.00  0.00    +0.000 C 
ATOM      4  C   UNL     1       3.032   7.453  17.737  0.00  0.00    +0.000 C 
ATOM      5  N   UNL     1       2.610   7.256  19.128  0.00  0.00    +0.000 N 
ATOM      6  C   UNL     1       1.772   8.171  19.731  0.00  0.00    +0.000 A 
ATOM      7  N   UNL     1       1.280   7.921  20.949  0.00  0.00    +0.000 NA
ATOM      8  C   UNL     1       0.490   8.869  21.515  0.00  0.00    +0.000 A 
ATOM      9  C   UNL     1       0.125  10.075  20.937  0.00  0.00    +0.000 A 
ATOM     10  C   UNL     1       0.705  10.247  19.688  0.00  0.00    +0.000 A 
ATOM     11  N   UNL     1       1.525   9.333  19.115  0.00  0.00    +0.000 NA
ATOM     12  C   UNL     1       2.547   5.847  19.523  0.00  0.00    +0.000 C 
ATOM     13  C   UNL     1       3.936   5.196  19.297  0.00  0.00    +0.000 C 
ENDROOT
BRANCH   9  14
ATOM     14  C   UNL     1      -0.905  10.955  21.548  0.00  0.00    +0.000 A 
ATOM     15  C   UNL     1      -1.162  11.042  22.930  0.00  0.00    +0.000 A 
ATOM     16  C   UNL     1      -2.152  11.903  23.450  0.00  0.00    +0.000 A 
ATOM     17  C   UNL     1      -2.936  12.693  22.601  0.00  0.00    +0.000 A 
ATOM     18  C   UNL     1      -2.664  12.647  21.228  0.00  0.00    +0.000 A 
ATOM     19  C   UNL     1      -1.676  11.796  20.720  0.00  0.00    +0.000 A 
BRANCH  17  20
ATOM     20  C   UNL     1      -4.052  13.572  23.116  0.00  0.00    +0.000 C 
ATOM     21  F   UNL     1      -5.003  12.893  23.816  0.00  0.00    +0.000 F 
ATOM     22  F   UNL     1      -3.611  14.559  23.943  0.00  0.00    +0.000 F 
ATOM     23  F   UNL     1      -4.719  14.204  22.110  0.00  0.00    +0.000 F 
ENDBRANCH  17  20
ENDBRANCH   9  14
BRANCH  10  24
ATOM     24  N   UNL     1       0.443  11.430  18.957  0.00  0.00    +0.000 N 
ATOM     25  H   UNL     1      -0.379  11.853  19.384  0.00  0.00    +0.000 HD
BRANCH  24  26
ATOM     26  C   UNL     1       1.555  12.363  18.911  0.00  0.00    +0.000 C 
ATOM     27  C   UNL     1       1.925  12.838  20.333  0.00  0.00    +0.000 C 
ATOM     28  C   UNL     1       1.898  14.373  20.204  0.00  0.00    +0.000 C 
ATOM     29  C   UNL     1       0.439  14.853  20.151  0.00  0.00    +0.000 C 
ATOM     30  C   UNL     1      -0.030  14.372  18.773  0.00  0.00    +0.000 C 
ATOM     31  C   UNL     1       1.229  13.697  18.193  0.00  0.00    +0.000 C 
ATOM     32  C   UNL     1       2.341  14.579  18.756  0.00  0.00    +0.000 C 
ENDBRANCH  24  26
ENDBRANCH  10  24
TORSDOF 4
ENDMDL
MODEL 9
REMARK VINA RESULT:      -7.7      3.228      6.200
REMARK  Name = 
REMARK  5 active torsions:
REMARK  status: ('A' for Active; 'I' for Inactive)
REMARK    1  A    between atoms: C_1  and  N_2
REMARK    2  A    between atoms: C_9  and  C_10
REMARK    3  A    between atoms: C_13  and  C_14
REMARK    4  A    between atoms: C_20  and  N_21
REMARK    5  A    between atoms: N_21  and  C_22
REMARK                            x       y       z     vdW  Elec       q    Type
REMARK                         _______ _______ _______ _____ _____    ______ ____
ROOT
ATOM      1  C   UNL     1      -3.171  17.229  23.384  0.00  0.00    +0.000 C 
ATOM      2  N   UNL     1      -2.488  16.494  22.321  0.00  0.00    +0.000 NA
ATOM      3  C   UNL     1      -3.266  15.289  21.942  0.00  0.00    +0.000 C 
ATOM      4  C   UNL     1      -2.548  14.396  20.895  0.00  0.00    +0.000 C 
ATOM      5  N   UNL     1      -1.216  14.043  21.400  0.00  0.00    +0.000 N 
ATOM      6  C   UNL     1      -0.615  12.869  20.996  0.00  0.00    +0.000 A 
ATOM      7  N   UNL     1       0.651  12.615  21.347  0.00  0.00    +0.000 NA
ATOM      8  C   UNL     1       1.186  11.430  20.957  0.00  0.00    +0.000 A 
ATOM      9  C   UNL     1       0.546  10.457  20.205  0.00  0.00    +0.000 A 
ATOM     10  C   UNL     1      -0.765  10.806  19.913  0.00  0.00    +0.000 A 
ATOM     11  N   UNL     1      -1.334  11.967  20.320  0.00  0.00    +0.000 NA
ATOM     12  C   UNL     1      -0.388  15.207  21.721  0.00  0.00    +0.000 C 
ATOM     13  C   UNL     1      -1.131  16.084  22.763  0.00  0.00    +0.000 C 
ENDROOT
BRANCH   9  14
ATOM     14  C   UNL     1       1.279   9.287  19.656  0.00  0.00    +0.000 A 
ATOM     15  C   UNL     1       1.569   8.115  20.381  0.00  0.00    +0.000 A 
ATOM     16  C   UNL     1       2.264   7.033  19.800  0.00  0.00    +0.000 A 
ATOM     17  C   UNL     1       2.714   7.096  18.476  0.00  0.00    +0.000 A 
ATOM     18  C   UNL     1       2.397   8.238  17.730  0.00  0.00    +0.000 A 
ATOM     19  C   UNL     1       1.701   9.304  18.311  0.00  0.00    +0.000 A 
BRANCH  17  20
ATOM     20  C   UNL     1       3.523   5.987  17.844  0.00  0.00    +0.000 C 
ATOM     21  F   UNL     1       2.763   4.981  17.329  0.00  0.00    +0.000 F 
ATOM     22  F   UNL     1       4.313   6.421  16.823  0.00  0.00    +0.000 F 
ATOM     23  F   UNL     1       4.366   5.390  18.734  0.00  0.00    +0.000 F 
ENDBRANCH  17  20
ENDBRANCH   9  14
BRANCH  10  24
ATOM     24  N   UNL     1      -1.568   9.922  19.155  0.00  0.00    +0.000 N 
ATOM     25  H   UNL     1      -2.508   9.991  19.539  0.00  0.00    +0.000 HD
BRANCH  24  26
ATOM     26  C   UNL     1      -1.559  10.183  17.726  0.00  0.00    +0.000 C 
ATOM     27  C   UNL     1      -1.877  11.667  17.443  0.00  0.00    +0.000 C 
ATOM     28  C   UNL     1      -3.040  11.587  16.436  0.00  0.00    +0.000 C 
ATOM     29  C   UNL     1      -4.328  11.192  17.177  0.00  0.00    +0.000 C 
ATOM     30  C   UNL     1      -4.074   9.725  17.546  0.00  0.00    +0.000 C 
ATOM     31  C   UNL     1      -2.681   9.451  16.945  0.00  0.00    +0.000 C 
ATOM     32  C   UNL     1      -2.717  10.301  15.677  0.00  0.00    +0.000 C 
ENDBRANCH  24  26
ENDBRANCH  10  24
TORSDOF 4
ENDMDL
