MODEL 1
REMARK VINA RESULT:      -7.8      0.000      0.000
REMARK  Name = 
REMARK  7 active torsions:
REMARK  status: ('A' for Active; 'I' for Inactive)
REMARK    1  A    between atoms: C_1  and  C_2
REMARK    2  A    between atoms: N_4  and  C_5
REMARK    3  A    between atoms: C_8  and  N_9
REMARK    4  A    between atoms: N_10  and  C_11
REMARK    5  A    between atoms: N_14  and  C_15
REMARK    6  A    between atoms: C_15  and  N_16
REMARK    7  A    between atoms: C_19  and  C_20
REMARK                            x       y       z     vdW  Elec       q    Type
REMARK                         _______ _______ _______ _____ _____    ______ ____
ROOT
ATOM      1  N   UNL     1       3.355   6.114  18.599  0.00  0.00    +0.000 NA
ATOM      2  N   UNL     1       3.336   5.346  19.580  0.00  0.00    +0.000 NA
ENDROOT
BRANCH   2   3
ATOM      3  C   UNL     1       4.120   4.130  19.365  0.00  0.00    +0.000 C 
ATOM      4  C   UNL     1       5.509   4.545  18.959  0.00  0.00    +0.000 C 
ATOM      5  O   UNL     1       6.334   5.055  19.700  0.00  0.00    +0.000 OA
ATOM      6  N   UNL     1       5.596   4.212  17.578  0.00  0.00    +0.000 N 
ATOM      7  N   UNL     1       4.448   3.556  17.106  0.00  0.00    +0.000 NA
ATOM      8  C   UNL     1       3.628   3.485  18.110  0.00  0.00    +0.000 C 
ATOM      9  C   UNL     1       2.300   2.809  18.044  0.00  0.00    +0.000 C 
BRANCH   6  10
ATOM     10  C   UNL     1       6.628   4.477  16.664  0.00  0.00    +0.000 C 
ATOM     11  S   UNL     1       6.488   4.895  15.057  0.00  0.00    +0.000 S 
BRANCH  10  12
ATOM     12  N   UNL     1       7.886   4.361  17.195  0.00  0.00    +0.000 N 
ATOM     13  H   UNL     1       8.003   4.499  18.193  0.00  0.00    +0.000 HD
ATOM     14  H   UNL     1       8.652   4.017  16.634  0.00  0.00    +0.000 HD
ENDBRANCH  10  12
ENDBRANCH   6  10
ENDBRANCH   2   3
BRANCH   1  18
ATOM     15  C   UNL     1       1.051   9.634  19.151  0.00  0.00    +0.000 A 
ATOM     16  C   UNL     1       1.689   9.356  17.940  0.00  0.00    +0.000 A 
ATOM     17  C   UNL     1       2.455   8.196  17.786  0.00  0.00    +0.000 A 
ATOM     18  C   UNL     1       2.608   7.287  18.835  0.00  0.00    +0.000 A 
ATOM     19  C   UNL     1       1.973   7.573  20.052  0.00  0.00    +0.000 A 
ATOM     20  C   UNL     1       1.217   8.743  20.216  0.00  0.00    +0.000 A 
BRANCH  15  24
ATOM     21  C   UNL     1      -1.617  12.301  19.266  0.00  0.00    +0.000 C 
ATOM     22  C   UNL     1      -1.072  10.930  18.969  0.00  0.00    +0.000 C 
ATOM     23  O   UNL     1      -1.781  10.081  18.434  0.00  0.00    +0.000 OA
ATOM     24  N   UNL     1       0.249  10.777  19.357  0.00  0.00    +0.000 N 
ATOM     25  H   UNL     1       0.649  11.514  19.925  0.00  0.00    +0.000 HD
ENDBRANCH  15  24
ENDBRANCH   1  18
TORSDOF 5
ENDMDL
MODEL 2
REMARK VINA RESULT:      -7.7      0.174      1.036
REMARK  Name = 
REMARK  7 active torsions:
REMARK  status: ('A' for Active; 'I' for Inactive)
REMARK    1  A    between atoms: C_1  and  C_2
REMARK    2  A    between atoms: N_4  and  C_5
REMARK    3  A    between atoms: C_8  and  N_9
REMARK    4  A    between atoms: N_10  and  C_11
REMARK    5  A    between atoms: N_14  and  C_15
REMARK    6  A    between atoms: C_15  and  N_16
REMARK    7  A    between atoms: C_19  and  C_20
REMARK                            x       y       z     vdW  Elec       q    Type
REMARK                         _______ _______ _______ _____ _____    ______ ____
ROOT
ATOM      1  N   UNL     1       3.338   6.052  18.547  0.00  0.00    +0.000 NA
ATOM      2  N   UNL     1       3.283   5.263  19.511  0.00  0.00    +0.000 NA
ENDROOT
BRANCH   2   3
ATOM      3  C   UNL     1       4.096   4.064  19.310  0.00  0.00    +0.000 C 
ATOM      4  C   UNL     1       5.484   4.507  18.933  0.00  0.00    +0.000 C 
ATOM      5  O   UNL     1       6.283   5.033  19.692  0.00  0.00    +0.000 OA
ATOM      6  N   UNL     1       5.607   4.179  17.554  0.00  0.00    +0.000 N 
ATOM      7  N   UNL     1       4.482   3.500  17.057  0.00  0.00    +0.000 NA
ATOM      8  C   UNL     1       3.643   3.411  18.044  0.00  0.00    +0.000 C 
ATOM      9  C   UNL     1       2.331   2.708  17.949  0.00  0.00    +0.000 C 
BRANCH   6  10
ATOM     10  C   UNL     1       6.652   4.467  16.661  0.00  0.00    +0.000 C 
ATOM     11  S   UNL     1       6.536   4.905  15.058  0.00  0.00    +0.000 S 
BRANCH  10  12
ATOM     12  N   UNL     1       7.901   4.356  17.213  0.00  0.00    +0.000 N 
ATOM     13  H   UNL     1       8.456   3.537  16.991  0.00  0.00    +0.000 HD
ATOM     14  H   UNL     1       8.310   5.129  17.720  0.00  0.00    +0.000 HD
ENDBRANCH  10  12
ENDBRANCH   6  10
ENDBRANCH   2   3
BRANCH   1  18
ATOM     15  C   UNL     1       1.064   9.538  19.372  0.00  0.00    +0.000 A 
ATOM     16  C   UNL     1       1.283   8.557  20.342  0.00  0.00    +0.000 A 
ATOM     17  C   UNL     1       2.023   7.408  20.042  0.00  0.00    +0.000 A 
ATOM     18  C   UNL     1       2.561   7.209  18.769  0.00  0.00    +0.000 A 
ATOM     19  C   UNL     1       2.334   8.192  17.796  0.00  0.00    +0.000 A 
ATOM     20  C   UNL     1       1.578   9.336  18.087  0.00  0.00    +0.000 A 
BRANCH  15  24
ATOM     21  C   UNL     1      -1.408  12.382  19.582  0.00  0.00    +0.000 C 
ATOM     22  C   UNL     1      -0.957  10.991  19.225  0.00  0.00    +0.000 C 
ATOM     23  O   UNL     1      -1.715  10.222  18.640  0.00  0.00    +0.000 OA
ATOM     24  N   UNL     1       0.343  10.725  19.623  0.00  0.00    +0.000 N 
ATOM     25  H   UNL     1       0.785  11.403  20.232  0.00  0.00    +0.000 HD
ENDBRANCH  15  24
ENDBRANCH   1  18
TORSDOF 5
ENDMDL
MODEL 3
REMARK VINA RESULT:      -7.6      1.459      1.537
REMARK  Name = 
REMARK  7 active torsions:
REMARK  status: ('A' for Active; 'I' for Inactive)
REMARK    1  A    between atoms: C_1  and  C_2
REMARK    2  A    between atoms: N_4  and  C_5
REMARK    3  A    between atoms: C_8  and  N_9
REMARK    4  A    between atoms: N_10  and  C_11
REMARK    5  A    between atoms: N_14  and  C_15
REMARK    6  A    between atoms: C_15  and  N_16
REMARK    7  A    between atoms: C_19  and  C_20
REMARK                            x       y       z     vdW  Elec       q    Type
REMARK                         _______ _______ _______ _____ _____    ______ ____
ROOT
ATOM      1  N   UNL     1       2.512   6.171  19.951  0.00  0.00    +0.000 NA
ATOM      2  N   UNL     1       3.396   6.069  19.078  0.00  0.00    +0.000 NA
ENDROOT
BRANCH   2   3
ATOM      3  C   UNL     1       3.980   4.729  19.017  0.00  0.00    +0.000 C 
ATOM      4  C   UNL     1       5.459   4.881  18.780  0.00  0.00    +0.000 C 
ATOM      5  O   UNL     1       6.262   5.294  19.602  0.00  0.00    +0.000 OA
ATOM      6  N   UNL     1       5.656   4.454  17.437  0.00  0.00    +0.000 N 
ATOM      7  N   UNL     1       4.478   3.968  16.846  0.00  0.00    +0.000 NA
ATOM      8  C   UNL     1       3.541   4.097  17.736  0.00  0.00    +0.000 C 
ATOM      9  C   UNL     1       2.135   3.647  17.523  0.00  0.00    +0.000 C 
BRANCH   6  10
ATOM     10  C   UNL     1       6.822   4.487  16.656  0.00  0.00    +0.000 C 
ATOM     11  S   UNL     1       6.945   4.724  15.012  0.00  0.00    +0.000 S 
BRANCH  10  12
ATOM     12  N   UNL     1       7.975   4.291  17.370  0.00  0.00    +0.000 N 
ATOM     13  H   UNL     1       8.640   5.053  17.432  0.00  0.00    +0.000 HD
ATOM     14  H   UNL     1       8.099   3.458  17.928  0.00  0.00    +0.000 HD
ENDBRANCH  10  12
ENDBRANCH   6  10
ENDBRANCH   2   3
BRANCH   1  18
ATOM     15  C   UNL     1       0.777  10.042  19.878  0.00  0.00    +0.000 A 
ATOM     16  C   UNL     1       1.445   9.516  18.770  0.00  0.00    +0.000 A 
ATOM     17  C   UNL     1       2.023   8.243  18.823  0.00  0.00    +0.000 A 
ATOM     18  C   UNL     1       1.950   7.465  19.980  0.00  0.00    +0.000 A 
ATOM     19  C   UNL     1       1.286   8.000  21.093  0.00  0.00    +0.000 A 
ATOM     20  C   UNL     1       0.720   9.282  21.050  0.00  0.00    +0.000 A 
BRANCH  15  24
ATOM     21  C   UNL     1      -0.299  13.627  20.368  0.00  0.00    +0.000 C 
ATOM     22  C   UNL     1       0.639  12.455  20.490  0.00  0.00    +0.000 C 
ATOM     23  O   UNL     1       1.705  12.572  21.089  0.00  0.00    +0.000 OA
ATOM     24  N   UNL     1       0.158  11.311  19.876  0.00  0.00    +0.000 N 
ATOM     25  H   UNL     1      -0.662  11.414  19.290  0.00  0.00    +0.000 HD
ENDBRANCH  15  24
ENDBRANCH   1  18
TORSDOF 5
ENDMDL
MODEL 4
REMARK VINA RESULT:      -7.6      1.536      1.911
REMARK  Name = 
REMARK  7 active torsions:
REMARK  status: ('A' for Active; 'I' for Inactive)
REMARK    1  A    between atoms: C_1  and  C_2
REMARK    2  A    between atoms: N_4  and  C_5
REMARK    3  A    between atoms: C_8  and  N_9
REMARK    4  A    between atoms: N_10  and  C_11
REMARK    5  A    between atoms: N_14  and  C_15
REMARK    6  A    between atoms: C_15  and  N_16
REMARK    7  A    between atoms: C_19  and  C_20
REMARK                            x       y       z     vdW  Elec       q    Type
REMARK                         _______ _______ _______ _____ _____    ______ ____
ROOT
ATOM      1  N   UNL     1       2.509   6.344  19.890  0.00  0.00    +0.000 NA
ATOM      2  N   UNL     1       3.342   6.178  18.978  0.00  0.00    +0.000 NA
ENDROOT
BRANCH   2   3
ATOM      3  C   UNL     1       3.949   4.847  19.000  0.00  0.00    +0.000 C 
ATOM      4  C   UNL     1       5.426   5.011  18.760  0.00  0.00    +0.000 C 
ATOM      5  O   UNL     1       6.218   5.485  19.559  0.00  0.00    +0.000 OA
ATOM      6  N   UNL     1       5.637   4.507  17.446  0.00  0.00    +0.000 N 
ATOM      7  N   UNL     1       4.471   3.967  16.880  0.00  0.00    +0.000 NA
ATOM      8  C   UNL     1       3.528   4.132  17.756  0.00  0.00    +0.000 C 
ATOM      9  C   UNL     1       2.131   3.646  17.565  0.00  0.00    +0.000 C 
BRANCH   6  10
ATOM     10  C   UNL     1       6.807   4.514  16.670  0.00  0.00    +0.000 C 
ATOM     11  S   UNL     1       6.940   4.741  15.024  0.00  0.00    +0.000 S 
BRANCH  10  12
ATOM     12  N   UNL     1       7.953   4.299  17.388  0.00  0.00    +0.000 N 
ATOM     13  H   UNL     1       8.575   3.554  17.093  0.00  0.00    +0.000 HD
ATOM     14  H   UNL     1       8.238   4.946  18.110  0.00  0.00    +0.000 HD
ENDBRANCH  10  12
ENDBRANCH   6  10
ENDBRANCH   2   3
BRANCH   1  18
ATOM     15  C   UNL     1       0.797  10.226  19.896  0.00  0.00    +0.000 A 
ATOM     16  C   UNL     1       0.772   9.410  21.029  0.00  0.00    +0.000 A 
ATOM     17  C   UNL     1       1.330   8.127  20.999  0.00  0.00    +0.000 A 
ATOM     18  C   UNL     1       1.923   7.626  19.839  0.00  0.00    +0.000 A 
ATOM     19  C   UNL     1       1.939   8.444  18.701  0.00  0.00    +0.000 A 
ATOM     20  C   UNL     1       1.367   9.724  18.722  0.00  0.00    +0.000 A 
BRANCH  15  24
ATOM     21  C   UNL     1      -0.039  13.879  20.346  0.00  0.00    +0.000 C 
ATOM     22  C   UNL     1       0.813  12.646  20.495  0.00  0.00    +0.000 C 
ATOM     23  O   UNL     1       1.870  12.693  21.118  0.00  0.00    +0.000 OA
ATOM     24  N   UNL     1       0.268  11.535  19.874  0.00  0.00    +0.000 N 
ATOM     25  H   UNL     1      -0.530  11.690  19.269  0.00  0.00    +0.000 HD
ENDBRANCH  15  24
ENDBRANCH   1  18
TORSDOF 5
ENDMDL
MODEL 5
REMARK VINA RESULT:      -7.4      2.210      2.884
REMARK  Name = 
REMARK  7 active torsions:
REMARK  status: ('A' for Active; 'I' for Inactive)
REMARK    1  A    between atoms: C_1  and  C_2
REMARK    2  A    between atoms: N_4  and  C_5
REMARK    3  A    between atoms: C_8  and  N_9
REMARK    4  A    between atoms: N_10  and  C_11
REMARK    5  A    between atoms: N_14  and  C_15
REMARK    6  A    between atoms: C_15  and  N_16
REMARK    7  A    between atoms: C_19  and  C_20
REMARK                            x       y       z     vdW  Elec       q    Type
REMARK                         _______ _______ _______ _____ _____    ______ ____
ROOT
ATOM      1  N   UNL     1       3.282   6.317  18.700  0.00  0.00    +0.000 NA
ATOM      2  N   UNL     1       3.846   6.336  17.588  0.00  0.00    +0.000 NA
ENDROOT
BRANCH   2   3
ATOM      3  C   UNL     1       4.650   5.139  17.340  0.00  0.00    +0.000 C 
ATOM      4  C   UNL     1       3.881   3.953  17.854  0.00  0.00    +0.000 C 
ATOM      5  O   UNL     1       2.873   3.494  17.340  0.00  0.00    +0.000 OA
ATOM      6  N   UNL     1       4.586   3.541  19.019  0.00  0.00    +0.000 N 
ATOM      7  N   UNL     1       5.758   4.286  19.233  0.00  0.00    +0.000 NA
ATOM      8  C   UNL     1       5.812   5.166  18.280  0.00  0.00    +0.000 C 
ATOM      9  C   UNL     1       6.938   6.129  18.111  0.00  0.00    +0.000 C 
BRANCH   6  10
ATOM     10  C   UNL     1       4.252   2.551  19.957  0.00  0.00    +0.000 C 
ATOM     11  S   UNL     1       2.929   2.505  20.968  0.00  0.00    +0.000 S 
BRANCH  10  12
ATOM     12  N   UNL     1       5.152   1.519  20.020  0.00  0.00    +0.000 N 
ATOM     13  H   UNL     1       6.122   1.737  20.221  0.00  0.00    +0.000 HD
ATOM     14  H   UNL     1       4.837   0.559  20.001  0.00  0.00    +0.000 HD
ENDBRANCH  10  12
ENDBRANCH   6  10
ENDBRANCH   2   3
BRANCH   1  18
ATOM     15  C   UNL     1       0.864   9.771  19.178  0.00  0.00    +0.000 A 
ATOM     16  C   UNL     1       1.478   9.467  17.961  0.00  0.00    +0.000 A 
ATOM     17  C   UNL     1       2.283   8.330  17.831  0.00  0.00    +0.000 A 
ATOM     18  C   UNL     1       2.498   7.471  18.911  0.00  0.00    +0.000 A 
ATOM     19  C   UNL     1       1.887   7.784  20.133  0.00  0.00    +0.000 A 
ATOM     20  C   UNL     1       1.093   8.931  20.272  0.00  0.00    +0.000 A 
BRANCH  15  24
ATOM     21  C   UNL     1      -1.878  12.363  19.221  0.00  0.00    +0.000 C 
ATOM     22  C   UNL     1      -1.288  11.007  18.939  0.00  0.00    +0.000 C 
ATOM     23  O   UNL     1      -1.959  10.140  18.387  0.00  0.00    +0.000 OA
ATOM     24  N   UNL     1       0.026  10.892  19.362  0.00  0.00    +0.000 N 
ATOM     25  H   UNL     1       0.390  11.640  19.939  0.00  0.00    +0.000 HD
ENDBRANCH  15  24
ENDBRANCH   1  18
TORSDOF 5
ENDMDL
MODEL 6
REMARK VINA RESULT:      -7.4      1.715      2.055
REMARK  Name = 
REMARK  7 active torsions:
REMARK  status: ('A' for Active; 'I' for Inactive)
REMARK    1  A    between atoms: C_1  and  C_2
REMARK    2  A    between atoms: N_4  and  C_5
REMARK    3  A    between atoms: C_8  and  N_9
REMARK    4  A    between atoms: N_10  and  C_11
REMARK    5  A    between atoms: N_14  and  C_15
REMARK    6  A    between atoms: C_15  and  N_16
REMARK    7  A    between atoms: C_19  and  C_20
REMARK                            x       y       z     vdW  Elec       q    Type
REMARK                         _______ _______ _______ _____ _____    ______ ____
ROOT
ATOM      1  N   UNL     1       3.248   5.947  18.597  0.00  0.00    +0.000 NA
ATOM      2  N   UNL     1       3.611   5.134  19.469  0.00  0.00    +0.000 NA
ENDROOT
BRANCH   2   3
ATOM      3  C   UNL     1       4.454   4.066  18.933  0.00  0.00    +0.000 C 
ATOM      4  C   UNL     1       5.750   4.684  18.482  0.00  0.00    +0.000 C 
ATOM      5  O   UNL     1       6.616   5.119  19.225  0.00  0.00    +0.000 OA
ATOM      6  N   UNL     1       5.699   4.636  17.061  0.00  0.00    +0.000 N 
ATOM      7  N   UNL     1       4.555   3.975  16.583  0.00  0.00    +0.000 NA
ATOM      8  C   UNL     1       3.867   3.631  17.628  0.00  0.00    +0.000 C 
ATOM      9  C   UNL     1       2.596   2.854  17.559  0.00  0.00    +0.000 C 
BRANCH   6  10
ATOM     10  C   UNL     1       6.593   5.174  16.121  0.00  0.00    +0.000 C 
ATOM     11  S   UNL     1       6.799   4.720  14.531  0.00  0.00    +0.000 S 
BRANCH  10  12
ATOM     12  N   UNL     1       7.375   6.185  16.613  0.00  0.00    +0.000 N 
ATOM     13  H   UNL     1       7.277   7.111  16.210  0.00  0.00    +0.000 HD
ATOM     14  H   UNL     1       7.937   6.045  17.441  0.00  0.00    +0.000 HD
ENDBRANCH  10  12
ENDBRANCH   6  10
ENDBRANCH   2   3
BRANCH   1  18
ATOM     15  C   UNL     1       0.919   9.014  20.378  0.00  0.00    +0.000 A 
ATOM     16  C   UNL     1       1.187   7.816  21.042  0.00  0.00    +0.000 A 
ATOM     17  C   UNL     1       1.945   6.812  20.429  0.00  0.00    +0.000 A 
ATOM     18  C   UNL     1       2.451   6.978  19.139  0.00  0.00    +0.000 A 
ATOM     19  C   UNL     1       2.174   8.179  18.471  0.00  0.00    +0.000 A 
ATOM     20  C   UNL     1       1.401   9.181  19.076  0.00  0.00    +0.000 A 
BRANCH  15  24
ATOM     21  C   UNL     1      -0.852  11.500  22.598  0.00  0.00    +0.000 C 
ATOM     22  C   UNL     1       0.084  10.358  22.305  0.00  0.00    +0.000 C 
ATOM     23  O   UNL     1       0.670   9.784  23.220  0.00  0.00    +0.000 OA
ATOM     24  N   UNL     1       0.178  10.069  20.954  0.00  0.00    +0.000 N 
ATOM     25  H   UNL     1      -0.243  10.729  20.312  0.00  0.00    +0.000 HD
ENDBRANCH  15  24
ENDBRANCH   1  18
TORSDOF 5
ENDMDL
MODEL 7
REMARK VINA RESULT:      -7.4      2.220      3.066
REMARK  Name = 
REMARK  7 active torsions:
REMARK  status: ('A' for Active; 'I' for Inactive)
REMARK    1  A    between atoms: C_1  and  C_2
REMARK    2  A    between atoms: N_4  and  C_5
REMARK    3  A    between atoms: C_8  and  N_9
REMARK    4  A    between atoms: N_10  and  C_11
REMARK    5  A    between atoms: N_14  and  C_15
REMARK    6  A    between atoms: C_15  and  N_16
REMARK    7  A    between atoms: C_19  and  C_20
REMARK                            x       y       z     vdW  Elec       q    Type
REMARK                         _______ _______ _______ _____ _____    ______ ____
ROOT
ATOM      1  N   UNL     1       3.375   6.349  18.621  0.00  0.00    +0.000 NA
ATOM      2  N   UNL     1       3.812   6.238  17.459  0.00  0.00    +0.000 NA
ENDROOT
BRANCH   2   3
ATOM      3  C   UNL     1       4.649   5.052  17.279  0.00  0.00    +0.000 C 
ATOM      4  C   UNL     1       3.892   3.868  17.817  0.00  0.00    +0.000 C 
ATOM      5  O   UNL     1       2.910   3.367  17.293  0.00  0.00    +0.000 OA
ATOM      6  N   UNL     1       4.574   3.517  19.016  0.00  0.00    +0.000 N 
ATOM      7  N   UNL     1       5.722   4.296  19.233  0.00  0.00    +0.000 NA
ATOM      8  C   UNL     1       5.783   5.141  18.249  0.00  0.00    +0.000 C 
ATOM      9  C   UNL     1       6.892   6.123  18.074  0.00  0.00    +0.000 C 
BRANCH   6  10
ATOM     10  C   UNL     1       4.235   2.555  19.981  0.00  0.00    +0.000 C 
ATOM     11  S   UNL     1       2.882   2.513  20.952  0.00  0.00    +0.000 S 
BRANCH  10  12
ATOM     12  N   UNL     1       5.159   1.551  20.113  0.00  0.00    +0.000 N 
ATOM     13  H   UNL     1       6.085   1.694  19.726  0.00  0.00    +0.000 HD
ATOM     14  H   UNL     1       4.965   0.747  20.693  0.00  0.00    +0.000 HD
ENDBRANCH  10  12
ENDBRANCH   6  10
ENDBRANCH   2   3
BRANCH   1  18
ATOM     15  C   UNL     1       0.964   9.788  19.222  0.00  0.00    +0.000 A 
ATOM     16  C   UNL     1       1.145   8.834  20.225  0.00  0.00    +0.000 A 
ATOM     17  C   UNL     1       1.933   7.700  19.999  0.00  0.00    +0.000 A 
ATOM     18  C   UNL     1       2.556   7.488  18.768  0.00  0.00    +0.000 A 
ATOM     19  C   UNL     1       2.365   8.444  17.760  0.00  0.00    +0.000 A 
ATOM     20  C   UNL     1       1.563   9.574  17.977  0.00  0.00    +0.000 A 
BRANCH  15  24
ATOM     21  C   UNL     1      -1.623  12.536  19.274  0.00  0.00    +0.000 C 
ATOM     22  C   UNL     1      -1.120  11.141  19.012  0.00  0.00    +0.000 C 
ATOM     23  O   UNL     1      -1.856  10.300  18.503  0.00  0.00    +0.000 OA
ATOM     24  N   UNL     1       0.197  10.960  19.400  0.00  0.00    +0.000 N 
ATOM     25  H   UNL     1       0.622  11.700  19.947  0.00  0.00    +0.000 HD
ENDBRANCH  15  24
ENDBRANCH   1  18
TORSDOF 5
ENDMDL
MODEL 8
REMARK VINA RESULT:      -7.2      2.489      3.101
REMARK  Name = 
REMARK  7 active torsions:
REMARK  status: ('A' for Active; 'I' for Inactive)
REMARK    1  A    between atoms: C_1  and  C_2
REMARK    2  A    between atoms: N_4  and  C_5
REMARK    3  A    between atoms: C_8  and  N_9
REMARK    4  A    between atoms: N_10  and  C_11
REMARK    5  A    between atoms: N_14  and  C_15
REMARK    6  A    between atoms: C_15  and  N_16
REMARK    7  A    between atoms: C_19  and  C_20
REMARK                            x       y       z     vdW  Elec       q    Type
REMARK                         _______ _______ _______ _____ _____    ______ ____
ROOT
ATOM      1  N   UNL     1       3.305   6.333  18.691  0.00  0.00    +0.000 NA
ATOM      2  N   UNL     1       3.772   6.284  17.536  0.00  0.00    +0.000 NA
ENDROOT
BRANCH   2   3
ATOM      3  C   UNL     1       4.541   5.065  17.286  0.00  0.00    +0.000 C 
ATOM      4  C   UNL     1       3.768   3.908  17.858  0.00  0.00    +0.000 C 
ATOM      5  O   UNL     1       2.731   3.459  17.394  0.00  0.00    +0.000 OA
ATOM      6  N   UNL     1       4.510   3.508  19.004  0.00  0.00    +0.000 N 
ATOM      7  N   UNL     1       5.704   4.232  19.155  0.00  0.00    +0.000 NA
ATOM      8  C   UNL     1       5.739   5.088  18.180  0.00  0.00    +0.000 C 
ATOM      9  C   UNL     1       6.877   6.023  17.944  0.00  0.00    +0.000 C 
BRANCH   6  10
ATOM     10  C   UNL     1       4.193   2.547  19.977  0.00  0.00    +0.000 C 
ATOM     11  S   UNL     1       2.877   2.523  20.999  0.00  0.00    +0.000 S 
BRANCH  10  12
ATOM     12  N   UNL     1       5.103   1.528  20.070  0.00  0.00    +0.000 N 
ATOM     13  H   UNL     1       5.113   0.822  19.342  0.00  0.00    +0.000 HD
ATOM     14  H   UNL     1       5.831   1.550  20.770  0.00  0.00    +0.000 HD
ENDBRANCH  10  12
ENDBRANCH   6  10
ENDBRANCH   2   3
BRANCH   1  18
ATOM     15  C   UNL     1       0.989   9.855  19.175  0.00  0.00    +0.000 A 
ATOM     16  C   UNL     1       1.650   9.569  17.978  0.00  0.00    +0.000 A 
ATOM     17  C   UNL     1       2.420   8.408  17.847  0.00  0.00    +0.000 A 
ATOM     18  C   UNL     1       2.553   7.507  18.905  0.00  0.00    +0.000 A 
ATOM     19  C   UNL     1       1.895   7.801  20.108  0.00  0.00    +0.000 A 
ATOM     20  C   UNL     1       1.135   8.971  20.249  0.00  0.00    +0.000 A 
BRANCH  15  24
ATOM     21  C   UNL     1      -0.707  13.037  20.288  0.00  0.00    +0.000 C 
ATOM     22  C   UNL     1       0.378  11.994  20.301  0.00  0.00    +0.000 C 
ATOM     23  O   UNL     1       1.311  12.077  21.095  0.00  0.00    +0.000 OA
ATOM     24  N   UNL     1       0.182  10.999  19.358  0.00  0.00    +0.000 N 
ATOM     25  H   UNL     1      -0.548  11.152  18.673  0.00  0.00    +0.000 HD
ENDBRANCH  15  24
ENDBRANCH   1  18
TORSDOF 5
ENDMDL
MODEL 9
REMARK VINA RESULT:      -7.2      2.502      3.280
REMARK  Name = 
REMARK  7 active torsions:
REMARK  status: ('A' for Active; 'I' for Inactive)
REMARK    1  A    between atoms: C_1  and  C_2
REMARK    2  A    between atoms: N_4  and  C_5
REMARK    3  A    between atoms: C_8  and  N_9
REMARK    4  A    between atoms: N_10  and  C_11
REMARK    5  A    between atoms: N_14  and  C_15
REMARK    6  A    between atoms: C_15  and  N_16
REMARK    7  A    between atoms: C_19  and  C_20
REMARK                            x       y       z     vdW  Elec       q    Type
REMARK                         _______ _______ _______ _____ _____    ______ ____
ROOT
ATOM      1  N   UNL     1       3.340   6.376  18.601  0.00  0.00    +0.000 NA
ATOM      2  N   UNL     1       3.858   6.323  17.468  0.00  0.00    +0.000 NA
ENDROOT
BRANCH   2   3
ATOM      3  C   UNL     1       4.683   5.130  17.276  0.00  0.00    +0.000 C 
ATOM      4  C   UNL     1       3.910   3.948  17.796  0.00  0.00    +0.000 C 
ATOM      5  O   UNL     1       2.925   3.464  17.262  0.00  0.00    +0.000 OA
ATOM      6  N   UNL     1       4.582   3.574  18.993  0.00  0.00    +0.000 N 
ATOM      7  N   UNL     1       5.738   4.338  19.225  0.00  0.00    +0.000 NA
ATOM      8  C   UNL     1       5.813   5.194  18.252  0.00  0.00    +0.000 C 
ATOM      9  C   UNL     1       6.933   6.167  18.095  0.00  0.00    +0.000 C 
BRANCH   6  10
ATOM     10  C   UNL     1       4.229   2.604  19.945  0.00  0.00    +0.000 C 
ATOM     11  S   UNL     1       2.875   2.568  20.914  0.00  0.00    +0.000 S 
BRANCH  10  12
ATOM     12  N   UNL     1       5.138   1.586  20.064  0.00  0.00    +0.000 N 
ATOM     13  H   UNL     1       5.811   1.625  20.822  0.00  0.00    +0.000 HD
ATOM     14  H   UNL     1       5.057   0.754  19.496  0.00  0.00    +0.000 HD
ENDBRANCH  10  12
ENDBRANCH   6  10
ENDBRANCH   2   3
BRANCH   1  18
ATOM     15  C   UNL     1       0.972   9.840  19.230  0.00  0.00    +0.000 A 
ATOM     16  C   UNL     1       1.155   8.883  20.231  0.00  0.00    +0.000 A 
ATOM     17  C   UNL     1       1.929   7.741  19.995  0.00  0.00    +0.000 A 
ATOM     18  C   UNL     1       2.535   7.523  18.757  0.00  0.00    +0.000 A 
ATOM     19  C   UNL     1       2.342   8.481  17.752  0.00  0.00    +0.000 A 
ATOM     20  C   UNL     1       1.554   9.619  17.978  0.00  0.00    +0.000 A 
BRANCH  15  24
ATOM     21  C   UNL     1      -0.350  13.301  19.950  0.00  0.00    +0.000 C 
ATOM     22  C   UNL     1       0.725  12.267  19.743  0.00  0.00    +0.000 C 
ATOM     23  O   UNL     1       1.909  12.568  19.868  0.00  0.00    +0.000 OA
ATOM     24  N   UNL     1       0.220  11.019  19.417  0.00  0.00    +0.000 N 
ATOM     25  H   UNL     1      -0.768  10.966  19.198  0.00  0.00    +0.000 HD
ENDBRANCH  15  24
ENDBRANCH   1  18
TORSDOF 5
ENDMDL
