MODEL 1
REMARK VINA RESULT:      -7.8      0.000      0.000
REMARK  Name = 
REMARK  10 active torsions:
REMARK  status: ('A' for Active; 'I' for Inactive)
REMARK    1  A    between atoms: C_2  and  C_3
REMARK    2  A    between atoms: N_5  and  C_6
REMARK    3  A    between atoms: C_6  and  C_7
REMARK    4  A    between atoms: C_7  and  C_8
REMARK    5  A    between atoms: C_8  and  C_9
REMARK    6  A    between atoms: C_9  and  C_10
REMARK    7  A    between atoms: C_10  and  N_11
REMARK    8  A    between atoms: C_10  and  C_15
REMARK    9  A    between atoms: C_12  and  C_13
REMARK   10  A    between atoms: C_25  and  C_26
REMARK                            x       y       z     vdW  Elec       q    Type
REMARK                         _______ _______ _______ _____ _____    ______ ____
ROOT
ATOM      1  C   UNL     1       4.500   5.587  17.810  0.00  0.00    +0.000 C 
ENDROOT
BRANCH   1   2
ATOM      2  C   UNL     1       3.488   5.674  18.996  0.00  0.00    +0.000 C 
ATOM      3  O   UNL     1       3.573   4.846  19.910  0.00  0.00    +0.000 OA
ATOM      4  N   UNL     1       2.465   6.601  18.996  0.00  0.00    +0.000 N 
ATOM      5  C   UNL     1       1.676   6.841  20.217  0.00  0.00    +0.000 C 
ATOM      6  C   UNL     1       1.569   8.352  20.562  0.00  0.00    +0.000 C 
ATOM      7  N   UNL     1       1.311   9.191  19.378  0.00  0.00    +0.000 N 
ATOM      8  C   UNL     1       0.156   9.941  19.255  0.00  0.00    +0.000 A 
ATOM      9  C   UNL     1      -0.317  10.700  20.324  0.00  0.00    +0.000 A 
ATOM     10  C   UNL     1      -1.440  11.508  20.164  0.00  0.00    +0.000 A 
ATOM     11  C   UNL     1      -2.084  11.539  18.937  0.00  0.00    +0.000 A 
ATOM     12  C   UNL     1      -1.573  10.761  17.908  0.00  0.00    +0.000 A 
ATOM     13  C   UNL     1      -2.242  10.730  16.568  0.00  0.00    +0.000 C 
ATOM     14  N   UNL     1      -0.471   9.982  18.058  0.00  0.00    +0.000 NA
ATOM     15  C   UNL     1       2.052   8.863  18.153  0.00  0.00    +0.000 C 
ATOM     16  C   UNL     1       1.964   7.365  17.854  0.00  0.00    +0.000 C 
ENDBRANCH   1   2
BRANCH   1  17
ATOM     17  N   UNL     1       5.851   5.935  18.267  0.00  0.00    +0.000 N 
ATOM     18  C   UNL     1       6.611   6.872  17.602  0.00  0.00    +0.000 C 
ATOM     19  C   UNL     1       8.011   7.032  18.129  0.00  0.00    +0.000 C 
ATOM     20  O   UNL     1       6.213   7.495  16.625  0.00  0.00    +0.000 OA
ATOM     21  H   UNL     1       6.218   5.483  19.094  0.00  0.00    +0.000 HD
ENDBRANCH   1  17
BRANCH   1  22
ATOM     22  C   UNL     1       4.535   4.291  16.975  0.00  0.00    +0.000 C 
BRANCH  22  23
ATOM     23  C   UNL     1       4.866   4.423  15.489  0.00  0.00    +0.000 C 
BRANCH  23  24
ATOM     24  C   UNL     1       6.218   3.860  15.052  0.00  0.00    +0.000 C 
BRANCH  24  25
ATOM     25  C   UNL     1       6.446   3.928  13.543  0.00  0.00    +0.000 C 
BRANCH  25  28
ATOM     26  C   UNL     1       4.990   2.936  11.818  0.00  0.00    +0.000 C 
ATOM     27  O   UNL     1       5.807   2.093  11.470  0.00  0.00    +0.000 OA
ATOM     28  N   UNL     1       5.202   3.854  12.818  0.00  0.00    +0.000 N 
ATOM     29  H   UNL     1       4.466   4.507  13.065  0.00  0.00    +0.000 HD
BRANCH  26  31
ATOM     30  C   UNL     1       3.473   3.911  10.164  0.00  0.00    +0.000 C 
ATOM     31  C   UNL     1       3.659   3.074  11.186  0.00  0.00    +0.000 C 
ENDBRANCH  26  31
ENDBRANCH  25  28
ENDBRANCH  24  25
ENDBRANCH  23  24
ENDBRANCH  22  23
ENDBRANCH   1  22
TORSDOF 8
ENDMDL
MODEL 2
REMARK VINA RESULT:      -7.2      2.834      4.227
REMARK  Name = 
REMARK  10 active torsions:
REMARK  status: ('A' for Active; 'I' for Inactive)
REMARK    1  A    between atoms: C_2  and  C_3
REMARK    2  A    between atoms: N_5  and  C_6
REMARK    3  A    between atoms: C_6  and  C_7
REMARK    4  A    between atoms: C_7  and  C_8
REMARK    5  A    between atoms: C_8  and  C_9
REMARK    6  A    between atoms: C_9  and  C_10
REMARK    7  A    between atoms: C_10  and  N_11
REMARK    8  A    between atoms: C_10  and  C_15
REMARK    9  A    between atoms: C_12  and  C_13
REMARK   10  A    between atoms: C_25  and  C_26
REMARK                            x       y       z     vdW  Elec       q    Type
REMARK                         _______ _______ _______ _____ _____    ______ ____
ROOT
ATOM      1  C   UNL     1       4.487   6.182  17.874  0.00  0.00    +0.000 C 
ENDROOT
BRANCH   1   2
ATOM      2  C   UNL     1       3.449   6.270  19.038  0.00  0.00    +0.000 C 
ATOM      3  O   UNL     1       3.570   5.501  19.998  0.00  0.00    +0.000 OA
ATOM      4  N   UNL     1       2.369   7.127  18.969  0.00  0.00    +0.000 N 
ATOM      5  C   UNL     1       1.543   7.383  20.162  0.00  0.00    +0.000 C 
ATOM      6  C   UNL     1       1.332   8.900  20.419  0.00  0.00    +0.000 C 
ATOM      7  N   UNL     1       1.044   9.653  19.185  0.00  0.00    +0.000 N 
ATOM      8  C   UNL     1      -0.154  10.318  19.002  0.00  0.00    +0.000 A 
ATOM      9  C   UNL     1      -0.695  11.103  20.018  0.00  0.00    +0.000 A 
ATOM     10  C   UNL     1      -1.864  11.826  19.795  0.00  0.00    +0.000 A 
ATOM     11  C   UNL     1      -2.486  11.747  18.559  0.00  0.00    +0.000 A 
ATOM     12  C   UNL     1      -1.907  10.947  17.584  0.00  0.00    +0.000 A 
ATOM     13  C   UNL     1      -2.547  10.798  16.237  0.00  0.00    +0.000 C 
ATOM     14  N   UNL     1      -0.760  10.252  17.795  0.00  0.00    +0.000 NA
ATOM     15  C   UNL     1       1.828   9.306  17.992  0.00  0.00    +0.000 C 
ATOM     16  C   UNL     1       1.842   7.791  17.778  0.00  0.00    +0.000 C 
ENDBRANCH   1   2
BRANCH   1  17
ATOM     17  N   UNL     1       5.844   6.029  18.413  0.00  0.00    +0.000 N 
ATOM     18  C   UNL     1       6.907   6.724  17.880  0.00  0.00    +0.000 C 
ATOM     19  C   UNL     1       8.246   6.371  18.470  0.00  0.00    +0.000 C 
ATOM     20  O   UNL     1       6.797   7.529  16.963  0.00  0.00    +0.000 OA
ATOM     21  H   UNL     1       5.990   5.408  19.199  0.00  0.00    +0.000 HD
ENDBRANCH   1  17
BRANCH   1  22
ATOM     22  C   UNL     1       4.239   5.156  16.751  0.00  0.00    +0.000 C 
BRANCH  22  23
ATOM     23  C   UNL     1       4.832   3.760  16.932  0.00  0.00    +0.000 C 
BRANCH  23  24
ATOM     24  C   UNL     1       3.825   2.615  17.050  0.00  0.00    +0.000 C 
BRANCH  24  25
ATOM     25  C   UNL     1       2.493   3.039  17.668  0.00  0.00    +0.000 C 
BRANCH  25  28
ATOM     26  C   UNL     1       1.311   2.541  19.774  0.00  0.00    +0.000 C 
ATOM     27  O   UNL     1       0.207   2.457  19.252  0.00  0.00    +0.000 OA
ATOM     28  N   UNL     1       2.474   2.803  19.091  0.00  0.00    +0.000 N 
ATOM     29  H   UNL     1       3.356   2.834  19.591  0.00  0.00    +0.000 HD
BRANCH  26  31
ATOM     30  C   UNL     1       2.120   3.334  21.943  0.00  0.00    +0.000 C 
ATOM     31  C   UNL     1       1.526   2.376  21.229  0.00  0.00    +0.000 C 
ENDBRANCH  26  31
ENDBRANCH  25  28
ENDBRANCH  24  25
ENDBRANCH  23  24
ENDBRANCH  22  23
ENDBRANCH   1  22
TORSDOF 8
ENDMDL
MODEL 3
REMARK VINA RESULT:      -7.2      3.040      4.966
REMARK  Name = 
REMARK  10 active torsions:
REMARK  status: ('A' for Active; 'I' for Inactive)
REMARK    1  A    between atoms: C_2  and  C_3
REMARK    2  A    between atoms: N_5  and  C_6
REMARK    3  A    between atoms: C_6  and  C_7
REMARK    4  A    between atoms: C_7  and  C_8
REMARK    5  A    between atoms: C_8  and  C_9
REMARK    6  A    between atoms: C_9  and  C_10
REMARK    7  A    between atoms: C_10  and  N_11
REMARK    8  A    between atoms: C_10  and  C_15
REMARK    9  A    between atoms: C_12  and  C_13
REMARK   10  A    between atoms: C_25  and  C_26
REMARK                            x       y       z     vdW  Elec       q    Type
REMARK                         _______ _______ _______ _____ _____    ______ ____
ROOT
ATOM      1  C   UNL     1       3.329   6.069  19.363  0.00  0.00    +0.000 C 
ENDROOT
BRANCH   1   2
ATOM      2  C   UNL     1       3.091   7.323  18.462  0.00  0.00    +0.000 C 
ATOM      3  O   UNL     1       3.729   7.424  17.409  0.00  0.00    +0.000 OA
ATOM      4  N   UNL     1       2.250   8.341  18.864  0.00  0.00    +0.000 N 
ATOM      5  C   UNL     1       1.842   9.389  17.912  0.00  0.00    +0.000 C 
ATOM      6  C   UNL     1       0.304   9.607  17.898  0.00  0.00    +0.000 C 
ATOM      7  N   UNL     1      -0.283   9.612  19.250  0.00  0.00    +0.000 N 
ATOM      8  C   UNL     1      -0.919  10.728  19.762  0.00  0.00    +0.000 A 
ATOM      9  C   UNL     1      -1.829  11.447  18.989  0.00  0.00    +0.000 A 
ATOM     10  C   UNL     1      -2.518  12.524  19.540  0.00  0.00    +0.000 A 
ATOM     11  C   UNL     1      -2.279  12.878  20.860  0.00  0.00    +0.000 A 
ATOM     12  C   UNL     1      -1.360  12.131  21.582  0.00  0.00    +0.000 A 
ATOM     13  C   UNL     1      -1.038  12.483  23.003  0.00  0.00    +0.000 C 
ATOM     14  N   UNL     1      -0.697  11.072  21.051  0.00  0.00    +0.000 NA
ATOM     15  C   UNL     1       0.215   8.609  20.199  0.00  0.00    +0.000 C 
ATOM     16  C   UNL     1       1.746   8.592  20.212  0.00  0.00    +0.000 C 
ENDBRANCH   1   2
BRANCH   1  17
ATOM     17  N   UNL     1       2.253   5.090  19.166  0.00  0.00    +0.000 N 
ATOM     18  C   UNL     1       1.739   4.371  20.222  0.00  0.00    +0.000 C 
ATOM     19  C   UNL     1       0.722   3.330  19.837  0.00  0.00    +0.000 C 
ATOM     20  O   UNL     1       2.107   4.516  21.382  0.00  0.00    +0.000 OA
ATOM     21  H   UNL     1       1.879   4.956  18.235  0.00  0.00    +0.000 HD
ENDBRANCH   1  17
BRANCH   1  22
ATOM     22  C   UNL     1       4.703   5.374  19.298  0.00  0.00    +0.000 C 
BRANCH  22  23
ATOM     23  C   UNL     1       4.855   4.210  18.319  0.00  0.00    +0.000 C 
BRANCH  23  24
ATOM     24  C   UNL     1       5.253   4.584  16.891  0.00  0.00    +0.000 C 
BRANCH  24  25
ATOM     25  C   UNL     1       6.727   4.964  16.750  0.00  0.00    +0.000 C 
BRANCH  25  28
ATOM     26  C   UNL     1       7.550   7.051  17.772  0.00  0.00    +0.000 C 
ATOM     27  O   UNL     1       8.051   6.497  18.742  0.00  0.00    +0.000 OA
ATOM     28  N   UNL     1       6.904   6.395  16.753  0.00  0.00    +0.000 N 
ATOM     29  H   UNL     1       6.534   6.923  15.970  0.00  0.00    +0.000 HD
BRANCH  26  31
ATOM     30  C   UNL     1       8.474   9.273  18.220  0.00  0.00    +0.000 C 
ATOM     31  C   UNL     1       7.575   8.519  17.585  0.00  0.00    +0.000 C 
ENDBRANCH  26  31
ENDBRANCH  25  28
ENDBRANCH  24  25
ENDBRANCH  23  24
ENDBRANCH  22  23
ENDBRANCH   1  22
TORSDOF 8
ENDMDL
MODEL 4
REMARK VINA RESULT:      -7.0      2.769      4.229
REMARK  Name = 
REMARK  10 active torsions:
REMARK  status: ('A' for Active; 'I' for Inactive)
REMARK    1  A    between atoms: C_2  and  C_3
REMARK    2  A    between atoms: N_5  and  C_6
REMARK    3  A    between atoms: C_6  and  C_7
REMARK    4  A    between atoms: C_7  and  C_8
REMARK    5  A    between atoms: C_8  and  C_9
REMARK    6  A    between atoms: C_9  and  C_10
REMARK    7  A    between atoms: C_10  and  N_11
REMARK    8  A    between atoms: C_10  and  C_15
REMARK    9  A    between atoms: C_12  and  C_13
REMARK   10  A    between atoms: C_25  and  C_26
REMARK                            x       y       z     vdW  Elec       q    Type
REMARK                         _______ _______ _______ _____ _____    ______ ____
ROOT
ATOM      1  C   UNL     1       4.518   5.832  17.994  0.00  0.00    +0.000 C 
ENDROOT
BRANCH   1   2
ATOM      2  C   UNL     1       3.535   6.076  19.183  0.00  0.00    +0.000 C 
ATOM      3  O   UNL     1       3.692   5.428  20.223  0.00  0.00    +0.000 OA
ATOM      4  N   UNL     1       2.462   6.935  19.057  0.00  0.00    +0.000 N 
ATOM      5  C   UNL     1       1.694   7.347  20.245  0.00  0.00    +0.000 C 
ATOM      6  C   UNL     1       1.511   8.888  20.324  0.00  0.00    +0.000 C 
ATOM      7  N   UNL     1       1.175   9.490  19.021  0.00  0.00    +0.000 N 
ATOM      8  C   UNL     1      -0.024  10.146  18.811  0.00  0.00    +0.000 A 
ATOM      9  C   UNL     1      -0.510  11.057  19.747  0.00  0.00    +0.000 A 
ATOM     10  C   UNL     1      -1.681  11.766  19.489  0.00  0.00    +0.000 A 
ATOM     11  C   UNL     1      -2.359  11.547  18.300  0.00  0.00    +0.000 A 
ATOM     12  C   UNL     1      -1.833  10.626  17.406  0.00  0.00    +0.000 A 
ATOM     13  C   UNL     1      -2.535  10.324  16.117  0.00  0.00    +0.000 C 
ATOM     14  N   UNL     1      -0.685   9.943  17.649  0.00  0.00    +0.000 NA
ATOM     15  C   UNL     1       1.899   8.988  17.847  0.00  0.00    +0.000 C 
ATOM     16  C   UNL     1       1.888   7.458  17.818  0.00  0.00    +0.000 C 
ENDBRANCH   1   2
BRANCH   1  17
ATOM     17  N   UNL     1       5.878   6.241  18.365  0.00  0.00    +0.000 N 
ATOM     18  C   UNL     1       6.671   6.957  17.497  0.00  0.00    +0.000 C 
ATOM     19  C   UNL     1       8.074   7.200  17.985  0.00  0.00    +0.000 C 
ATOM     20  O   UNL     1       6.298   7.330  16.391  0.00  0.00    +0.000 OA
ATOM     21  H   UNL     1       6.227   5.997  19.284  0.00  0.00    +0.000 HD
ENDBRANCH   1  17
BRANCH   1  22
ATOM     22  C   UNL     1       4.539   4.436  17.340  0.00  0.00    +0.000 C 
BRANCH  22  23
ATOM     23  C   UNL     1       3.285   3.994  16.588  0.00  0.00    +0.000 C 
BRANCH  23  24
ATOM     24  C   UNL     1       2.762   2.596  16.921  0.00  0.00    +0.000 C 
BRANCH  24  25
ATOM     25  C   UNL     1       3.530   1.914  18.052  0.00  0.00    +0.000 C 
BRANCH  25  28
ATOM     26  C   UNL     1       3.542   2.254  20.494  0.00  0.00    +0.000 C 
ATOM     27  O   UNL     1       4.760   2.327  20.579  0.00  0.00    +0.000 OA
ATOM     28  N   UNL     1       2.856   2.071  19.317  0.00  0.00    +0.000 N 
ATOM     29  H   UNL     1       1.843   2.044  19.324  0.00  0.00    +0.000 HD
BRANCH  26  31
ATOM     30  C   UNL     1       1.496   3.017  21.598  0.00  0.00    +0.000 C 
ATOM     31  C   UNL     1       2.647   2.347  21.669  0.00  0.00    +0.000 C 
ENDBRANCH  26  31
ENDBRANCH  25  28
ENDBRANCH  24  25
ENDBRANCH  23  24
ENDBRANCH  22  23
ENDBRANCH   1  22
TORSDOF 8
ENDMDL
MODEL 5
REMARK VINA RESULT:      -6.9      1.235      1.407
REMARK  Name = 
REMARK  10 active torsions:
REMARK  status: ('A' for Active; 'I' for Inactive)
REMARK    1  A    between atoms: C_2  and  C_3
REMARK    2  A    between atoms: N_5  and  C_6
REMARK    3  A    between atoms: C_6  and  C_7
REMARK    4  A    between atoms: C_7  and  C_8
REMARK    5  A    between atoms: C_8  and  C_9
REMARK    6  A    between atoms: C_9  and  C_10
REMARK    7  A    between atoms: C_10  and  N_11
REMARK    8  A    between atoms: C_10  and  C_15
REMARK    9  A    between atoms: C_12  and  C_13
REMARK   10  A    between atoms: C_25  and  C_26
REMARK                            x       y       z     vdW  Elec       q    Type
REMARK                         _______ _______ _______ _____ _____    ______ ____
ROOT
ATOM      1  C   UNL     1       4.611   5.730  18.199  0.00  0.00    +0.000 C 
ENDROOT
BRANCH   1   2
ATOM      2  C   UNL     1       3.502   5.791  19.298  0.00  0.00    +0.000 C 
ATOM      3  O   UNL     1       3.533   4.965  20.217  0.00  0.00    +0.000 OA
ATOM      4  N   UNL     1       2.459   6.691  19.210  0.00  0.00    +0.000 N 
ATOM      5  C   UNL     1       1.566   6.910  20.361  0.00  0.00    +0.000 C 
ATOM      6  C   UNL     1       1.391   8.417  20.694  0.00  0.00    +0.000 C 
ATOM      7  N   UNL     1       1.211   9.249  19.491  0.00  0.00    +0.000 N 
ATOM      8  C   UNL     1       0.050   9.969  19.272  0.00  0.00    +0.000 A 
ATOM      9  C   UNL     1      -0.529  10.715  20.296  0.00  0.00    +0.000 A 
ATOM     10  C   UNL     1      -1.656  11.494  20.042  0.00  0.00    +0.000 A 
ATOM     11  C   UNL     1      -2.197  11.508  18.766  0.00  0.00    +0.000 A 
ATOM     12  C   UNL     1      -1.582  10.744  17.785  0.00  0.00    +0.000 A 
ATOM     13  C   UNL     1      -2.137  10.696  16.393  0.00  0.00    +0.000 C 
ATOM     14  N   UNL     1      -0.476   9.994  18.026  0.00  0.00    +0.000 NA
ATOM     15  C   UNL     1       2.059   8.941  18.332  0.00  0.00    +0.000 C 
ATOM     16  C   UNL     1       2.035   7.441  18.030  0.00  0.00    +0.000 C 
ENDBRANCH   1   2
BRANCH   1  17
ATOM     17  N   UNL     1       5.904   5.383  18.800  0.00  0.00    +0.000 N 
ATOM     18  C   UNL     1       7.039   6.114  18.527  0.00  0.00    +0.000 C 
ATOM     19  C   UNL     1       8.302   5.562  19.132  0.00  0.00    +0.000 C 
ATOM     20  O   UNL     1       7.046   7.107  17.809  0.00  0.00    +0.000 OA
ATOM     21  H   UNL     1       5.952   4.596  19.435  0.00  0.00    +0.000 HD
ENDBRANCH   1  17
BRANCH   1  22
ATOM     22  C   UNL     1       4.353   4.866  16.949  0.00  0.00    +0.000 C 
BRANCH  22  23
ATOM     23  C   UNL     1       5.188   5.164  15.705  0.00  0.00    +0.000 C 
BRANCH  23  24
ATOM     24  C   UNL     1       5.587   3.953  14.861  0.00  0.00    +0.000 C 
BRANCH  24  25
ATOM     25  C   UNL     1       5.085   4.025  13.419  0.00  0.00    +0.000 C 
BRANCH  25  28
ATOM     26  C   UNL     1       6.850   3.257  11.878  0.00  0.00    +0.000 C 
ATOM     27  O   UNL     1       7.460   4.318  11.888  0.00  0.00    +0.000 OA
ATOM     28  N   UNL     1       5.703   3.015  12.596  0.00  0.00    +0.000 N 
ATOM     29  H   UNL     1       5.267   2.101  12.554  0.00  0.00    +0.000 HD
BRANCH  26  31
ATOM     30  C   UNL     1       6.557   0.969  11.062  0.00  0.00    +0.000 C 
ATOM     31  C   UNL     1       7.277   2.092  11.072  0.00  0.00    +0.000 C 
ENDBRANCH  26  31
ENDBRANCH  25  28
ENDBRANCH  24  25
ENDBRANCH  23  24
ENDBRANCH  22  23
ENDBRANCH   1  22
TORSDOF 8
ENDMDL
MODEL 6
REMARK VINA RESULT:      -6.9      2.570      4.019
REMARK  Name = 
REMARK  10 active torsions:
REMARK  status: ('A' for Active; 'I' for Inactive)
REMARK    1  A    between atoms: C_2  and  C_3
REMARK    2  A    between atoms: N_5  and  C_6
REMARK    3  A    between atoms: C_6  and  C_7
REMARK    4  A    between atoms: C_7  and  C_8
REMARK    5  A    between atoms: C_8  and  C_9
REMARK    6  A    between atoms: C_9  and  C_10
REMARK    7  A    between atoms: C_10  and  N_11
REMARK    8  A    between atoms: C_10  and  C_15
REMARK    9  A    between atoms: C_12  and  C_13
REMARK   10  A    between atoms: C_25  and  C_26
REMARK                            x       y       z     vdW  Elec       q    Type
REMARK                         _______ _______ _______ _____ _____    ______ ____
ROOT
ATOM      1  C   UNL     1       3.974   5.068  18.721  0.00  0.00    +0.000 C 
ENDROOT
BRANCH   1   2
ATOM      2  C   UNL     1       2.985   5.443  19.869  0.00  0.00    +0.000 C 
ATOM      3  O   UNL     1       2.983   4.755  20.896  0.00  0.00    +0.000 OA
ATOM      4  N   UNL     1       2.071   6.467  19.720  0.00  0.00    +0.000 N 
ATOM      5  C   UNL     1       1.321   6.972  20.883  0.00  0.00    +0.000 C 
ATOM      6  C   UNL     1       1.385   8.520  21.000  0.00  0.00    +0.000 C 
ATOM      7  N   UNL     1       1.216   9.197  19.701  0.00  0.00    +0.000 N 
ATOM      8  C   UNL     1       0.151  10.044  19.457  0.00  0.00    +0.000 A 
ATOM      9  C   UNL     1      -0.229  11.001  20.396  0.00  0.00    +0.000 A 
ATOM     10  C   UNL     1      -1.256  11.896  20.106  0.00  0.00    +0.000 A 
ATOM     11  C   UNL     1      -1.899  11.816  18.880  0.00  0.00    +0.000 A 
ATOM     12  C   UNL     1      -1.484  10.842  17.984  0.00  0.00    +0.000 A 
ATOM     13  C   UNL     1      -2.160  10.687  16.656  0.00  0.00    +0.000 C 
ATOM     14  N   UNL     1      -0.475   9.976  18.260  0.00  0.00    +0.000 NA
ATOM     15  C   UNL     1       1.909   8.611  18.547  0.00  0.00    +0.000 C 
ATOM     16  C   UNL     1       1.652   7.103  18.473  0.00  0.00    +0.000 C 
ENDBRANCH   1   2
BRANCH   1  17
ATOM     17  N   UNL     1       4.270   3.631  18.752  0.00  0.00    +0.000 N 
ATOM     18  C   UNL     1       3.381   2.706  18.252  0.00  0.00    +0.000 C 
ATOM     19  C   UNL     1       3.783   1.271  18.460  0.00  0.00    +0.000 C 
ATOM     20  O   UNL     1       2.317   3.009  17.723  0.00  0.00    +0.000 OA
ATOM     21  H   UNL     1       5.153   3.323  19.139  0.00  0.00    +0.000 HD
ENDBRANCH   1  17
BRANCH   1  22
ATOM     22  C   UNL     1       3.626   5.511  17.285  0.00  0.00    +0.000 C 
BRANCH  22  23
ATOM     23  C   UNL     1       4.789   5.859  16.357  0.00  0.00    +0.000 C 
BRANCH  23  24
ATOM     24  C   UNL     1       5.446   4.681  15.638  0.00  0.00    +0.000 C 
BRANCH  24  25
ATOM     25  C   UNL     1       6.936   4.535  15.946  0.00  0.00    +0.000 C 
BRANCH  25  28
ATOM     26  C   UNL     1       7.594   5.641  18.049  0.00  0.00    +0.000 C 
ATOM     27  O   UNL     1       7.361   4.667  18.752  0.00  0.00    +0.000 OA
ATOM     28  N   UNL     1       7.434   5.669  16.684  0.00  0.00    +0.000 N 
ATOM     29  H   UNL     1       7.671   6.508  16.167  0.00  0.00    +0.000 HD
BRANCH  26  31
ATOM     30  C   UNL     1       7.988   8.050  17.877  0.00  0.00    +0.000 C 
ATOM     31  C   UNL     1       8.076   6.929  18.596  0.00  0.00    +0.000 C 
ENDBRANCH  26  31
ENDBRANCH  25  28
ENDBRANCH  24  25
ENDBRANCH  23  24
ENDBRANCH  22  23
ENDBRANCH   1  22
TORSDOF 8
ENDMDL
MODEL 7
REMARK VINA RESULT:      -6.8      2.119      4.069
REMARK  Name = 
REMARK  10 active torsions:
REMARK  status: ('A' for Active; 'I' for Inactive)
REMARK    1  A    between atoms: C_2  and  C_3
REMARK    2  A    between atoms: N_5  and  C_6
REMARK    3  A    between atoms: C_6  and  C_7
REMARK    4  A    between atoms: C_7  and  C_8
REMARK    5  A    between atoms: C_8  and  C_9
REMARK    6  A    between atoms: C_9  and  C_10
REMARK    7  A    between atoms: C_10  and  N_11
REMARK    8  A    between atoms: C_10  and  C_15
REMARK    9  A    between atoms: C_12  and  C_13
REMARK   10  A    between atoms: C_25  and  C_26
REMARK                            x       y       z     vdW  Elec       q    Type
REMARK                         _______ _______ _______ _____ _____    ______ ____
ROOT
ATOM      1  C   UNL     1       2.867   6.124  19.360  0.00  0.00    +0.000 C 
ENDROOT
BRANCH   1   2
ATOM      2  C   UNL     1       2.672   7.390  18.467  0.00  0.00    +0.000 C 
ATOM      3  O   UNL     1       3.279   7.457  17.392  0.00  0.00    +0.000 OA
ATOM      4  N   UNL     1       1.903   8.455  18.895  0.00  0.00    +0.000 N 
ATOM      5  C   UNL     1       1.524   9.525  17.956  0.00  0.00    +0.000 C 
ATOM      6  C   UNL     1       0.002   9.831  17.993  0.00  0.00    +0.000 C 
ATOM      7  N   UNL     1      -0.539   9.868  19.364  0.00  0.00    +0.000 N 
ATOM      8  C   UNL     1      -1.094  11.017  19.895  0.00  0.00    +0.000 A 
ATOM      9  C   UNL     1      -1.986  11.787  19.152  0.00  0.00    +0.000 A 
ATOM     10  C   UNL     1      -2.594  12.902  19.726  0.00  0.00    +0.000 A 
ATOM     11  C   UNL     1      -2.292  13.239  21.036  0.00  0.00    +0.000 A 
ATOM     12  C   UNL     1      -1.394  12.441  21.729  0.00  0.00    +0.000 A 
ATOM     13  C   UNL     1      -1.006  12.771  23.138  0.00  0.00    +0.000 C 
ATOM     14  N   UNL     1      -0.810  11.347  21.176  0.00  0.00    +0.000 NA
ATOM     15  C   UNL     1      -0.068   8.836  20.296  0.00  0.00    +0.000 C 
ATOM     16  C   UNL     1       1.459   8.732  20.259  0.00  0.00    +0.000 C 
ENDBRANCH   1   2
BRANCH   1  17
ATOM     17  N   UNL     1       2.166   4.975  18.774  0.00  0.00    +0.000 N 
ATOM     18  C   UNL     1       1.356   4.166  19.538  0.00  0.00    +0.000 C 
ATOM     19  C   UNL     1       0.802   2.968  18.814  0.00  0.00    +0.000 C 
ATOM     20  O   UNL     1       1.135   4.360  20.728  0.00  0.00    +0.000 OA
ATOM     21  H   UNL     1       2.277   4.788  17.785  0.00  0.00    +0.000 HD
ENDBRANCH   1  17
BRANCH   1  22
ATOM     22  C   UNL     1       4.302   5.728  19.760  0.00  0.00    +0.000 C 
BRANCH  22  23
ATOM     23  C   UNL     1       5.121   4.934  18.744  0.00  0.00    +0.000 C 
BRANCH  23  24
ATOM     24  C   UNL     1       6.363   5.633  18.193  0.00  0.00    +0.000 C 
BRANCH  24  25
ATOM     25  C   UNL     1       7.359   4.677  17.537  0.00  0.00    +0.000 C 
BRANCH  25  28
ATOM     26  C   UNL     1       6.556   4.207  15.254  0.00  0.00    +0.000 C 
ATOM     27  O   UNL     1       5.677   3.436  15.614  0.00  0.00    +0.000 OA
ATOM     28  N   UNL     1       7.407   4.866  16.108  0.00  0.00    +0.000 N 
ATOM     29  H   UNL     1       8.097   5.509  15.735  0.00  0.00    +0.000 HD
BRANCH  26  31
ATOM     30  C   UNL     1       6.352   3.730  12.863  0.00  0.00    +0.000 C 
ATOM     31  C   UNL     1       6.816   4.521  13.832  0.00  0.00    +0.000 C 
ENDBRANCH  26  31
ENDBRANCH  25  28
ENDBRANCH  24  25
ENDBRANCH  23  24
ENDBRANCH  22  23
ENDBRANCH   1  22
TORSDOF 8
ENDMDL
MODEL 8
REMARK VINA RESULT:      -6.8      1.711      2.372
REMARK  Name = 
REMARK  10 active torsions:
REMARK  status: ('A' for Active; 'I' for Inactive)
REMARK    1  A    between atoms: C_2  and  C_3
REMARK    2  A    between atoms: N_5  and  C_6
REMARK    3  A    between atoms: C_6  and  C_7
REMARK    4  A    between atoms: C_7  and  C_8
REMARK    5  A    between atoms: C_8  and  C_9
REMARK    6  A    between atoms: C_9  and  C_10
REMARK    7  A    between atoms: C_10  and  N_11
REMARK    8  A    between atoms: C_10  and  C_15
REMARK    9  A    between atoms: C_12  and  C_13
REMARK   10  A    between atoms: C_25  and  C_26
REMARK                            x       y       z     vdW  Elec       q    Type
REMARK                         _______ _______ _______ _____ _____    ______ ____
ROOT
ATOM      1  C   UNL     1       4.076   5.097  18.839  0.00  0.00    +0.000 C 
ENDROOT
BRANCH   1   2
ATOM      2  C   UNL     1       3.082   5.572  19.945  0.00  0.00    +0.000 C 
ATOM      3  O   UNL     1       3.112   5.015  21.047  0.00  0.00    +0.000 OA
ATOM      4  N   UNL     1       2.130   6.538  19.683  0.00  0.00    +0.000 N 
ATOM      5  C   UNL     1       1.370   7.154  20.784  0.00  0.00    +0.000 C 
ATOM      6  C   UNL     1       1.378   8.705  20.712  0.00  0.00    +0.000 C 
ATOM      7  N   UNL     1       1.175   9.213  19.343  0.00  0.00    +0.000 N 
ATOM      8  C   UNL     1       0.078   9.985  19.009  0.00  0.00    +0.000 A 
ATOM      9  C   UNL     1      -0.330  11.035  19.829  0.00  0.00    +0.000 A 
ATOM     10  C   UNL     1      -1.391  11.851  19.444  0.00  0.00    +0.000 A 
ATOM     11  C   UNL     1      -2.040  11.600  18.245  0.00  0.00    +0.000 A 
ATOM     12  C   UNL     1      -1.595  10.540  17.469  0.00  0.00    +0.000 A 
ATOM     13  C   UNL     1      -2.275  10.200  16.177  0.00  0.00    +0.000 C 
ATOM     14  N   UNL     1      -0.553   9.751  17.836  0.00  0.00    +0.000 NA
ATOM     15  C   UNL     1       1.881   8.516  18.260  0.00  0.00    +0.000 C 
ATOM     16  C   UNL     1       1.680   7.002  18.372  0.00  0.00    +0.000 C 
ENDBRANCH   1   2
BRANCH   1  17
ATOM     17  N   UNL     1       3.577   3.874  18.197  0.00  0.00    +0.000 N 
ATOM     18  C   UNL     1       3.901   2.628  18.684  0.00  0.00    +0.000 C 
ATOM     19  C   UNL     1       3.403   1.479  17.849  0.00  0.00    +0.000 C 
ATOM     20  O   UNL     1       4.583   2.450  19.686  0.00  0.00    +0.000 OA
ATOM     21  H   UNL     1       2.973   3.959  17.389  0.00  0.00    +0.000 HD
ENDBRANCH   1  17
BRANCH   1  22
ATOM     22  C   UNL     1       4.522   6.116  17.772  0.00  0.00    +0.000 C 
BRANCH  22  23
ATOM     23  C   UNL     1       4.787   5.587  16.362  0.00  0.00    +0.000 C 
BRANCH  23  24
ATOM     24  C   UNL     1       6.110   4.847  16.163  0.00  0.00    +0.000 C 
BRANCH  24  25
ATOM     25  C   UNL     1       6.632   4.910  14.728  0.00  0.00    +0.000 C 
BRANCH  25  28
ATOM     26  C   UNL     1       6.333   3.742  12.578  0.00  0.00    +0.000 C 
ATOM     27  O   UNL     1       7.284   4.288  12.034  0.00  0.00    +0.000 OA
ATOM     28  N   UNL     1       5.950   3.966  13.878  0.00  0.00    +0.000 N 
ATOM     29  H   UNL     1       5.163   3.457  14.266  0.00  0.00    +0.000 HD
BRANCH  26  31
ATOM     30  C   UNL     1       4.337   3.159  11.288  0.00  0.00    +0.000 C 
ATOM     31  C   UNL     1       5.464   2.766  11.885  0.00  0.00    +0.000 C 
ENDBRANCH  26  31
ENDBRANCH  25  28
ENDBRANCH  24  25
ENDBRANCH  23  24
ENDBRANCH  22  23
ENDBRANCH   1  22
TORSDOF 8
ENDMDL
MODEL 9
REMARK VINA RESULT:      -6.7      3.014      4.534
REMARK  Name = 
REMARK  10 active torsions:
REMARK  status: ('A' for Active; 'I' for Inactive)
REMARK    1  A    between atoms: C_2  and  C_3
REMARK    2  A    between atoms: N_5  and  C_6
REMARK    3  A    between atoms: C_6  and  C_7
REMARK    4  A    between atoms: C_7  and  C_8
REMARK    5  A    between atoms: C_8  and  C_9
REMARK    6  A    between atoms: C_9  and  C_10
REMARK    7  A    between atoms: C_10  and  N_11
REMARK    8  A    between atoms: C_10  and  C_15
REMARK    9  A    between atoms: C_12  and  C_13
REMARK   10  A    between atoms: C_25  and  C_26
REMARK                            x       y       z     vdW  Elec       q    Type
REMARK                         _______ _______ _______ _____ _____    ______ ____
ROOT
ATOM      1  C   UNL     1       4.622   6.019  17.756  0.00  0.00    +0.000 C 
ENDROOT
BRANCH   1   2
ATOM      2  C   UNL     1       3.670   6.169  18.984  0.00  0.00    +0.000 C 
ATOM      3  O   UNL     1       3.871   5.465  19.979  0.00  0.00    +0.000 OA
ATOM      4  N   UNL     1       2.575   7.009  18.939  0.00  0.00    +0.000 N 
ATOM      5  C   UNL     1       1.833   7.332  20.171  0.00  0.00    +0.000 C 
ATOM      6  C   UNL     1       1.619   8.861  20.347  0.00  0.00    +0.000 C 
ATOM      7  N   UNL     1       1.232   9.531  19.092  0.00  0.00    +0.000 N 
ATOM      8  C   UNL     1       0.014  10.170  18.955  0.00  0.00    +0.000 A 
ATOM      9  C   UNL     1      -0.464  11.013  19.956  0.00  0.00    +0.000 A 
ATOM     10  C   UNL     1      -1.657  11.709  19.774  0.00  0.00    +0.000 A 
ATOM     11  C   UNL     1      -2.364  11.544  18.593  0.00  0.00    +0.000 A 
ATOM     12  C   UNL     1      -1.845  10.690  17.632  0.00  0.00    +0.000 A 
ATOM     13  C   UNL     1      -2.578  10.449  16.347  0.00  0.00    +0.000 C 
ATOM     14  N   UNL     1      -0.676  10.021  17.802  0.00  0.00    +0.000 NA
ATOM     15  C   UNL     1       1.933   9.117  17.870  0.00  0.00    +0.000 C 
ATOM     16  C   UNL     1       1.954   7.591  17.750  0.00  0.00    +0.000 C 
ENDBRANCH   1   2
BRANCH   1  17
ATOM     17  N   UNL     1       5.990   6.407  18.121  0.00  0.00    +0.000 N 
ATOM     18  C   UNL     1       6.839   5.526  18.753  0.00  0.00    +0.000 C 
ATOM     19  C   UNL     1       8.164   6.113  19.158  0.00  0.00    +0.000 C 
ATOM     20  O   UNL     1       6.537   4.369  19.018  0.00  0.00    +0.000 OA
ATOM     21  H   UNL     1       6.310   7.339  17.889  0.00  0.00    +0.000 HD
ENDBRANCH   1  17
BRANCH   1  22
ATOM     22  C   UNL     1       4.632   4.674  17.001  0.00  0.00    +0.000 C 
BRANCH  22  23
ATOM     23  C   UNL     1       3.635   3.608  17.452  0.00  0.00    +0.000 C 
BRANCH  23  24
ATOM     24  C   UNL     1       2.180   3.836  17.041  0.00  0.00    +0.000 C 
BRANCH  24  25
ATOM     25  C   UNL     1       1.171   3.207  18.001  0.00  0.00    +0.000 C 
BRANCH  25  28
ATOM     26  C   UNL     1       1.395   3.430  20.446  0.00  0.00    +0.000 C 
ATOM     27  O   UNL     1       0.490   4.247  20.555  0.00  0.00    +0.000 OA
ATOM     28  N   UNL     1       1.786   2.861  19.258  0.00  0.00    +0.000 N 
ATOM     29  H   UNL     1       2.531   2.173  19.252  0.00  0.00    +0.000 HD
BRANCH  26  31
ATOM     30  C   UNL     1       3.306   2.246  21.411  0.00  0.00    +0.000 C 
ATOM     31  C   UNL     1       2.193   2.957  21.598  0.00  0.00    +0.000 C 
ENDBRANCH  26  31
ENDBRANCH  25  28
ENDBRANCH  24  25
ENDBRANCH  23  24
ENDBRANCH  22  23
ENDBRANCH   1  22
TORSDOF 8
ENDMDL
