MODEL 1
REMARK VINA RESULT:      -8.8      0.000      0.000
REMARK  Name = 
REMARK  5 active torsions:
REMARK  status: ('A' for Active; 'I' for Inactive)
REMARK    1  A    between atoms: C_1  and  C_2
REMARK    2  A    between atoms: C_5  and  N_6
REMARK    3  A    between atoms: C_11  and  C_12
REMARK    4  A    between atoms: C_19  and  C_20
REMARK    5  A    between atoms: C_20  and  C_21
REMARK                            x       y       z     vdW  Elec       q    Type
REMARK                         _______ _______ _______ _____ _____    ______ ____
ROOT
ATOM      1  C   UNL     1       0.512   9.771  19.237  0.00  0.00    +0.000 C 
ATOM      2  O   UNL     1       1.592   9.720  18.651  0.00  0.00    +0.000 OA
ATOM      3  N   UNL     1       0.335   9.262  20.533  0.00  0.00    +0.000 N 
ATOM      4  C   UNL     1      -0.866   9.299  21.374  0.00  0.00    +0.000 C 
ATOM      5  C   UNL     1      -0.527   9.973  22.698  0.00  0.00    +0.000 C 
ATOM      6  C   UNL     1       0.673   9.283  23.321  0.00  0.00    +0.000 C 
ATOM      7  O   UNL     1       1.755   9.239  22.400  0.00  0.00    +0.000 OA
ATOM      8  C   UNL     1       1.476   8.584  21.153  0.00  0.00    +0.000 C 
ENDROOT
BRANCH   1  14
ATOM      9  C   UNL     1      -2.895   9.621  15.637  0.00  0.00    +0.000 C 
ATOM     10  C   UNL     1      -2.351  10.347  16.829  0.00  0.00    +0.000 A 
ATOM     11  C   UNL     1      -2.827  11.596  17.212  0.00  0.00    +0.000 A 
ATOM     12  C   UNL     1      -2.237  12.267  18.286  0.00  0.00    +0.000 A 
ATOM     13  C   UNL     1      -1.097  11.741  18.933  0.00  0.00    +0.000 A 
ATOM     14  C   UNL     1      -0.594  10.487  18.539  0.00  0.00    +0.000 A 
ATOM     15  C   UNL     1      -1.301   9.773  17.552  0.00  0.00    +0.000 A 
BRANCH  13  16
ATOM     16  N   UNL     1      -0.523  12.524  19.969  0.00  0.00    +0.000 N 
ATOM     17  N   UNL     1       0.751  13.001  19.943  0.00  0.00    +0.000 NA
ATOM     18  C   UNL     1       0.844  13.623  21.122  0.00  0.00    +0.000 A 
ATOM     19  C   UNL     1      -0.390  13.603  21.772  0.00  0.00    +0.000 A 
ATOM     20  N   UNL     1      -1.292  12.987  21.006  0.00  0.00    +0.000 NA
ENDBRANCH  13  16
ENDBRANCH   1  14
BRANCH   8  21
ATOM     21  C   UNL     1       1.222   7.064  21.291  0.00  0.00    +0.000 C 
BRANCH  21  22
ATOM     22  C   UNL     1       2.016   6.174  20.396  0.00  0.00    +0.000 A 
ATOM     23  C   UNL     1       2.152   4.770  20.408  0.00  0.00    +0.000 A 
ATOM     24  N   UNL     1       2.872   4.308  19.385  0.00  0.00    +0.000 NA
ATOM     25  N   UNL     1       3.246   5.427  18.705  0.00  0.00    +0.000 N 
ATOM     26  C   UNL     1       4.060   5.374  17.538  0.00  0.00    +0.000 A 
ATOM     27  C   UNL     1       4.434   4.125  17.035  0.00  0.00    +0.000 A 
ATOM     28  C   UNL     1       5.253   4.080  15.908  0.00  0.00    +0.000 A 
ATOM     29  C   UNL     1       5.677   5.270  15.335  0.00  0.00    +0.000 A 
ATOM     30  F   UNL     1       6.478   5.253  14.265  0.00  0.00    +0.000 F 
ATOM     31  C   UNL     1       5.257   6.467  15.885  0.00  0.00    +0.000 A 
ATOM     32  N   UNL     1       4.452   6.552  16.970  0.00  0.00    +0.000 NA
ATOM     33  C   UNL     1       2.735   6.564  19.288  0.00  0.00    +0.000 A 
ENDBRANCH  21  22
ENDBRANCH   8  21
TORSDOF 4
ENDMDL
MODEL 2
REMARK VINA RESULT:      -8.5      5.214      8.978
REMARK  Name = 
REMARK  5 active torsions:
REMARK  status: ('A' for Active; 'I' for Inactive)
REMARK    1  A    between atoms: C_1  and  C_2
REMARK    2  A    between atoms: C_5  and  N_6
REMARK    3  A    between atoms: C_11  and  C_12
REMARK    4  A    between atoms: C_19  and  C_20
REMARK    5  A    between atoms: C_20  and  C_21
REMARK                            x       y       z     vdW  Elec       q    Type
REMARK                         _______ _______ _______ _____ _____    ______ ____
ROOT
ATOM      1  C   UNL     1       5.246   5.268  19.128  0.00  0.00    +0.000 C 
ATOM      2  O   UNL     1       6.155   5.222  19.955  0.00  0.00    +0.000 OA
ATOM      3  N   UNL     1       5.490   5.328  17.747  0.00  0.00    +0.000 N 
ATOM      4  C   UNL     1       4.520   5.333  16.646  0.00  0.00    +0.000 C 
ATOM      5  C   UNL     1       4.833   4.179  15.701  0.00  0.00    +0.000 C 
ATOM      6  C   UNL     1       6.287   4.258  15.276  0.00  0.00    +0.000 C 
ATOM      7  O   UNL     1       7.136   4.319  16.415  0.00  0.00    +0.000 OA
ATOM      8  C   UNL     1       6.886   5.413  17.311  0.00  0.00    +0.000 C 
ENDROOT
BRANCH   1  14
ATOM      9  C   UNL     1       1.287   7.701  20.862  0.00  0.00    +0.000 C 
ATOM     10  C   UNL     1       1.864   6.397  20.401  0.00  0.00    +0.000 A 
ATOM     11  C   UNL     1       1.160   5.202  20.499  0.00  0.00    +0.000 A 
ATOM     12  C   UNL     1       1.769   4.002  20.125  0.00  0.00    +0.000 A 
ATOM     13  C   UNL     1       3.127   3.965  19.738  0.00  0.00    +0.000 A 
ATOM     14  C   UNL     1       3.855   5.167  19.655  0.00  0.00    +0.000 A 
ATOM     15  C   UNL     1       3.170   6.373  19.899  0.00  0.00    +0.000 A 
BRANCH  13  16
ATOM     16  N   UNL     1       3.680   2.693  19.441  0.00  0.00    +0.000 N 
ATOM     17  N   UNL     1       3.451   2.016  18.283  0.00  0.00    +0.000 NA
ATOM     18  C   UNL     1       4.130   0.882  18.479  0.00  0.00    +0.000 A 
ATOM     19  C   UNL     1       4.833   0.947  19.682  0.00  0.00    +0.000 A 
ATOM     20  N   UNL     1       4.628   2.133  20.258  0.00  0.00    +0.000 NA
ENDBRANCH  13  16
ENDBRANCH   1  14
BRANCH   8  21
ATOM     21  C   UNL     1       7.204   6.800  16.705  0.00  0.00    +0.000 C 
BRANCH  21  22
ATOM     22  C   UNL     1       7.826   7.799  17.621  0.00  0.00    +0.000 A 
ATOM     23  C   UNL     1       8.461   7.611  18.866  0.00  0.00    +0.000 A 
ATOM     24  N   UNL     1       8.989   8.733  19.356  0.00  0.00    +0.000 NA
ATOM     25  N   UNL     1       8.669   9.685  18.436  0.00  0.00    +0.000 N 
ATOM     26  C   UNL     1       9.033  11.052  18.594  0.00  0.00    +0.000 A 
ATOM     27  C   UNL     1       9.804  11.419  19.701  0.00  0.00    +0.000 A 
ATOM     28  C   UNL     1      10.135  12.762  19.865  0.00  0.00    +0.000 A 
ATOM     29  C   UNL     1       9.679  13.686  18.937  0.00  0.00    +0.000 A 
ATOM     30  F   UNL     1       9.967  14.985  19.082  0.00  0.00    +0.000 F 
ATOM     31  C   UNL     1       8.928  13.246  17.862  0.00  0.00    +0.000 A 
ATOM     32  N   UNL     1       8.597  11.949  17.662  0.00  0.00    +0.000 NA
ATOM     33  C   UNL     1       7.976   9.147  17.376  0.00  0.00    +0.000 A 
ENDBRANCH  21  22
ENDBRANCH   8  21
TORSDOF 4
ENDMDL
MODEL 3
REMARK VINA RESULT:      -7.9      1.873      4.205
REMARK  Name = 
REMARK  5 active torsions:
REMARK  status: ('A' for Active; 'I' for Inactive)
REMARK    1  A    between atoms: C_1  and  C_2
REMARK    2  A    between atoms: C_5  and  N_6
REMARK    3  A    between atoms: C_11  and  C_12
REMARK    4  A    between atoms: C_19  and  C_20
REMARK    5  A    between atoms: C_20  and  C_21
REMARK                            x       y       z     vdW  Elec       q    Type
REMARK                         _______ _______ _______ _____ _____    ______ ____
ROOT
ATOM      1  C   UNL     1      -0.227  11.881  21.551  0.00  0.00    +0.000 C 
ATOM      2  O   UNL     1       0.091  11.027  22.377  0.00  0.00    +0.000 OA
ATOM      3  N   UNL     1      -0.412  11.579  20.193  0.00  0.00    +0.000 N 
ATOM      4  C   UNL     1      -0.841  12.469  19.109  0.00  0.00    +0.000 C 
ATOM      5  C   UNL     1      -2.080  11.883  18.442  0.00  0.00    +0.000 C 
ATOM      6  C   UNL     1      -1.797  10.452  18.024  0.00  0.00    +0.000 C 
ATOM      7  O   UNL     1      -1.322   9.696  19.130  0.00  0.00    +0.000 OA
ATOM      8  C   UNL     1      -0.137  10.206  19.763  0.00  0.00    +0.000 C 
ENDROOT
BRANCH   1  14
ATOM      9  C   UNL     1      -3.368  14.832  24.002  0.00  0.00    +0.000 C 
ATOM     10  C   UNL     1      -2.011  14.666  23.391  0.00  0.00    +0.000 A 
ATOM     11  C   UNL     1      -1.109  15.721  23.297  0.00  0.00    +0.000 A 
ATOM     12  C   UNL     1       0.115  15.535  22.652  0.00  0.00    +0.000 A 
ATOM     13  C   UNL     1       0.418  14.318  22.003  0.00  0.00    +0.000 A 
ATOM     14  C   UNL     1      -0.497  13.250  22.074  0.00  0.00    +0.000 A 
ATOM     15  C   UNL     1      -1.655  13.424  22.855  0.00  0.00    +0.000 A 
BRANCH  13  16
ATOM     16  N   UNL     1       1.657  14.242  21.314  0.00  0.00    +0.000 N 
ATOM     17  N   UNL     1       1.797  14.462  19.979  0.00  0.00    +0.000 NA
ATOM     18  C   UNL     1       3.101  14.239  19.792  0.00  0.00    +0.000 A 
ATOM     19  C   UNL     1       3.728  14.006  21.016  0.00  0.00    +0.000 A 
ATOM     20  N   UNL     1       2.834  14.098  22.002  0.00  0.00    +0.000 NA
ENDBRANCH  13  16
ENDBRANCH   1  14
BRANCH   8  21
ATOM     21  C   UNL     1       1.124  10.136  18.870  0.00  0.00    +0.000 C 
BRANCH  21  22
ATOM     22  C   UNL     1       1.876   8.849  18.883  0.00  0.00    +0.000 A 
ATOM     23  C   UNL     1       1.872   7.809  19.835  0.00  0.00    +0.000 A 
ATOM     24  N   UNL     1       2.602   6.758  19.461  0.00  0.00    +0.000 NA
ATOM     25  N   UNL     1       3.125   7.122  18.258  0.00  0.00    +0.000 N 
ATOM     26  C   UNL     1       3.997   6.275  17.517  0.00  0.00    +0.000 A 
ATOM     27  C   UNL     1       4.275   4.998  18.012  0.00  0.00    +0.000 A 
ATOM     28  C   UNL     1       5.150   4.184  17.296  0.00  0.00    +0.000 A 
ATOM     29  C   UNL     1       5.723   4.671  16.130  0.00  0.00    +0.000 A 
ATOM     30  F   UNL     1       6.581   3.916  15.435  0.00  0.00    +0.000 F 
ATOM     31  C   UNL     1       5.392   5.943  15.700  0.00  0.00    +0.000 A 
ATOM     32  N   UNL     1       4.537   6.758  16.359  0.00  0.00    +0.000 NA
ATOM     33  C   UNL     1       2.696   8.374  17.882  0.00  0.00    +0.000 A 
ENDBRANCH  21  22
ENDBRANCH   8  21
TORSDOF 4
ENDMDL
MODEL 4
REMARK VINA RESULT:      -7.8      5.069      8.406
REMARK  Name = 
REMARK  5 active torsions:
REMARK  status: ('A' for Active; 'I' for Inactive)
REMARK    1  A    between atoms: C_1  and  C_2
REMARK    2  A    between atoms: C_5  and  N_6
REMARK    3  A    between atoms: C_11  and  C_12
REMARK    4  A    between atoms: C_19  and  C_20
REMARK    5  A    between atoms: C_20  and  C_21
REMARK                            x       y       z     vdW  Elec       q    Type
REMARK                         _______ _______ _______ _____ _____    ______ ____
ROOT
ATOM      1  C   UNL     1       5.033   4.971  18.726  0.00  0.00    +0.000 C 
ATOM      2  O   UNL     1       5.695   5.125  19.752  0.00  0.00    +0.000 OA
ATOM      3  N   UNL     1       5.549   5.249  17.451  0.00  0.00    +0.000 N 
ATOM      4  C   UNL     1       4.907   5.066  16.145  0.00  0.00    +0.000 C 
ATOM      5  C   UNL     1       5.787   4.174  15.278  0.00  0.00    +0.000 C 
ATOM      6  C   UNL     1       7.191   4.748  15.229  0.00  0.00    +0.000 C 
ATOM      7  O   UNL     1       7.691   4.952  16.544  0.00  0.00    +0.000 OA
ATOM      8  C   UNL     1       6.899   5.812  17.378  0.00  0.00    +0.000 C 
ENDROOT
BRANCH   1  14
ATOM      9  C   UNL     1       2.345   0.847  19.331  0.00  0.00    +0.000 C 
ATOM     10  C   UNL     1       2.369   2.345  19.306  0.00  0.00    +0.000 A 
ATOM     11  C   UNL     1       1.206   3.103  19.393  0.00  0.00    +0.000 A 
ATOM     12  C   UNL     1       1.273   4.494  19.290  0.00  0.00    +0.000 A 
ATOM     13  C   UNL     1       2.493   5.145  19.001  0.00  0.00    +0.000 A 
ATOM     14  C   UNL     1       3.672   4.385  18.890  0.00  0.00    +0.000 A 
ATOM     15  C   UNL     1       3.593   3.002  19.143  0.00  0.00    +0.000 A 
BRANCH  13  16
ATOM     16  N   UNL     1       2.453   6.555  18.846  0.00  0.00    +0.000 N 
ATOM     17  N   UNL     1       2.654   7.195  17.662  0.00  0.00    +0.000 NA
ATOM     18  C   UNL     1       2.566   8.480  18.017  0.00  0.00    +0.000 A 
ATOM     19  C   UNL     1       2.207   8.582  19.362  0.00  0.00    +0.000 A 
ATOM     20  N   UNL     1       2.042   7.362  19.876  0.00  0.00    +0.000 NA
ENDBRANCH  13  16
ENDBRANCH   1  14
BRANCH   8  21
ATOM     21  C   UNL     1       6.872   7.284  16.905  0.00  0.00    +0.000 C 
BRANCH  21  22
ATOM     22  C   UNL     1       7.690   8.251  17.692  0.00  0.00    +0.000 A 
ATOM     23  C   UNL     1       8.534   8.028  18.800  0.00  0.00    +0.000 A 
ATOM     24  N   UNL     1       9.187   9.125  19.186  0.00  0.00    +0.000 NA
ATOM     25  N   UNL     1       8.743  10.095  18.341  0.00  0.00    +0.000 N 
ATOM     26  C   UNL     1       9.185  11.446  18.430  0.00  0.00    +0.000 A 
ATOM     27  C   UNL     1      10.159  11.773  19.378  0.00  0.00    +0.000 A 
ATOM     28  C   UNL     1      10.568  13.101  19.479  0.00  0.00    +0.000 A 
ATOM     29  C   UNL     1       9.989  14.050  18.650  0.00  0.00    +0.000 A 
ATOM     30  F   UNL     1      10.351  15.334  18.741  0.00  0.00    +0.000 F 
ATOM     31  C   UNL     1       9.037  13.647  17.731  0.00  0.00    +0.000 A 
ATOM     32  N   UNL     1       8.623  12.366  17.593  0.00  0.00    +0.000 NA
ATOM     33  C   UNL     1       7.847   9.593  17.425  0.00  0.00    +0.000 A 
ENDBRANCH  21  22
ENDBRANCH   8  21
TORSDOF 4
ENDMDL
MODEL 5
REMARK VINA RESULT:      -7.8      1.988      4.352
REMARK  Name = 
REMARK  5 active torsions:
REMARK  status: ('A' for Active; 'I' for Inactive)
REMARK    1  A    between atoms: C_1  and  C_2
REMARK    2  A    between atoms: C_5  and  N_6
REMARK    3  A    between atoms: C_11  and  C_12
REMARK    4  A    between atoms: C_19  and  C_20
REMARK    5  A    between atoms: C_20  and  C_21
REMARK                            x       y       z     vdW  Elec       q    Type
REMARK                         _______ _______ _______ _____ _____    ______ ____
ROOT
ATOM      1  C   UNL     1       1.100  11.924  20.718  0.00  0.00    +0.000 C 
ATOM      2  O   UNL     1       1.296  11.049  21.560  0.00  0.00    +0.000 OA
ATOM      3  N   UNL     1       0.423  11.672  19.515  0.00  0.00    +0.000 N 
ATOM      4  C   UNL     1       0.068  12.615  18.450  0.00  0.00    +0.000 C 
ATOM      5  C   UNL     1      -1.438  12.563  18.218  0.00  0.00    +0.000 C 
ATOM      6  C   UNL     1      -1.858  11.126  17.970  0.00  0.00    +0.000 C 
ATOM      7  O   UNL     1      -1.405  10.287  19.023  0.00  0.00    +0.000 OA
ATOM      8  C   UNL     1       0.013  10.291  19.248  0.00  0.00    +0.000 C 
ENDROOT
BRANCH   1  14
ATOM      9  C   UNL     1       4.722  15.303  20.489  0.00  0.00    +0.000 C 
ATOM     10  C   UNL     1       3.299  15.003  20.848  0.00  0.00    +0.000 A 
ATOM     11  C   UNL     1       2.488  15.932  21.489  0.00  0.00    +0.000 A 
ATOM     12  C   UNL     1       1.191  15.579  21.870  0.00  0.00    +0.000 A 
ATOM     13  C   UNL     1       0.718  14.258  21.702  0.00  0.00    +0.000 A 
ATOM     14  C   UNL     1       1.540  13.304  21.073  0.00  0.00    +0.000 A 
ATOM     15  C   UNL     1       2.784  13.732  20.571  0.00  0.00    +0.000 A 
BRANCH  13  16
ATOM     16  N   UNL     1      -0.587  13.973  22.181  0.00  0.00    +0.000 N 
ATOM     17  N   UNL     1      -0.851  13.489  23.425  0.00  0.00    +0.000 NA
ATOM     18  C   UNL     1      -2.179  13.343  23.396  0.00  0.00    +0.000 A 
ATOM     19  C   UNL     1      -2.688  13.841  22.197  0.00  0.00    +0.000 A 
ATOM     20  N   UNL     1      -1.694  14.330  21.454  0.00  0.00    +0.000 NA
ENDBRANCH  13  16
ENDBRANCH   1  14
BRANCH   8  21
ATOM     21  C   UNL     1       0.829   9.675  18.088  0.00  0.00    +0.000 C 
BRANCH  21  22
ATOM     22  C   UNL     1       1.791   8.595  18.452  0.00  0.00    +0.000 A 
ATOM     23  C   UNL     1       1.846   7.785  19.606  0.00  0.00    +0.000 A 
ATOM     24  N   UNL     1       2.795   6.850  19.540  0.00  0.00    +0.000 NA
ATOM     25  N   UNL     1       3.399   7.067  18.340  0.00  0.00    +0.000 N 
ATOM     26  C   UNL     1       4.498   6.285  17.886  0.00  0.00    +0.000 A 
ATOM     27  C   UNL     1       4.931   5.214  18.673  0.00  0.00    +0.000 A 
ATOM     28  C   UNL     1       6.025   4.468  18.237  0.00  0.00    +0.000 A 
ATOM     29  C   UNL     1       6.651   4.820  17.050  0.00  0.00    +0.000 A 
ATOM     30  F   UNL     1       7.714   4.132  16.620  0.00  0.00    +0.000 F 
ATOM     31  C   UNL     1       6.158   5.888  16.322  0.00  0.00    +0.000 A 
ATOM     32  N   UNL     1       5.092   6.628  16.705  0.00  0.00    +0.000 NA
ATOM     33  C   UNL     1       2.807   8.107  17.660  0.00  0.00    +0.000 A 
ENDBRANCH  21  22
ENDBRANCH   8  21
TORSDOF 4
ENDMDL
MODEL 6
REMARK VINA RESULT:      -7.7      2.284      4.070
REMARK  Name = 
REMARK  5 active torsions:
REMARK  status: ('A' for Active; 'I' for Inactive)
REMARK    1  A    between atoms: C_1  and  C_2
REMARK    2  A    between atoms: C_5  and  N_6
REMARK    3  A    between atoms: C_11  and  C_12
REMARK    4  A    between atoms: C_19  and  C_20
REMARK    5  A    between atoms: C_20  and  C_21
REMARK                            x       y       z     vdW  Elec       q    Type
REMARK                         _______ _______ _______ _____ _____    ______ ____
ROOT
ATOM      1  C   UNL     1       1.215  12.958  19.981  0.00  0.00    +0.000 C 
ATOM      2  O   UNL     1       1.977  12.491  20.827  0.00  0.00    +0.000 OA
ATOM      3  N   UNL     1       0.317  12.159  19.257  0.00  0.00    +0.000 N 
ATOM      4  C   UNL     1      -0.682  12.573  18.266  0.00  0.00    +0.000 C 
ATOM      5  C   UNL     1      -2.055  12.077  18.703  0.00  0.00    +0.000 C 
ATOM      6  C   UNL     1      -1.990  10.583  18.964  0.00  0.00    +0.000 C 
ATOM      7  O   UNL     1      -0.946  10.284  19.882  0.00  0.00    +0.000 OA
ATOM      8  C   UNL     1       0.366  10.713  19.484  0.00  0.00    +0.000 C 
ENDROOT
BRANCH   1  14
ATOM      9  C   UNL     1       3.002  16.839  17.463  0.00  0.00    +0.000 C 
ATOM     10  C   UNL     1       2.027  16.339  18.486  0.00  0.00    +0.000 A 
ATOM     11  C   UNL     1       1.234  17.203  19.233  0.00  0.00    +0.000 A 
ATOM     12  C   UNL     1       0.395  16.694  20.226  0.00  0.00    +0.000 A 
ATOM     13  C   UNL     1       0.407  15.320  20.555  0.00  0.00    +0.000 A 
ATOM     14  C   UNL     1       1.222  14.440  19.819  0.00  0.00    +0.000 A 
ATOM     15  C   UNL     1       1.945  14.964  18.730  0.00  0.00    +0.000 A 
BRANCH  13  16
ATOM     16  N   UNL     1      -0.428  14.903  21.624  0.00  0.00    +0.000 N 
ATOM     17  N   UNL     1      -0.017  14.815  22.918  0.00  0.00    +0.000 NA
ATOM     18  C   UNL     1      -1.110  14.349  23.530  0.00  0.00    +0.000 A 
ATOM     19  C   UNL     1      -2.170  14.277  22.627  0.00  0.00    +0.000 A 
ATOM     20  N   UNL     1      -1.772  14.715  21.431  0.00  0.00    +0.000 NA
ENDBRANCH  13  16
ENDBRANCH   1  14
BRANCH   8  21
ATOM     21  C   UNL     1       0.917   9.965  18.248  0.00  0.00    +0.000 C 
BRANCH  21  22
ATOM     22  C   UNL     1       1.790   8.787  18.518  0.00  0.00    +0.000 A 
ATOM     23  C   UNL     1       1.815   7.915  19.627  0.00  0.00    +0.000 A 
ATOM     24  N   UNL     1       2.673   6.905  19.476  0.00  0.00    +0.000 NA
ATOM     25  N   UNL     1       3.249   7.132  18.264  0.00  0.00    +0.000 N 
ATOM     26  C   UNL     1       4.256   6.281  17.727  0.00  0.00    +0.000 A 
ATOM     27  C   UNL     1       4.620   5.135  18.442  0.00  0.00    +0.000 A 
ATOM     28  C   UNL     1       5.625   4.321  17.925  0.00  0.00    +0.000 A 
ATOM     29  C   UNL     1       6.237   4.679  16.733  0.00  0.00    +0.000 A 
ATOM     30  F   UNL     1       7.217   3.924  16.226  0.00  0.00    +0.000 F 
ATOM     31  C   UNL     1       5.816   5.823  16.079  0.00  0.00    +0.000 A 
ATOM     32  N   UNL     1       4.835   6.633  16.542  0.00  0.00    +0.000 NA
ATOM     33  C   UNL     1       2.729   8.254  17.662  0.00  0.00    +0.000 A 
ENDBRANCH  21  22
ENDBRANCH   8  21
TORSDOF 4
ENDMDL
MODEL 7
REMARK VINA RESULT:      -7.7      3.087      4.986
REMARK  Name = 
REMARK  5 active torsions:
REMARK  status: ('A' for Active; 'I' for Inactive)
REMARK    1  A    between atoms: C_1  and  C_2
REMARK    2  A    between atoms: C_5  and  N_6
REMARK    3  A    between atoms: C_11  and  C_12
REMARK    4  A    between atoms: C_19  and  C_20
REMARK    5  A    between atoms: C_20  and  C_21
REMARK                            x       y       z     vdW  Elec       q    Type
REMARK                         _______ _______ _______ _____ _____    ______ ____
ROOT
ATOM      1  C   UNL     1      -2.753  12.442  19.767  0.00  0.00    +0.000 C 
ATOM      2  O   UNL     1      -2.024  12.689  18.807  0.00  0.00    +0.000 OA
ATOM      3  N   UNL     1      -2.278  12.432  21.087  0.00  0.00    +0.000 N 
ATOM      4  C   UNL     1      -3.030  12.211  22.327  0.00  0.00    +0.000 C 
ATOM      5  C   UNL     1      -2.823  13.402  23.255  0.00  0.00    +0.000 C 
ATOM      6  C   UNL     1      -1.336  13.643  23.439  0.00  0.00    +0.000 C 
ATOM      7  O   UNL     1      -0.693  13.773  22.178  0.00  0.00    +0.000 OA
ATOM      8  C   UNL     1      -0.845  12.654  21.291  0.00  0.00    +0.000 C 
ENDROOT
BRANCH   1  14
ATOM      9  C   UNL     1      -7.429  13.341  21.152  0.00  0.00    +0.000 C 
ATOM     10  C   UNL     1      -6.507  12.790  20.107  0.00  0.00    +0.000 A 
ATOM     11  C   UNL     1      -6.980  12.117  18.986  0.00  0.00    +0.000 A 
ATOM     12  C   UNL     1      -6.078  11.556  18.079  0.00  0.00    +0.000 A 
ATOM     13  C   UNL     1      -4.688  11.576  18.329  0.00  0.00    +0.000 A 
ATOM     14  C   UNL     1      -4.200  12.236  19.472  0.00  0.00    +0.000 A 
ATOM     15  C   UNL     1      -5.125  12.915  20.288  0.00  0.00    +0.000 A 
BRANCH  13  16
ATOM     16  N   UNL     1      -3.852  10.922  17.387  0.00  0.00    +0.000 N 
ATOM     17  N   UNL     1      -3.195   9.756  17.636  0.00  0.00    +0.000 NA
ATOM     18  C   UNL     1      -2.521   9.564  16.498  0.00  0.00    +0.000 A 
ATOM     19  C   UNL     1      -2.870  10.540  15.564  0.00  0.00    +0.000 A 
ATOM     20  N   UNL     1      -3.787  11.355  16.088  0.00  0.00    +0.000 NA
ENDBRANCH  13  16
ENDBRANCH   1  14
BRANCH   8  21
ATOM     21  C   UNL     1      -0.139  11.369  21.783  0.00  0.00    +0.000 C 
BRANCH  21  22
ATOM     22  C   UNL     1       0.471  10.502  20.735  0.00  0.00    +0.000 A 
ATOM     23  C   UNL     1       0.812  10.803  19.400  0.00  0.00    +0.000 A 
ATOM     24  N   UNL     1       1.435   9.798  18.783  0.00  0.00    +0.000 NA
ATOM     25  N   UNL     1       1.478   8.806  19.714  0.00  0.00    +0.000 N 
ATOM     26  C   UNL     1       2.052   7.531  19.446  0.00  0.00    +0.000 A 
ATOM     27  C   UNL     1       2.652   7.313  18.202  0.00  0.00    +0.000 A 
ATOM     28  C   UNL     1       3.189   6.055  17.935  0.00  0.00    +0.000 A 
ATOM     29  C   UNL     1       3.097   5.064  18.902  0.00  0.00    +0.000 A 
ATOM     30  F   UNL     1       3.588   3.843  18.662  0.00  0.00    +0.000 F 
ATOM     31  C   UNL     1       2.497   5.359  20.112  0.00  0.00    +0.000 A 
ATOM     32  N   UNL     1       1.976   6.571  20.414  0.00  0.00    +0.000 NA
ATOM     33  C   UNL     1       0.912   9.208  20.902  0.00  0.00    +0.000 A 
ENDBRANCH  21  22
ENDBRANCH   8  21
TORSDOF 4
ENDMDL
MODEL 8
REMARK VINA RESULT:      -7.6      1.483      2.093
REMARK  Name = 
REMARK  5 active torsions:
REMARK  status: ('A' for Active; 'I' for Inactive)
REMARK    1  A    between atoms: C_1  and  C_2
REMARK    2  A    between atoms: C_5  and  N_6
REMARK    3  A    between atoms: C_11  and  C_12
REMARK    4  A    between atoms: C_19  and  C_20
REMARK    5  A    between atoms: C_20  and  C_21
REMARK                            x       y       z     vdW  Elec       q    Type
REMARK                         _______ _______ _______ _____ _____    ______ ____
ROOT
ATOM      1  C   UNL     1      -0.425  11.016  19.651  0.00  0.00    +0.000 C 
ATOM      2  O   UNL     1       0.466  11.498  18.954  0.00  0.00    +0.000 OA
ATOM      3  N   UNL     1      -0.161  10.088  20.671  0.00  0.00    +0.000 N 
ATOM      4  C   UNL     1      -1.102   9.472  21.613  0.00  0.00    +0.000 C 
ATOM      5  C   UNL     1      -0.638   9.755  23.037  0.00  0.00    +0.000 C 
ATOM      6  C   UNL     1       0.806   9.316  23.192  0.00  0.00    +0.000 C 
ATOM      7  O   UNL     1       1.618   9.914  22.190  0.00  0.00    +0.000 OA
ATOM      8  C   UNL     1       1.225   9.642  20.835  0.00  0.00    +0.000 C 
ENDROOT
BRANCH   1  14
ATOM      9  C   UNL     1      -4.502  10.834  16.834  0.00  0.00    +0.000 C 
ATOM     10  C   UNL     1      -3.856  11.341  18.087  0.00  0.00    +0.000 A 
ATOM     11  C   UNL     1      -4.494  12.243  18.933  0.00  0.00    +0.000 A 
ATOM     12  C   UNL     1      -3.822  12.744  20.050  0.00  0.00    +0.000 A 
ATOM     13  C   UNL     1      -2.466  12.427  20.286  0.00  0.00    +0.000 A 
ATOM     14  C   UNL     1      -1.805  11.531  19.424  0.00  0.00    +0.000 A 
ATOM     15  C   UNL     1      -2.554  10.932  18.394  0.00  0.00    +0.000 A 
BRANCH  13  16
ATOM     16  N   UNL     1      -1.845  13.036  21.407  0.00  0.00    +0.000 N 
ATOM     17  N   UNL     1      -0.838  13.948  21.315  0.00  0.00    +0.000 NA
ATOM     18  C   UNL     1      -0.560  14.192  22.599  0.00  0.00    +0.000 A 
ATOM     19  C   UNL     1      -1.465  13.520  23.421  0.00  0.00    +0.000 A 
ATOM     20  N   UNL     1      -2.345  12.855  22.671  0.00  0.00    +0.000 NA
ENDBRANCH  13  16
ENDBRANCH   1  14
BRANCH   8  21
ATOM     21  C   UNL     1       1.393   8.161  20.423  0.00  0.00    +0.000 C 
BRANCH  21  22
ATOM     22  C   UNL     1       2.184   7.902  19.186  0.00  0.00    +0.000 A 
ATOM     23  C   UNL     1       2.511   8.770  18.124  0.00  0.00    +0.000 A 
ATOM     24  N   UNL     1       3.324   8.211  17.226  0.00  0.00    +0.000 NA
ATOM     25  N   UNL     1       3.511   6.943  17.685  0.00  0.00    +0.000 N 
ATOM     26  C   UNL     1       4.312   5.991  16.992  0.00  0.00    +0.000 A 
ATOM     27  C   UNL     1       4.983   6.394  15.834  0.00  0.00    +0.000 A 
ATOM     28  C   UNL     1       5.744   5.451  15.146  0.00  0.00    +0.000 A 
ATOM     29  C   UNL     1       5.798   4.150  15.623  0.00  0.00    +0.000 A 
ATOM     30  F   UNL     1       6.506   3.222  14.970  0.00  0.00    +0.000 F 
ATOM     31  C   UNL     1       5.113   3.830  16.782  0.00  0.00    +0.000 A 
ATOM     32  N   UNL     1       4.375   4.719  17.485  0.00  0.00    +0.000 NA
ATOM     33  C   UNL     1       2.842   6.733  18.869  0.00  0.00    +0.000 A 
ENDBRANCH  21  22
ENDBRANCH   8  21
TORSDOF 4
ENDMDL
MODEL 9
REMARK VINA RESULT:      -7.5      2.601      4.954
REMARK  Name = 
REMARK  5 active torsions:
REMARK  status: ('A' for Active; 'I' for Inactive)
REMARK    1  A    between atoms: C_1  and  C_2
REMARK    2  A    between atoms: C_5  and  N_6
REMARK    3  A    between atoms: C_11  and  C_12
REMARK    4  A    between atoms: C_19  and  C_20
REMARK    5  A    between atoms: C_20  and  C_21
REMARK                            x       y       z     vdW  Elec       q    Type
REMARK                         _______ _______ _______ _____ _____    ______ ____
ROOT
ATOM      1  C   UNL     1      -0.174  12.338  21.246  0.00  0.00    +0.000 C 
ATOM      2  O   UNL     1       0.164  11.562  22.139  0.00  0.00    +0.000 OA
ATOM      3  N   UNL     1      -0.347  11.924  19.917  0.00  0.00    +0.000 N 
ATOM      4  C   UNL     1      -0.795  12.713  18.764  0.00  0.00    +0.000 C 
ATOM      5  C   UNL     1      -2.015  12.042  18.144  0.00  0.00    +0.000 C 
ATOM      6  C   UNL     1      -1.693  10.590  17.843  0.00  0.00    +0.000 C 
ATOM      7  O   UNL     1      -1.202   9.938  19.007  0.00  0.00    +0.000 OA
ATOM      8  C   UNL     1      -0.034  10.529  19.598  0.00  0.00    +0.000 C 
ENDROOT
BRANCH   1  14
ATOM      9  C   UNL     1      -3.589  15.488  22.981  0.00  0.00    +0.000 C 
ATOM     10  C   UNL     1      -2.152  15.256  22.627  0.00  0.00    +0.000 A 
ATOM     11  C   UNL     1      -1.211  16.279  22.652  0.00  0.00    +0.000 A 
ATOM     12  C   UNL     1       0.100  16.029  22.241  0.00  0.00    +0.000 A 
ATOM     13  C   UNL     1       0.469  14.775  21.706  0.00  0.00    +0.000 A 
ATOM     14  C   UNL     1      -0.482  13.738  21.657  0.00  0.00    +0.000 A 
ATOM     15  C   UNL     1      -1.753  13.980  22.214  0.00  0.00    +0.000 A 
BRANCH  13  16
ATOM     16  N   UNL     1       1.805  14.633  21.251  0.00  0.00    +0.000 N 
ATOM     17  N   UNL     1       2.197  14.850  19.966  0.00  0.00    +0.000 NA
ATOM     18  C   UNL     1       3.499  14.555  20.014  0.00  0.00    +0.000 A 
ATOM     19  C   UNL     1       3.880  14.281  21.328  0.00  0.00    +0.000 A 
ATOM     20  N   UNL     1       2.829  14.418  22.138  0.00  0.00    +0.000 NA
ENDBRANCH  13  16
ENDBRANCH   1  14
BRANCH   8  21
ATOM     21  C   UNL     1       1.232  10.422  18.716  0.00  0.00    +0.000 C 
BRANCH  21  22
ATOM     22  C   UNL     1       1.839   9.066  18.587  0.00  0.00    +0.000 A 
ATOM     23  C   UNL     1       2.714   8.557  17.605  0.00  0.00    +0.000 A 
ATOM     24  N   UNL     1       3.131   7.319  17.870  0.00  0.00    +0.000 NA
ATOM     25  N   UNL     1       2.495   6.990  19.027  0.00  0.00    +0.000 N 
ATOM     26  C   UNL     1       2.652   5.720  19.651  0.00  0.00    +0.000 A 
ATOM     27  C   UNL     1       3.542   4.801  19.088  0.00  0.00    +0.000 A 
ATOM     28  C   UNL     1       3.672   3.549  19.687  0.00  0.00    +0.000 A 
ATOM     29  C   UNL     1       2.908   3.255  20.807  0.00  0.00    +0.000 A 
ATOM     30  F   UNL     1       3.000   2.054  21.388  0.00  0.00    +0.000 F 
ATOM     31  C   UNL     1       2.055   4.221  21.311  0.00  0.00    +0.000 A 
ATOM     32  N   UNL     1       1.911   5.451  20.766  0.00  0.00    +0.000 NA
ATOM     33  C   UNL     1       1.717   8.029  19.486  0.00  0.00    +0.000 A 
ENDBRANCH  21  22
ENDBRANCH   8  21
TORSDOF 4
ENDMDL
