MODEL 1
REMARK VINA RESULT:      -8.2      0.000      0.000
REMARK  Name = 
REMARK  5 active torsions:
REMARK  status: ('A' for Active; 'I' for Inactive)
REMARK    1  A    between atoms: C_1  and  C_2
REMARK    2  A    between atoms: C_6  and  C_7
REMARK    3  A    between atoms: N_9  and  C_10
REMARK    4  A    between atoms: N_9  and  C_23
REMARK    5  A    between atoms: C_10  and  C_11
REMARK                            x       y       z     vdW  Elec       q    Type
REMARK                         _______ _______ _______ _____ _____    ______ ____
ROOT
ATOM      1  C   UNL     1       2.875   5.001  19.569  0.00  0.00    +0.000 C 
ATOM      2  O   UNL     1       2.490   5.302  20.703  0.00  0.00    +0.000 OA
ATOM      3  N   UNL     1       2.875   5.987  18.540  0.00  0.00    +0.000 N 
ENDROOT
BRANCH   3   4
ATOM      4  C   UNL     1       2.353   7.300  18.865  0.00  0.00    +0.000 A 
ATOM      5  C   UNL     1       2.261   8.301  17.888  0.00  0.00    +0.000 A 
ATOM      6  C   UNL     1       1.708   9.551  18.193  0.00  0.00    +0.000 A 
ATOM      7  C   UNL     1       1.254   9.821  19.481  0.00  0.00    +0.000 A 
ATOM      8  C   UNL     1       1.343   8.832  20.457  0.00  0.00    +0.000 A 
ATOM      9 CL   UNL     1       0.809   9.156  22.063  0.00  0.00    +0.000 Cl
ATOM     10  C   UNL     1       1.879   7.581  20.154  0.00  0.00    +0.000 A 
ENDBRANCH   3   4
BRANCH   1  16
ATOM     11  C   UNL     1       0.835   2.670  18.761  0.00  0.00    +0.000 C 
ATOM     12  C   UNL     1       2.317   2.588  18.920  0.00  0.00    +0.000 A 
ATOM     13  N   UNL     1       2.909   1.367  18.631  0.00  0.00    +0.000 NA
ATOM     14  C   UNL     1       4.184   1.415  18.922  0.00  0.00    +0.000 A 
ATOM     15  S   UNL     1       4.717   2.863  19.650  0.00  0.00    +0.000 S 
ATOM     16  C   UNL     1       3.204   3.600  19.305  0.00  0.00    +0.000 A 
ENDBRANCH   1  16
BRANCH   3  17
ATOM     17  C   UNL     1       3.250   5.808  17.112  0.00  0.00    +0.000 C 
BRANCH  17  18
ATOM     18  C   UNL     1       4.767   5.774  16.968  0.00  0.00    +0.000 A 
ATOM     19  C   UNL     1       5.574   6.473  17.792  0.00  0.00    +0.000 A 
ATOM     20  C   UNL     1       7.002   6.732  17.492  0.00  0.00    +0.000 A 
ATOM     21  O   UNL     1       7.702   7.373  18.267  0.00  0.00    +0.000 OA
ATOM     22  N   UNL     1       7.457   6.277  16.290  0.00  0.00    +0.000 N 
ATOM     23  C   UNL     1       6.694   5.476  15.430  0.00  0.00    +0.000 A 
ATOM     24  C   UNL     1       7.257   5.024  14.234  0.00  0.00    +0.000 A 
ATOM     25  F   UNL     1       8.492   5.416  13.884  0.00  0.00    +0.000 F 
ATOM     26  C   UNL     1       6.550   4.177  13.393  0.00  0.00    +0.000 A 
ATOM     27  C   UNL     1       5.288   3.733  13.779  0.00  0.00    +0.000 A 
ATOM     28  C   UNL     1       4.713   4.193  14.972  0.00  0.00    +0.000 A 
ATOM     29  C   UNL     1       5.383   5.120  15.785  0.00  0.00    +0.000 A 
ATOM     30  H   UNL     1       8.415   6.499  16.045  0.00  0.00    +0.000 HD
ENDBRANCH  17  18
ENDBRANCH   3  17
TORSDOF 4
ENDMDL
MODEL 2
REMARK VINA RESULT:      -7.9      8.610     12.012
REMARK  Name = 
REMARK  5 active torsions:
REMARK  status: ('A' for Active; 'I' for Inactive)
REMARK    1  A    between atoms: C_1  and  C_2
REMARK    2  A    between atoms: C_6  and  C_7
REMARK    3  A    between atoms: N_9  and  C_10
REMARK    4  A    between atoms: N_9  and  C_23
REMARK    5  A    between atoms: C_10  and  C_11
REMARK                            x       y       z     vdW  Elec       q    Type
REMARK                         _______ _______ _______ _____ _____    ______ ____
ROOT
ATOM      1  C   UNL     1      -0.186  13.821  21.012  0.00  0.00    +0.000 C 
ATOM      2  O   UNL     1       0.713  13.774  21.858  0.00  0.00    +0.000 OA
ATOM      3  N   UNL     1      -0.909  12.637  20.686  0.00  0.00    +0.000 N 
ENDROOT
BRANCH   3   4
ATOM      4  C   UNL     1      -0.502  11.401  21.327  0.00  0.00    +0.000 A 
ATOM      5  C   UNL     1      -0.913  11.097  22.632  0.00  0.00    +0.000 A 
ATOM      6  C   UNL     1      -0.562   9.880  23.228  0.00  0.00    +0.000 A 
ATOM      7  C   UNL     1       0.216   8.959  22.534  0.00  0.00    +0.000 A 
ATOM      8  C   UNL     1       0.629   9.254  21.237  0.00  0.00    +0.000 A 
ATOM      9 CL   UNL     1       1.614   8.136  20.371  0.00  0.00    +0.000 Cl
ATOM     10  C   UNL     1       0.269  10.458  20.634  0.00  0.00    +0.000 A 
ENDBRANCH   3   4
BRANCH   1  16
ATOM     11  C   UNL     1       1.651  15.012  18.677  0.00  0.00    +0.000 C 
ATOM     12  C   UNL     1       0.398  15.584  19.250  0.00  0.00    +0.000 A 
ATOM     13  N   UNL     1      -0.077  16.753  18.670  0.00  0.00    +0.000 NA
ATOM     14  C   UNL     1      -1.109  17.192  19.345  0.00  0.00    +0.000 A 
ATOM     15  S   UNL     1      -1.498  16.307  20.751  0.00  0.00    +0.000 S 
ATOM     16  C   UNL     1      -0.388  15.079  20.293  0.00  0.00    +0.000 A 
ENDBRANCH   1  16
BRANCH   3  17
ATOM     17  C   UNL     1      -1.981  12.480  19.667  0.00  0.00    +0.000 C 
BRANCH  17  18
ATOM     18  C   UNL     1      -3.349  12.681  20.310  0.00  0.00    +0.000 A 
ATOM     19  C   UNL     1      -3.479  13.143  21.571  0.00  0.00    +0.000 A 
ATOM     20  C   UNL     1      -4.742  13.042  22.339  0.00  0.00    +0.000 A 
ATOM     21  O   UNL     1      -4.819  13.474  23.483  0.00  0.00    +0.000 OA
ATOM     22  N   UNL     1      -5.770  12.388  21.726  0.00  0.00    +0.000 N 
ATOM     23  C   UNL     1      -5.724  11.959  20.392  0.00  0.00    +0.000 A 
ATOM     24  C   UNL     1      -6.840  11.332  19.835  0.00  0.00    +0.000 A 
ATOM     25  F   UNL     1      -7.917  11.079  20.595  0.00  0.00    +0.000 F 
ATOM     26  C   UNL     1      -6.849  10.955  18.500  0.00  0.00    +0.000 A 
ATOM     27  C   UNL     1      -5.750  11.259  17.700  0.00  0.00    +0.000 A 
ATOM     28  C   UNL     1      -4.622  11.878  18.256  0.00  0.00    +0.000 A 
ATOM     29  C   UNL     1      -4.568  12.182  19.625  0.00  0.00    +0.000 A 
ATOM     30  H   UNL     1      -6.620  12.259  22.261  0.00  0.00    +0.000 HD
ENDBRANCH  17  18
ENDBRANCH   3  17
TORSDOF 4
ENDMDL
MODEL 3
REMARK VINA RESULT:      -7.8      6.074      9.446
REMARK  Name = 
REMARK  5 active torsions:
REMARK  status: ('A' for Active; 'I' for Inactive)
REMARK    1  A    between atoms: C_1  and  C_2
REMARK    2  A    between atoms: C_6  and  C_7
REMARK    3  A    between atoms: N_9  and  C_10
REMARK    4  A    between atoms: N_9  and  C_23
REMARK    5  A    between atoms: C_10  and  C_11
REMARK                            x       y       z     vdW  Elec       q    Type
REMARK                         _______ _______ _______ _____ _____    ______ ____
ROOT
ATOM      1  C   UNL     1      -1.727  13.990  20.356  0.00  0.00    +0.000 C 
ATOM      2  O   UNL     1      -2.913  14.335  20.355  0.00  0.00    +0.000 OA
ATOM      3  N   UNL     1      -1.310  12.898  19.542  0.00  0.00    +0.000 N 
ENDROOT
BRANCH   3   4
ATOM      4  C   UNL     1      -2.328  12.192  18.788  0.00  0.00    +0.000 A 
ATOM      5  C   UNL     1      -3.610  11.994  19.318  0.00  0.00    +0.000 A 
ATOM      6  C   UNL     1      -4.606  11.359  18.566  0.00  0.00    +0.000 A 
ATOM      7  C   UNL     1      -4.328  10.900  17.282  0.00  0.00    +0.000 A 
ATOM      8  C   UNL     1      -3.056  11.092  16.748  0.00  0.00    +0.000 A 
ATOM      9 CL   UNL     1      -2.688  10.509  15.170  0.00  0.00    +0.000 Cl
ATOM     10  C   UNL     1      -2.067  11.737  17.487  0.00  0.00    +0.000 A 
ENDBRANCH   3   4
BRANCH   1  16
ATOM     11  C   UNL     1      -1.734  13.716  23.546  0.00  0.00    +0.000 C 
ATOM     12  C   UNL     1      -0.804  14.506  22.688  0.00  0.00    +0.000 A 
ATOM     13  N   UNL     1       0.231  15.168  23.335  0.00  0.00    +0.000 NA
ATOM     14  C   UNL     1       0.890  15.904  22.474  0.00  0.00    +0.000 A 
ATOM     15  S   UNL     1       0.253  15.929  20.891  0.00  0.00    +0.000 S 
ATOM     16  C   UNL     1      -0.821  14.651  21.296  0.00  0.00    +0.000 A 
ENDBRANCH   1  16
BRANCH   3  17
ATOM     17  C   UNL     1       0.051  12.305  19.446  0.00  0.00    +0.000 C 
BRANCH  17  18
ATOM     18  C   UNL     1       0.107  10.993  20.221  0.00  0.00    +0.000 A 
ATOM     19  C   UNL     1      -0.258  10.919  21.518  0.00  0.00    +0.000 A 
ATOM     20  C   UNL     1       0.086   9.769  22.387  0.00  0.00    +0.000 A 
ATOM     21  O   UNL     1      -0.264   9.740  23.560  0.00  0.00    +0.000 OA
ATOM     22  N   UNL     1       0.862   8.799  21.824  0.00  0.00    +0.000 N 
ATOM     23  C   UNL     1       1.204   8.778  20.465  0.00  0.00    +0.000 A 
ATOM     24  C   UNL     1       1.971   7.722  19.967  0.00  0.00    +0.000 A 
ATOM     25  F   UNL     1       2.434   6.779  20.801  0.00  0.00    +0.000 F 
ATOM     26  C   UNL     1       2.270   7.639  18.615  0.00  0.00    +0.000 A 
ATOM     27  C   UNL     1       1.751   8.593  17.743  0.00  0.00    +0.000 A 
ATOM     28  C   UNL     1       0.990   9.661  18.238  0.00  0.00    +0.000 A 
ATOM     29  C   UNL     1       0.756   9.803  19.615  0.00  0.00    +0.000 A 
ATOM     30  H   UNL     1       1.155   8.037  22.422  0.00  0.00    +0.000 HD
ENDBRANCH  17  18
ENDBRANCH   3  17
TORSDOF 4
ENDMDL
MODEL 4
REMARK VINA RESULT:      -7.8      6.334     10.239
REMARK  Name = 
REMARK  5 active torsions:
REMARK  status: ('A' for Active; 'I' for Inactive)
REMARK    1  A    between atoms: C_1  and  C_2
REMARK    2  A    between atoms: C_6  and  C_7
REMARK    3  A    between atoms: N_9  and  C_10
REMARK    4  A    between atoms: N_9  and  C_23
REMARK    5  A    between atoms: C_10  and  C_11
REMARK                            x       y       z     vdW  Elec       q    Type
REMARK                         _______ _______ _______ _____ _____    ______ ____
ROOT
ATOM      1  C   UNL     1       0.425  11.319  21.306  0.00  0.00    +0.000 C 
ATOM      2  O   UNL     1       1.021  10.523  22.038  0.00  0.00    +0.000 OA
ATOM      3  N   UNL     1       0.341  11.063  19.907  0.00  0.00    +0.000 N 
ENDROOT
BRANCH   3   4
ATOM      4  C   UNL     1       1.028   9.894  19.394  0.00  0.00    +0.000 A 
ATOM      5  C   UNL     1       1.692   9.932  18.159  0.00  0.00    +0.000 A 
ATOM      6  C   UNL     1       2.399   8.818  17.691  0.00  0.00    +0.000 A 
ATOM      7  C   UNL     1       2.438   7.648  18.443  0.00  0.00    +0.000 A 
ATOM      8  C   UNL     1       1.780   7.601  19.669  0.00  0.00    +0.000 A 
ATOM      9 CL   UNL     1       1.798   6.153  20.602  0.00  0.00    +0.000 Cl
ATOM     10  C   UNL     1       1.089   8.713  20.146  0.00  0.00    +0.000 A 
ENDBRANCH   3   4
BRANCH   1  16
ATOM     11  C   UNL     1      -2.048  11.629  23.315  0.00  0.00    +0.000 C 
ATOM     12  C   UNL     1      -1.132  12.691  22.806  0.00  0.00    +0.000 A 
ATOM     13  N   UNL     1      -1.328  13.974  23.299  0.00  0.00    +0.000 NA
ATOM     14  C   UNL     1      -0.532  14.810  22.682  0.00  0.00    +0.000 A 
ATOM     15  S   UNL     1       0.403  14.140  21.422  0.00  0.00    +0.000 S 
ATOM     16  C   UNL     1      -0.071  12.560  21.902  0.00  0.00    +0.000 A 
ENDBRANCH   1  16
BRANCH   3  17
ATOM     17  C   UNL     1      -0.284  11.919  18.864  0.00  0.00    +0.000 C 
BRANCH  17  18
ATOM     18  C   UNL     1      -1.581  11.285  18.372  0.00  0.00    +0.000 A 
ATOM     19  C   UNL     1      -1.597  10.402  17.352  0.00  0.00    +0.000 A 
ATOM     20  C   UNL     1      -2.837  10.022  16.636  0.00  0.00    +0.000 A 
ATOM     21  O   UNL     1      -2.810   9.217  15.714  0.00  0.00    +0.000 OA
ATOM     22  N   UNL     1      -3.976  10.667  17.020  0.00  0.00    +0.000 N 
ATOM     23  C   UNL     1      -4.040  11.530  18.122  0.00  0.00    +0.000 A 
ATOM     24  C   UNL     1      -5.260  12.117  18.464  0.00  0.00    +0.000 A 
ATOM     25  F   UNL     1      -6.342  11.910  17.699  0.00  0.00    +0.000 F 
ATOM     26  C   UNL     1      -5.369  12.923  19.589  0.00  0.00    +0.000 A 
ATOM     27  C   UNL     1      -4.257  13.100  20.409  0.00  0.00    +0.000 A 
ATOM     28  C   UNL     1      -3.027  12.523  20.064  0.00  0.00    +0.000 A 
ATOM     29  C   UNL     1      -2.885  11.779  18.882  0.00  0.00    +0.000 A 
ATOM     30  H   UNL     1      -4.821  10.462  16.500  0.00  0.00    +0.000 HD
ENDBRANCH  17  18
ENDBRANCH   3  17
TORSDOF 4
ENDMDL
MODEL 5
REMARK VINA RESULT:      -7.7      8.536     12.111
REMARK  Name = 
REMARK  5 active torsions:
REMARK  status: ('A' for Active; 'I' for Inactive)
REMARK    1  A    between atoms: C_1  and  C_2
REMARK    2  A    between atoms: C_6  and  C_7
REMARK    3  A    between atoms: N_9  and  C_10
REMARK    4  A    between atoms: N_9  and  C_23
REMARK    5  A    between atoms: C_10  and  C_11
REMARK                            x       y       z     vdW  Elec       q    Type
REMARK                         _______ _______ _______ _____ _____    ______ ____
ROOT
ATOM      1  C   UNL     1      -0.214  13.843  21.110  0.00  0.00    +0.000 C 
ATOM      2  O   UNL     1       0.685  13.781  21.954  0.00  0.00    +0.000 OA
ATOM      3  N   UNL     1      -0.928  12.662  20.752  0.00  0.00    +0.000 N 
ENDROOT
BRANCH   3   4
ATOM      4  C   UNL     1      -0.511  11.413  21.359  0.00  0.00    +0.000 A 
ATOM      5  C   UNL     1      -0.915  11.072  22.658  0.00  0.00    +0.000 A 
ATOM      6  C   UNL     1      -0.553   9.842  23.221  0.00  0.00    +0.000 A 
ATOM      7  C   UNL     1       0.228   8.945  22.500  0.00  0.00    +0.000 A 
ATOM      8  C   UNL     1       0.634   9.276  21.210  0.00  0.00    +0.000 A 
ATOM      9 CL   UNL     1       1.622   8.188  20.311  0.00  0.00    +0.000 Cl
ATOM     10  C   UNL     1       0.264  10.493  20.639  0.00  0.00    +0.000 A 
ENDBRANCH   3   4
BRANCH   1  16
ATOM     11  C   UNL     1      -1.948  16.320  22.161  0.00  0.00    +0.000 C 
ATOM     12  C   UNL     1      -1.158  16.214  20.900  0.00  0.00    +0.000 A 
ATOM     13  N   UNL     1      -1.112  17.344  20.095  0.00  0.00    +0.000 NA
ATOM     14  C   UNL     1      -0.483  17.066  18.980  0.00  0.00    +0.000 A 
ATOM     15  S   UNL     1      -0.014  15.437  18.788  0.00  0.00    +0.000 S 
ATOM     16  C   UNL     1      -0.426  15.118  20.425  0.00  0.00    +0.000 A 
ENDBRANCH   1  16
BRANCH   3  17
ATOM     17  C   UNL     1      -2.000  12.524  19.730  0.00  0.00    +0.000 C 
BRANCH  17  18
ATOM     18  C   UNL     1      -3.369  12.680  20.383  0.00  0.00    +0.000 A 
ATOM     19  C   UNL     1      -3.504  13.091  21.661  0.00  0.00    +0.000 A 
ATOM     20  C   UNL     1      -4.764  12.940  22.426  0.00  0.00    +0.000 A 
ATOM     21  O   UNL     1      -4.845  13.326  23.586  0.00  0.00    +0.000 OA
ATOM     22  N   UNL     1      -5.783  12.295  21.789  0.00  0.00    +0.000 N 
ATOM     23  C   UNL     1      -5.733  11.920  20.440  0.00  0.00    +0.000 A 
ATOM     24  C   UNL     1      -6.840  11.297  19.860  0.00  0.00    +0.000 A 
ATOM     25  F   UNL     1      -7.912  11.000  20.611  0.00  0.00    +0.000 F 
ATOM     26  C   UNL     1      -6.846  10.973  18.511  0.00  0.00    +0.000 A 
ATOM     27  C   UNL     1      -5.754  11.324  17.722  0.00  0.00    +0.000 A 
ATOM     28  C   UNL     1      -4.634  11.938  18.301  0.00  0.00    +0.000 A 
ATOM     29  C   UNL     1      -4.582  12.190  19.680  0.00  0.00    +0.000 A 
ATOM     30  H   UNL     1      -6.630  12.132  22.320  0.00  0.00    +0.000 HD
ENDBRANCH  17  18
ENDBRANCH   3  17
TORSDOF 4
ENDMDL
MODEL 6
REMARK VINA RESULT:      -7.7      5.767      9.076
REMARK  Name = 
REMARK  5 active torsions:
REMARK  status: ('A' for Active; 'I' for Inactive)
REMARK    1  A    between atoms: C_1  and  C_2
REMARK    2  A    between atoms: C_6  and  C_7
REMARK    3  A    between atoms: N_9  and  C_10
REMARK    4  A    between atoms: N_9  and  C_23
REMARK    5  A    between atoms: C_10  and  C_11
REMARK                            x       y       z     vdW  Elec       q    Type
REMARK                         _______ _______ _______ _____ _____    ______ ____
ROOT
ATOM      1  C   UNL     1       0.236  14.369  19.533  0.00  0.00    +0.000 C 
ATOM      2  O   UNL     1      -0.804  15.035  19.536  0.00  0.00    +0.000 OA
ATOM      3  N   UNL     1       0.203  13.014  19.095  0.00  0.00    +0.000 N 
ENDROOT
BRANCH   3   4
ATOM      4  C   UNL     1      -1.084  12.454  18.731  0.00  0.00    +0.000 A 
ATOM      5  C   UNL     1      -2.156  12.463  19.635  0.00  0.00    +0.000 A 
ATOM      6  C   UNL     1      -3.412  11.969  19.262  0.00  0.00    +0.000 A 
ATOM      7  C   UNL     1      -3.608  11.447  17.988  0.00  0.00    +0.000 A 
ATOM      8  C   UNL     1      -2.549  11.433  17.084  0.00  0.00    +0.000 A 
ATOM      9 CL   UNL     1      -2.767  10.767  15.510  0.00  0.00    +0.000 Cl
ATOM     10  C   UNL     1      -1.301  11.937  17.446  0.00  0.00    +0.000 A 
ENDBRANCH   3   4
BRANCH   1  16
ATOM     11  C   UNL     1       2.829  15.335  17.924  0.00  0.00    +0.000 C 
ATOM     12  C   UNL     1       2.562  15.429  19.389  0.00  0.00    +0.000 A 
ATOM     13  N   UNL     1       3.527  16.063  20.160  0.00  0.00    +0.000 NA
ATOM     14  C   UNL     1       3.211  15.969  21.427  0.00  0.00    +0.000 A 
ATOM     15  S   UNL     1       1.823  15.038  21.770  0.00  0.00    +0.000 S 
ATOM     16  C   UNL     1       1.442  14.977  20.096  0.00  0.00    +0.000 A 
ENDBRANCH   1  16
BRANCH   3  17
ATOM     17  C   UNL     1       1.329  12.042  19.066  0.00  0.00    +0.000 C 
BRANCH  17  18
ATOM     18  C   UNL     1       1.000  10.832  19.934  0.00  0.00    +0.000 A 
ATOM     19  C   UNL     1       0.566  10.967  21.204  0.00  0.00    +0.000 A 
ATOM     20  C   UNL     1       0.554   9.847  22.174  0.00  0.00    +0.000 A 
ATOM     21  O   UNL     1       0.152  10.011  23.319  0.00  0.00    +0.000 OA
ATOM     22  N   UNL     1       1.072   8.664  21.735  0.00  0.00    +0.000 N 
ATOM     23  C   UNL     1       1.462   8.438  20.408  0.00  0.00    +0.000 A 
ATOM     24  C   UNL     1       1.946   7.181  20.040  0.00  0.00    +0.000 A 
ATOM     25  F   UNL     1       2.104   6.225  20.968  0.00  0.00    +0.000 F 
ATOM     26  C   UNL     1       2.278   6.907  18.721  0.00  0.00    +0.000 A 
ATOM     27  C   UNL     1       2.070   7.884  17.750  0.00  0.00    +0.000 A 
ATOM     28  C   UNL     1       1.596   9.151  18.115  0.00  0.00    +0.000 A 
ATOM     29  C   UNL     1       1.342   9.467  19.459  0.00  0.00    +0.000 A 
ATOM     30  H   UNL     1       1.125   7.906  22.405  0.00  0.00    +0.000 HD
ENDBRANCH  17  18
ENDBRANCH   3  17
TORSDOF 4
ENDMDL
MODEL 7
REMARK VINA RESULT:      -7.6      1.014      1.326
REMARK  Name = 
REMARK  5 active torsions:
REMARK  status: ('A' for Active; 'I' for Inactive)
REMARK    1  A    between atoms: C_1  and  C_2
REMARK    2  A    between atoms: C_6  and  C_7
REMARK    3  A    between atoms: N_9  and  C_10
REMARK    4  A    between atoms: N_9  and  C_23
REMARK    5  A    between atoms: C_10  and  C_11
REMARK                            x       y       z     vdW  Elec       q    Type
REMARK                         _______ _______ _______ _____ _____    ______ ____
ROOT
ATOM      1  C   UNL     1       2.660   5.367  19.486  0.00  0.00    +0.000 C 
ATOM      2  O   UNL     1       2.231   5.516  20.635  0.00  0.00    +0.000 OA
ATOM      3  N   UNL     1       2.686   6.478  18.594  0.00  0.00    +0.000 N 
ENDROOT
BRANCH   3   4
ATOM      4  C   UNL     1       2.138   7.735  19.066  0.00  0.00    +0.000 A 
ATOM      5  C   UNL     1       1.962   8.818  18.194  0.00  0.00    +0.000 A 
ATOM      6  C   UNL     1       1.385  10.012  18.642  0.00  0.00    +0.000 A 
ATOM      7  C   UNL     1       0.990  10.144  19.970  0.00  0.00    +0.000 A 
ATOM      8  C   UNL     1       1.163   9.073  20.843  0.00  0.00    +0.000 A 
ATOM      9 CL   UNL     1       0.702   9.227  22.496  0.00  0.00    +0.000 Cl
ATOM     10  C   UNL     1       1.723   7.877  20.398  0.00  0.00    +0.000 A 
ENDBRANCH   3   4
BRANCH   1  16
ATOM     11  C   UNL     1       5.577   4.049  19.501  0.00  0.00    +0.000 C 
ATOM     12  C   UNL     1       4.283   3.427  19.093  0.00  0.00    +0.000 A 
ATOM     13  N   UNL     1       4.323   2.090  18.722  0.00  0.00    +0.000 NA
ATOM     14  C   UNL     1       3.146   1.718  18.285  0.00  0.00    +0.000 A 
ATOM     15  S   UNL     1       1.974   2.954  18.191  0.00  0.00    +0.000 S 
ATOM     16  C   UNL     1       3.013   4.014  19.056  0.00  0.00    +0.000 A 
ENDBRANCH   1  16
BRANCH   3  17
ATOM     17  C   UNL     1       3.113   6.488  17.169  0.00  0.00    +0.000 C 
BRANCH  17  18
ATOM     18  C   UNL     1       4.630   6.367  17.076  0.00  0.00    +0.000 A 
ATOM     19  C   UNL     1       5.451   7.210  17.737  0.00  0.00    +0.000 A 
ATOM     20  C   UNL     1       6.893   7.340  17.422  0.00  0.00    +0.000 A 
ATOM     21  O   UNL     1       7.606   8.118  18.046  0.00  0.00    +0.000 OA
ATOM     22  N   UNL     1       7.350   6.604  16.369  0.00  0.00    +0.000 N 
ATOM     23  C   UNL     1       6.569   5.653  15.698  0.00  0.00    +0.000 A 
ATOM     24  C   UNL     1       7.133   4.917  14.654  0.00  0.00    +0.000 A 
ATOM     25  F   UNL     1       8.388   5.172  14.255  0.00  0.00    +0.000 F 
ATOM     26  C   UNL     1       6.406   3.923  14.013  0.00  0.00    +0.000 A 
ATOM     27  C   UNL     1       5.121   3.626  14.459  0.00  0.00    +0.000 A 
ATOM     28  C   UNL     1       4.545   4.370  15.498  0.00  0.00    +0.000 A 
ATOM     29  C   UNL     1       5.239   5.435  16.093  0.00  0.00    +0.000 A 
ATOM     30  H   UNL     1       8.320   6.728  16.104  0.00  0.00    +0.000 HD
ENDBRANCH  17  18
ENDBRANCH   3  17
TORSDOF 4
ENDMDL
MODEL 8
REMARK VINA RESULT:      -7.6      6.376     10.350
REMARK  Name = 
REMARK  5 active torsions:
REMARK  status: ('A' for Active; 'I' for Inactive)
REMARK    1  A    between atoms: C_1  and  C_2
REMARK    2  A    between atoms: C_6  and  C_7
REMARK    3  A    between atoms: N_9  and  C_10
REMARK    4  A    between atoms: N_9  and  C_23
REMARK    5  A    between atoms: C_10  and  C_11
REMARK                            x       y       z     vdW  Elec       q    Type
REMARK                         _______ _______ _______ _____ _____    ______ ____
ROOT
ATOM      1  C   UNL     1       0.129  11.189  21.412  0.00  0.00    +0.000 C 
ATOM      2  O   UNL     1       0.703  10.371  22.138  0.00  0.00    +0.000 OA
ATOM      3  N   UNL     1       0.150  11.014  19.998  0.00  0.00    +0.000 N 
ENDROOT
BRANCH   3   4
ATOM      4  C   UNL     1       0.913   9.900  19.469  0.00  0.00    +0.000 A 
ATOM      5  C   UNL     1       1.600  10.009  18.253  0.00  0.00    +0.000 A 
ATOM      6  C   UNL     1       2.378   8.949  17.771  0.00  0.00    +0.000 A 
ATOM      7  C   UNL     1       2.465   7.762  18.491  0.00  0.00    +0.000 A 
ATOM      8  C   UNL     1       1.785   7.644  19.700  0.00  0.00    +0.000 A 
ATOM      9 CL   UNL     1       1.862   6.173  20.592  0.00  0.00    +0.000 Cl
ATOM     10  C   UNL     1       1.022   8.702  20.191  0.00  0.00    +0.000 A 
ENDBRANCH   3   4
BRANCH   1  16
ATOM     11  C   UNL     1       1.307  14.165  21.343  0.00  0.00    +0.000 C 
ATOM     12  C   UNL     1       0.048  13.684  21.983  0.00  0.00    +0.000 A 
ATOM     13  N   UNL     1      -0.755  14.646  22.581  0.00  0.00    +0.000 NA
ATOM     14  C   UNL     1      -1.757  14.065  23.193  0.00  0.00    +0.000 A 
ATOM     15  S   UNL     1      -1.736  12.359  23.180  0.00  0.00    +0.000 S 
ATOM     16  C   UNL     1      -0.450  12.377  22.041  0.00  0.00    +0.000 A 
ENDBRANCH   1  16
BRANCH   3  17
ATOM     17  C   UNL     1      -0.432  11.909  18.964  0.00  0.00    +0.000 C 
BRANCH  17  18
ATOM     18  C   UNL     1      -1.709  11.297  18.399  0.00  0.00    +0.000 A 
ATOM     19  C   UNL     1      -1.684  10.436  17.360  0.00  0.00    +0.000 A 
ATOM     20  C   UNL     1      -2.892  10.081  16.579  0.00  0.00    +0.000 A 
ATOM     21  O   UNL     1      -2.827   9.295  15.642  0.00  0.00    +0.000 OA
ATOM     22  N   UNL     1      -4.043  10.727  16.922  0.00  0.00    +0.000 N 
ATOM     23  C   UNL     1      -4.152  11.567  18.039  0.00  0.00    +0.000 A 
ATOM     24  C   UNL     1      -5.382  12.157  18.336  0.00  0.00    +0.000 A 
ATOM     25  F   UNL     1      -6.428  11.975  17.516  0.00  0.00    +0.000 F 
ATOM     26  C   UNL     1      -5.538  12.940  19.471  0.00  0.00    +0.000 A 
ATOM     27  C   UNL     1      -4.465  13.090  20.346  0.00  0.00    +0.000 A 
ATOM     28  C   UNL     1      -3.224  12.511  20.047  0.00  0.00    +0.000 A 
ATOM     29  C   UNL     1      -3.032  11.791  18.858  0.00  0.00    +0.000 A 
ATOM     30  H   UNL     1      -4.864  10.540  16.359  0.00  0.00    +0.000 HD
ENDBRANCH  17  18
ENDBRANCH   3  17
TORSDOF 4
ENDMDL
MODEL 9
REMARK VINA RESULT:      -7.6      7.110     10.164
REMARK  Name = 
REMARK  5 active torsions:
REMARK  status: ('A' for Active; 'I' for Inactive)
REMARK    1  A    between atoms: C_1  and  C_2
REMARK    2  A    between atoms: C_6  and  C_7
REMARK    3  A    between atoms: N_9  and  C_10
REMARK    4  A    between atoms: N_9  and  C_23
REMARK    5  A    between atoms: C_10  and  C_11
REMARK                            x       y       z     vdW  Elec       q    Type
REMARK                         _______ _______ _______ _____ _____    ______ ____
ROOT
ATOM      1  C   UNL     1       1.223  14.784  21.279  0.00  0.00    +0.000 C 
ATOM      2  O   UNL     1       1.418  14.781  22.498  0.00  0.00    +0.000 OA
ATOM      3  N   UNL     1       0.130  14.048  20.738  0.00  0.00    +0.000 N 
ENDROOT
BRANCH   3   4
ATOM      4  C   UNL     1      -0.675  13.264  21.655  0.00  0.00    +0.000 A 
ATOM      5  C   UNL     1      -1.907  13.742  22.121  0.00  0.00    +0.000 A 
ATOM      6  C   UNL     1      -2.705  12.960  22.966  0.00  0.00    +0.000 A 
ATOM      7  C   UNL     1      -2.275  11.700  23.367  0.00  0.00    +0.000 A 
ATOM      8  C   UNL     1      -1.051  11.218  22.909  0.00  0.00    +0.000 A 
ATOM      9 CL   UNL     1      -0.490   9.669  23.415  0.00  0.00    +0.000 Cl
ATOM     10  C   UNL     1      -0.260  11.986  22.056  0.00  0.00    +0.000 A 
ENDBRANCH   3   4
BRANCH   1  16
ATOM     11  C   UNL     1       0.882  17.611  19.816  0.00  0.00    +0.000 C 
ATOM     12  C   UNL     1       2.069  16.707  19.815  0.00  0.00    +0.000 A 
ATOM     13  N   UNL     1       3.198  17.160  19.146  0.00  0.00    +0.000 NA
ATOM     14  C   UNL     1       4.110  16.221  19.134  0.00  0.00    +0.000 A 
ATOM     15  S   UNL     1       3.638  14.730  19.816  0.00  0.00    +0.000 S 
ATOM     16  C   UNL     1       2.206  15.456  20.428  0.00  0.00    +0.000 A 
ENDBRANCH   1  16
BRANCH   3  17
ATOM     17  C   UNL     1      -0.237  13.888  19.305  0.00  0.00    +0.000 C 
BRANCH  17  18
ATOM     18  C   UNL     1      -0.209  12.413  18.918  0.00  0.00    +0.000 A 
ATOM     19  C   UNL     1       0.951  11.749  18.736  0.00  0.00    +0.000 A 
ATOM     20  C   UNL     1       1.028  10.437  18.051  0.00  0.00    +0.000 A 
ATOM     21  O   UNL     1       2.102   9.866  17.905  0.00  0.00    +0.000 OA
ATOM     22  N   UNL     1      -0.141   9.952  17.544  0.00  0.00    +0.000 N 
ATOM     23  C   UNL     1      -1.387  10.552  17.770  0.00  0.00    +0.000 A 
ATOM     24  C   UNL     1      -2.538   9.963  17.243  0.00  0.00    +0.000 A 
ATOM     25  F   UNL     1      -2.438   8.872  16.467  0.00  0.00    +0.000 F 
ATOM     26  C   UNL     1      -3.792  10.496  17.504  0.00  0.00    +0.000 A 
ATOM     27  C   UNL     1      -3.899  11.600  18.347  0.00  0.00    +0.000 A 
ATOM     28  C   UNL     1      -2.747  12.203  18.869  0.00  0.00    +0.000 A 
ATOM     29  C   UNL     1      -1.469  11.725  18.539  0.00  0.00    +0.000 A 
ATOM     30  H   UNL     1      -0.094   9.085  17.021  0.00  0.00    +0.000 HD
ENDBRANCH  17  18
ENDBRANCH   3  17
TORSDOF 4
ENDMDL
