MODEL 1
REMARK VINA RESULT:      -6.9      0.000      0.000
REMARK  Name = 
REMARK  4 active torsions:
REMARK  status: ('A' for Active; 'I' for Inactive)
REMARK    1  A    between atoms: C_2  and  C_3
REMARK    2  A    between atoms: C_3  and  C_4
REMARK    3  A    between atoms: N_10  and  C_11
REMARK    4  A    between atoms: C_11  and  C_12
REMARK                            x       y       z     vdW  Elec       q    Type
REMARK                         _______ _______ _______ _____ _____    ______ ____
ROOT
ATOM      1  O   UNL     1       2.514  11.876  18.529  0.00  0.00    +0.000 OA
ATOM      2  C   UNL     1       1.353  11.436  18.582  0.00  0.00    +0.000 C 
ATOM      3  N   UNL     1       0.390  12.060  19.380  0.00  0.00    +0.000 N 
ATOM      4  C   UNL     1      -0.966  11.881  19.102  0.00  0.00    +0.000 A 
ATOM      5  N   UNL     1      -1.468  11.438  17.977  0.00  0.00    +0.000 NA
ATOM      6  C   UNL     1      -2.851  11.567  17.961  0.00  0.00    +0.000 A 
ATOM      7  C   UNL     1      -3.739  11.283  16.902  0.00  0.00    +0.000 A 
ATOM      8 CL   UNL     1      -3.035  10.697  15.458  0.00  0.00    +0.000 Cl
ATOM      9  C   UNL     1      -5.111  11.497  17.018  0.00  0.00    +0.000 A 
ATOM     10  C   UNL     1      -5.627  11.983  18.214  0.00  0.00    +0.000 A 
ATOM     11  C   UNL     1      -4.786  12.264  19.297  0.00  0.00    +0.000 A 
ATOM     12  C   UNL     1      -3.402  12.062  19.143  0.00  0.00    +0.000 A 
ATOM     13  S   UNL     1      -2.134  12.371  20.259  0.00  0.00    +0.000 S 
ENDROOT
BRANCH   2  14
ATOM     14  C   UNL     1       1.070  10.124  17.837  0.00  0.00    +0.000 C 
BRANCH  14  15
ATOM     15  C   UNL     1       1.598   8.904  18.562  0.00  0.00    +0.000 A 
ATOM     16  C   UNL     1       1.251   8.668  19.900  0.00  0.00    +0.000 A 
ATOM     17  C   UNL     1       1.723   7.536  20.566  0.00  0.00    +0.000 A 
ATOM     18  C   UNL     1       2.546   6.627  19.902  0.00  0.00    +0.000 A 
ATOM     19  C   UNL     1       2.883   6.841  18.567  0.00  0.00    +0.000 A 
ATOM     20  C   UNL     1       2.405   7.968  17.899  0.00  0.00    +0.000 A 
ENDBRANCH  14  15
ENDBRANCH   2  14
BRANCH   3  21
ATOM     21  C   UNL     1       0.854  13.215  20.174  0.00  0.00    +0.000 C 
BRANCH  21  22
ATOM     22  C   UNL     1       0.834  14.553  19.485  0.00  0.00    +0.000 A 
ATOM     23  C   UNL     1      -0.339  15.263  19.221  0.00  0.00    +0.000 A 
ATOM     24  C   UNL     1      -0.260  16.510  18.601  0.00  0.00    +0.000 A 
ATOM     25  C   UNL     1       0.988  17.013  18.279  0.00  0.00    +0.000 A 
ATOM     26  N   UNL     1       2.144  16.371  18.542  0.00  0.00    +0.000 NA
ATOM     27  C   UNL     1       2.041  15.167  19.146  0.00  0.00    +0.000 A 
ENDBRANCH  21  22
ENDBRANCH   3  21
TORSDOF 4
ENDMDL
MODEL 2
REMARK VINA RESULT:      -6.7      3.099      6.337
REMARK  Name = 
REMARK  4 active torsions:
REMARK  status: ('A' for Active; 'I' for Inactive)
REMARK    1  A    between atoms: C_2  and  C_3
REMARK    2  A    between atoms: C_3  and  C_4
REMARK    3  A    between atoms: N_10  and  C_11
REMARK    4  A    between atoms: C_11  and  C_12
REMARK                            x       y       z     vdW  Elec       q    Type
REMARK                         _______ _______ _______ _____ _____    ______ ____
ROOT
ATOM      1  O   UNL     1      -0.829  10.203  21.340  0.00  0.00    +0.000 OA
ATOM      2  C   UNL     1      -0.675  11.232  20.661  0.00  0.00    +0.000 C 
ATOM      3  N   UNL     1      -0.918  12.493  21.213  0.00  0.00    +0.000 N 
ATOM      4  C   UNL     1      -0.327  13.625  20.649  0.00  0.00    +0.000 A 
ATOM      5  N   UNL     1       0.697  13.631  19.833  0.00  0.00    +0.000 NA
ATOM      6  C   UNL     1       1.156  14.924  19.616  0.00  0.00    +0.000 A 
ATOM      7  C   UNL     1       2.283  15.333  18.874  0.00  0.00    +0.000 A 
ATOM      8 CL   UNL     1       3.197  14.092  18.135  0.00  0.00    +0.000 Cl
ATOM      9  C   UNL     1       2.647  16.675  18.772  0.00  0.00    +0.000 A 
ATOM     10  C   UNL     1       1.870  17.642  19.401  0.00  0.00    +0.000 A 
ATOM     11  C   UNL     1       0.734  17.284  20.136  0.00  0.00    +0.000 A 
ATOM     12  C   UNL     1       0.405  15.920  20.242  0.00  0.00    +0.000 A 
ATOM     13  S   UNL     1      -0.876  15.182  21.114  0.00  0.00    +0.000 S 
ENDROOT
BRANCH   2  14
ATOM     14  C   UNL     1      -0.332  11.042  19.177  0.00  0.00    +0.000 C 
BRANCH  14  15
ATOM     15  C   UNL     1      -1.556  10.891  18.298  0.00  0.00    +0.000 A 
ATOM     16  C   UNL     1      -1.561   9.970  17.242  0.00  0.00    +0.000 A 
ATOM     17  C   UNL     1      -2.694   9.816  16.441  0.00  0.00    +0.000 A 
ATOM     18  C   UNL     1      -3.834  10.581  16.688  0.00  0.00    +0.000 A 
ATOM     19  C   UNL     1      -3.847  11.485  17.747  0.00  0.00    +0.000 A 
ATOM     20  C   UNL     1      -2.718  11.634  18.552  0.00  0.00    +0.000 A 
ENDBRANCH  14  15
ENDBRANCH   2  14
BRANCH   3  21
ATOM     21  C   UNL     1      -1.409  12.510  22.605  0.00  0.00    +0.000 C 
BRANCH  21  22
ATOM     22  C   UNL     1      -2.899  12.625  22.788  0.00  0.00    +0.000 A 
ATOM     23  C   UNL     1      -3.776  12.954  21.753  0.00  0.00    +0.000 A 
ATOM     24  C   UNL     1      -5.147  13.013  22.008  0.00  0.00    +0.000 A 
ATOM     25  C   UNL     1      -5.596  12.726  23.285  0.00  0.00    +0.000 A 
ATOM     26  N   UNL     1      -4.784  12.378  24.303  0.00  0.00    +0.000 NA
ATOM     27  C   UNL     1      -3.462  12.325  24.029  0.00  0.00    +0.000 A 
ENDBRANCH  21  22
ENDBRANCH   3  21
TORSDOF 4
ENDMDL
MODEL 3
REMARK VINA RESULT:      -6.7      0.462      1.035
REMARK  Name = 
REMARK  4 active torsions:
REMARK  status: ('A' for Active; 'I' for Inactive)
REMARK    1  A    between atoms: C_2  and  C_3
REMARK    2  A    between atoms: C_3  and  C_4
REMARK    3  A    between atoms: N_10  and  C_11
REMARK    4  A    between atoms: C_11  and  C_12
REMARK                            x       y       z     vdW  Elec       q    Type
REMARK                         _______ _______ _______ _____ _____    ______ ____
ROOT
ATOM      1  O   UNL     1       2.130  12.050  18.718  0.00  0.00    +0.000 OA
ATOM      2  C   UNL     1       0.967  11.619  18.793  0.00  0.00    +0.000 C 
ATOM      3  N   UNL     1       0.029  12.241  19.621  0.00  0.00    +0.000 N 
ATOM      4  C   UNL     1      -1.335  12.076  19.373  0.00  0.00    +0.000 A 
ATOM      5  N   UNL     1      -1.867  11.653  18.255  0.00  0.00    +0.000 NA
ATOM      6  C   UNL     1      -3.249  11.792  18.273  0.00  0.00    +0.000 A 
ATOM      7  C   UNL     1      -4.164  11.530  17.232  0.00  0.00    +0.000 A 
ATOM      8 CL   UNL     1      -3.499  10.957  15.764  0.00  0.00    +0.000 Cl
ATOM      9  C   UNL     1      -5.531  11.754  17.383  0.00  0.00    +0.000 A 
ATOM     10  C   UNL     1      -6.015  12.228  18.598  0.00  0.00    +0.000 A 
ATOM     11  C   UNL     1      -5.146  12.488  19.664  0.00  0.00    +0.000 A 
ATOM     12  C   UNL     1      -3.768  12.277  19.475  0.00  0.00    +0.000 A 
ATOM     13  S   UNL     1      -2.472  12.560  20.564  0.00  0.00    +0.000 S 
ENDROOT
BRANCH   2  14
ATOM     14  C   UNL     1       0.656  10.319  18.038  0.00  0.00    +0.000 C 
BRANCH  14  15
ATOM     15  C   UNL     1       1.292   9.099  18.669  0.00  0.00    +0.000 A 
ATOM     16  C   UNL     1       2.109   8.251  17.908  0.00  0.00    +0.000 A 
ATOM     17  C   UNL     1       2.711   7.135  18.492  0.00  0.00    +0.000 A 
ATOM     18  C   UNL     1       2.501   6.854  19.842  0.00  0.00    +0.000 A 
ATOM     19  C   UNL     1       1.706   7.699  20.612  0.00  0.00    +0.000 A 
ATOM     20  C   UNL     1       1.111   8.819  20.032  0.00  0.00    +0.000 A 
ENDBRANCH  14  15
ENDBRANCH   2  14
BRANCH   3  21
ATOM     21  C   UNL     1       0.521  13.381  20.420  0.00  0.00    +0.000 C 
BRANCH  21  22
ATOM     22  C   UNL     1       0.639  14.699  19.702  0.00  0.00    +0.000 A 
ATOM     23  C   UNL     1      -0.442  15.342  19.096  0.00  0.00    +0.000 A 
ATOM     24  C   UNL     1      -0.245  16.576  18.476  0.00  0.00    +0.000 A 
ATOM     25  C   UNL     1       1.021  17.134  18.496  0.00  0.00    +0.000 A 
ATOM     26  N   UNL     1       2.083  16.558  19.093  0.00  0.00    +0.000 NA
ATOM     27  C   UNL     1       1.865  15.365  19.690  0.00  0.00    +0.000 A 
ENDBRANCH  21  22
ENDBRANCH   3  21
TORSDOF 4
ENDMDL
MODEL 4
REMARK VINA RESULT:      -6.6      1.537      2.023
REMARK  Name = 
REMARK  4 active torsions:
REMARK  status: ('A' for Active; 'I' for Inactive)
REMARK    1  A    between atoms: C_2  and  C_3
REMARK    2  A    between atoms: C_3  and  C_4
REMARK    3  A    between atoms: N_10  and  C_11
REMARK    4  A    between atoms: C_11  and  C_12
REMARK                            x       y       z     vdW  Elec       q    Type
REMARK                         _______ _______ _______ _____ _____    ______ ____
ROOT
ATOM      1  O   UNL     1       1.366  11.778  21.495  0.00  0.00    +0.000 OA
ATOM      2  C   UNL     1       0.185  11.489  21.237  0.00  0.00    +0.000 C 
ATOM      3  N   UNL     1      -0.815  12.464  21.288  0.00  0.00    +0.000 N 
ATOM      4  C   UNL     1      -2.002  12.281  20.578  0.00  0.00    +0.000 A 
ATOM      5  N   UNL     1      -2.189  11.434  19.597  0.00  0.00    +0.000 NA
ATOM      6  C   UNL     1      -3.416  11.643  18.981  0.00  0.00    +0.000 A 
ATOM      7  C   UNL     1      -3.939  10.995  17.843  0.00  0.00    +0.000 A 
ATOM      8 CL   UNL     1      -2.951   9.794  17.132  0.00  0.00    +0.000 Cl
ATOM      9  C   UNL     1      -5.181  11.337  17.311  0.00  0.00    +0.000 A 
ATOM     10  C   UNL     1      -5.938  12.327  17.926  0.00  0.00    +0.000 A 
ATOM     11  C   UNL     1      -5.466  12.986  19.067  0.00  0.00    +0.000 A 
ATOM     12  C   UNL     1      -4.198  12.638  19.568  0.00  0.00    +0.000 A 
ATOM     13  S   UNL     1      -3.341  13.305  20.897  0.00  0.00    +0.000 S 
ENDROOT
BRANCH   2  14
ATOM     14  C   UNL     1      -0.131  10.008  20.984  0.00  0.00    +0.000 C 
BRANCH  14  15
ATOM     15  C   UNL     1       0.805   9.363  19.984  0.00  0.00    +0.000 A 
ATOM     16  C   UNL     1       1.480   8.178  20.307  0.00  0.00    +0.000 A 
ATOM     17  C   UNL     1       2.331   7.572  19.381  0.00  0.00    +0.000 A 
ATOM     18  C   UNL     1       2.515   8.144  18.122  0.00  0.00    +0.000 A 
ATOM     19  C   UNL     1       1.835   9.312  17.784  0.00  0.00    +0.000 A 
ATOM     20  C   UNL     1       0.979   9.914  18.706  0.00  0.00    +0.000 A 
ENDBRANCH  14  15
ENDBRANCH   2  14
BRANCH   3  21
ATOM     21  C   UNL     1      -0.387  13.811  21.714  0.00  0.00    +0.000 C 
BRANCH  21  22
ATOM     22  C   UNL     1      -0.044  14.783  20.615  0.00  0.00    +0.000 A 
ATOM     23  C   UNL     1       1.068  14.639  19.784  0.00  0.00    +0.000 A 
ATOM     24  C   UNL     1       1.294  15.574  18.774  0.00  0.00    +0.000 A 
ATOM     25  C   UNL     1       0.393  16.613  18.618  0.00  0.00    +0.000 A 
ATOM     26  N   UNL     1      -0.706  16.771  19.382  0.00  0.00    +0.000 NA
ATOM     27  C   UNL     1      -0.904  15.850  20.351  0.00  0.00    +0.000 A 
ENDBRANCH  21  22
ENDBRANCH   3  21
TORSDOF 4
ENDMDL
MODEL 5
REMARK VINA RESULT:      -6.6      1.485      1.894
REMARK  Name = 
REMARK  4 active torsions:
REMARK  status: ('A' for Active; 'I' for Inactive)
REMARK    1  A    between atoms: C_2  and  C_3
REMARK    2  A    between atoms: C_3  and  C_4
REMARK    3  A    between atoms: N_10  and  C_11
REMARK    4  A    between atoms: C_11  and  C_12
REMARK                            x       y       z     vdW  Elec       q    Type
REMARK                         _______ _______ _______ _____ _____    ______ ____
ROOT
ATOM      1  O   UNL     1       1.479  11.156  21.602  0.00  0.00    +0.000 OA
ATOM      2  C   UNL     1       0.316  10.924  21.227  0.00  0.00    +0.000 C 
ATOM      3  N   UNL     1      -0.666  11.915  21.300  0.00  0.00    +0.000 N 
ATOM      4  C   UNL     1      -1.798  11.834  20.486  0.00  0.00    +0.000 A 
ATOM      5  N   UNL     1      -1.922  11.093  19.414  0.00  0.00    +0.000 NA
ATOM      6  C   UNL     1      -3.093  11.393  18.731  0.00  0.00    +0.000 A 
ATOM      7  C   UNL     1      -3.537  10.874  17.497  0.00  0.00    +0.000 A 
ATOM      8 CL   UNL     1      -2.518   9.725  16.746  0.00  0.00    +0.000 Cl
ATOM      9  C   UNL     1      -4.727  11.299  16.908  0.00  0.00    +0.000 A 
ATOM     10  C   UNL     1      -5.513  12.243  17.561  0.00  0.00    +0.000 A 
ATOM     11  C   UNL     1      -5.120  12.773  18.795  0.00  0.00    +0.000 A 
ATOM     12  C   UNL     1      -3.901  12.345  19.353  0.00  0.00    +0.000 A 
ATOM     13  S   UNL     1      -3.139  12.855  20.804  0.00  0.00    +0.000 S 
ENDROOT
BRANCH   2  14
ATOM     14  C   UNL     1      -0.005   9.484  20.803  0.00  0.00    +0.000 C 
BRANCH  14  15
ATOM     15  C   UNL     1       1.001   8.914  19.826  0.00  0.00    +0.000 A 
ATOM     16  C   UNL     1       1.717   7.751  20.143  0.00  0.00    +0.000 A 
ATOM     17  C   UNL     1       2.632   7.214  19.237  0.00  0.00    +0.000 A 
ATOM     18  C   UNL     1       2.842   7.832  18.005  0.00  0.00    +0.000 A 
ATOM     19  C   UNL     1       2.122   8.977  17.671  0.00  0.00    +0.000 A 
ATOM     20  C   UNL     1       1.201   9.510  18.573  0.00  0.00    +0.000 A 
ENDBRANCH  14  15
ENDBRANCH   2  14
BRANCH   3  21
ATOM     21  C   UNL     1      -0.249  13.202  21.890  0.00  0.00    +0.000 C 
BRANCH  21  22
ATOM     22  C   UNL     1       0.594  14.096  21.019  0.00  0.00    +0.000 A 
ATOM     23  C   UNL     1       0.276  14.397  19.694  0.00  0.00    +0.000 A 
ATOM     24  C   UNL     1       1.102  15.257  18.969  0.00  0.00    +0.000 A 
ATOM     25  C   UNL     1       2.208  15.799  19.597  0.00  0.00    +0.000 A 
ATOM     26  N   UNL     1       2.534  15.555  20.883  0.00  0.00    +0.000 NA
ATOM     27  C   UNL     1       1.716  14.722  21.563  0.00  0.00    +0.000 A 
ENDBRANCH  21  22
ENDBRANCH   3  21
TORSDOF 4
ENDMDL
MODEL 6
REMARK VINA RESULT:      -6.6      3.164      6.165
REMARK  Name = 
REMARK  4 active torsions:
REMARK  status: ('A' for Active; 'I' for Inactive)
REMARK    1  A    between atoms: C_2  and  C_3
REMARK    2  A    between atoms: C_3  and  C_4
REMARK    3  A    between atoms: N_10  and  C_11
REMARK    4  A    between atoms: C_11  and  C_12
REMARK                            x       y       z     vdW  Elec       q    Type
REMARK                         _______ _______ _______ _____ _____    ______ ____
ROOT
ATOM      1  O   UNL     1      -0.667  14.235  23.436  0.00  0.00    +0.000 OA
ATOM      2  C   UNL     1      -0.715  13.318  22.599  0.00  0.00    +0.000 C 
ATOM      3  N   UNL     1      -0.079  13.448  21.362  0.00  0.00    +0.000 N 
ATOM      4  C   UNL     1       0.266  12.308  20.633  0.00  0.00    +0.000 A 
ATOM      5  N   UNL     1       0.348  11.091  21.105  0.00  0.00    +0.000 NA
ATOM      6  C   UNL     1       0.903  10.227  20.170  0.00  0.00    +0.000 A 
ATOM      7  C   UNL     1       1.231   8.865  20.331  0.00  0.00    +0.000 A 
ATOM      8 CL   UNL     1       0.897   8.179  21.861  0.00  0.00    +0.000 Cl
ATOM      9  C   UNL     1       1.822   8.127  19.307  0.00  0.00    +0.000 A 
ATOM     10  C   UNL     1       2.078   8.739  18.085  0.00  0.00    +0.000 A 
ATOM     11  C   UNL     1       1.756  10.084  17.874  0.00  0.00    +0.000 A 
ATOM     12  C   UNL     1       1.183  10.811  18.934  0.00  0.00    +0.000 A 
ATOM     13  S   UNL     1       0.741  12.469  18.993  0.00  0.00    +0.000 S 
ENDROOT
BRANCH   2  14
ATOM     14  C   UNL     1      -1.598  12.109  22.940  0.00  0.00    +0.000 C 
BRANCH  14  15
ATOM     15  C   UNL     1      -3.073  12.447  22.992  0.00  0.00    +0.000 A 
ATOM     16  C   UNL     1      -3.766  12.779  21.819  0.00  0.00    +0.000 A 
ATOM     17  C   UNL     1      -5.130  13.074  21.862  0.00  0.00    +0.000 A 
ATOM     18  C   UNL     1      -5.815  13.041  23.076  0.00  0.00    +0.000 A 
ATOM     19  C   UNL     1      -5.141  12.695  24.244  0.00  0.00    +0.000 A 
ATOM     20  C   UNL     1      -3.780  12.392  24.202  0.00  0.00    +0.000 A 
ENDBRANCH  14  15
ENDBRANCH   2  14
BRANCH   3  21
ATOM     21  C   UNL     1       0.590  14.739  21.107  0.00  0.00    +0.000 C 
BRANCH  21  22
ATOM     22  C   UNL     1      -0.165  15.729  20.261  0.00  0.00    +0.000 A 
ATOM     23  C   UNL     1      -1.430  16.217  20.595  0.00  0.00    +0.000 A 
ATOM     24  C   UNL     1      -2.045  17.154  19.764  0.00  0.00    +0.000 A 
ATOM     25  C   UNL     1      -1.370  17.583  18.635  0.00  0.00    +0.000 A 
ATOM     26  N   UNL     1      -0.137  17.156  18.292  0.00  0.00    +0.000 NA
ATOM     27  C   UNL     1       0.438  16.252  19.116  0.00  0.00    +0.000 A 
ENDBRANCH  21  22
ENDBRANCH   3  21
TORSDOF 4
ENDMDL
MODEL 7
REMARK VINA RESULT:      -6.6      3.126      6.256
REMARK  Name = 
REMARK  4 active torsions:
REMARK  status: ('A' for Active; 'I' for Inactive)
REMARK    1  A    between atoms: C_2  and  C_3
REMARK    2  A    between atoms: C_3  and  C_4
REMARK    3  A    between atoms: N_10  and  C_11
REMARK    4  A    between atoms: C_11  and  C_12
REMARK                            x       y       z     vdW  Elec       q    Type
REMARK                         _______ _______ _______ _____ _____    ______ ____
ROOT
ATOM      1  O   UNL     1      -0.934  10.642  21.883  0.00  0.00    +0.000 OA
ATOM      2  C   UNL     1      -0.746  11.524  21.027  0.00  0.00    +0.000 C 
ATOM      3  N   UNL     1      -0.997  12.866  21.321  0.00  0.00    +0.000 N 
ATOM      4  C   UNL     1      -0.375  13.870  20.575  0.00  0.00    +0.000 A 
ATOM      5  N   UNL     1       0.678  13.720  19.813  0.00  0.00    +0.000 NA
ATOM      6  C   UNL     1       1.158  14.946  19.373  0.00  0.00    +0.000 A 
ATOM      7  C   UNL     1       2.315  15.205  18.610  0.00  0.00    +0.000 A 
ATOM      8 CL   UNL     1       3.244  13.844  18.155  0.00  0.00    +0.000 Cl
ATOM      9  C   UNL     1       2.694  16.503  18.270  0.00  0.00    +0.000 A 
ATOM     10  C   UNL     1       1.904  17.573  18.674  0.00  0.00    +0.000 A 
ATOM     11  C   UNL     1       0.739  17.363  19.420  0.00  0.00    +0.000 A 
ATOM     12  C   UNL     1       0.393  16.045  19.770  0.00  0.00    +0.000 A 
ATOM     13  S   UNL     1      -0.927  15.488  20.716  0.00  0.00    +0.000 S 
ENDROOT
BRANCH   2  14
ATOM     14  C   UNL     1      -0.350  11.055  19.620  0.00  0.00    +0.000 C 
BRANCH  14  15
ATOM     15  C   UNL     1      -1.536  10.884  18.695  0.00  0.00    +0.000 A 
ATOM     16  C   UNL     1      -2.708  11.626  18.900  0.00  0.00    +0.000 A 
ATOM     17  C   UNL     1      -3.797  11.483  18.039  0.00  0.00    +0.000 A 
ATOM     18  C   UNL     1      -3.727  10.597  16.964  0.00  0.00    +0.000 A 
ATOM     19  C   UNL     1      -2.561   9.869  16.739  0.00  0.00    +0.000 A 
ATOM     20  C   UNL     1      -1.469  10.017  17.594  0.00  0.00    +0.000 A 
ENDBRANCH  14  15
ENDBRANCH   2  14
BRANCH   3  21
ATOM     21  C   UNL     1      -1.539  13.148  22.664  0.00  0.00    +0.000 C 
BRANCH  21  22
ATOM     22  C   UNL     1      -3.036  13.069  22.813  0.00  0.00    +0.000 A 
ATOM     23  C   UNL     1      -3.927  13.497  21.828  0.00  0.00    +0.000 A 
ATOM     24  C   UNL     1      -5.300  13.361  22.041  0.00  0.00    +0.000 A 
ATOM     25  C   UNL     1      -5.734  12.789  23.223  0.00  0.00    +0.000 A 
ATOM     26  N   UNL     1      -4.905  12.340  24.186  0.00  0.00    +0.000 NA
ATOM     27  C   UNL     1      -3.581  12.480  23.954  0.00  0.00    +0.000 A 
ENDBRANCH  21  22
ENDBRANCH   3  21
TORSDOF 4
ENDMDL
MODEL 8
REMARK VINA RESULT:      -6.5      0.610      1.344
REMARK  Name = 
REMARK  4 active torsions:
REMARK  status: ('A' for Active; 'I' for Inactive)
REMARK    1  A    between atoms: C_2  and  C_3
REMARK    2  A    between atoms: C_3  and  C_4
REMARK    3  A    between atoms: N_10  and  C_11
REMARK    4  A    between atoms: C_11  and  C_12
REMARK                            x       y       z     vdW  Elec       q    Type
REMARK                         _______ _______ _______ _____ _____    ______ ____
ROOT
ATOM      1  O   UNL     1       2.580  11.579  18.579  0.00  0.00    +0.000 OA
ATOM      2  C   UNL     1       1.396  11.203  18.628  0.00  0.00    +0.000 C 
ATOM      3  N   UNL     1       0.472  11.864  19.443  0.00  0.00    +0.000 N 
ATOM      4  C   UNL     1      -0.893  11.766  19.167  0.00  0.00    +0.000 A 
ATOM      5  N   UNL     1      -1.422  11.376  18.035  0.00  0.00    +0.000 NA
ATOM      6  C   UNL     1      -2.796  11.581  18.027  0.00  0.00    +0.000 A 
ATOM      7  C   UNL     1      -3.701  11.369  16.966  0.00  0.00    +0.000 A 
ATOM      8 CL   UNL     1      -3.035  10.775  15.507  0.00  0.00    +0.000 Cl
ATOM      9  C   UNL     1      -5.059  11.657  17.092  0.00  0.00    +0.000 A 
ATOM     10  C   UNL     1      -5.544  12.146  18.300  0.00  0.00    +0.000 A 
ATOM     11  C   UNL     1      -4.685  12.358  19.385  0.00  0.00    +0.000 A 
ATOM     12  C   UNL     1      -3.315  12.082  19.221  0.00  0.00    +0.000 A 
ATOM     13  S   UNL     1      -2.029  12.296  20.338  0.00  0.00    +0.000 S 
ENDROOT
BRANCH   2  14
ATOM     14  C   UNL     1       1.038   9.924  17.858  0.00  0.00    +0.000 C 
BRANCH  14  15
ATOM     15  C   UNL     1       1.736   8.693  18.395  0.00  0.00    +0.000 A 
ATOM     16  C   UNL     1       2.680   8.014  17.612  0.00  0.00    +0.000 A 
ATOM     17  C   UNL     1       3.337   6.888  18.111  0.00  0.00    +0.000 A 
ATOM     18  C   UNL     1       3.058   6.429  19.398  0.00  0.00    +0.000 A 
ATOM     19  C   UNL     1       2.136   7.106  20.192  0.00  0.00    +0.000 A 
ATOM     20  C   UNL     1       1.484   8.236  19.697  0.00  0.00    +0.000 A 
ENDBRANCH  14  15
ENDBRANCH   2  14
BRANCH   3  21
ATOM     21  C   UNL     1       1.002  12.974  20.259  0.00  0.00    +0.000 C 
BRANCH  21  22
ATOM     22  C   UNL     1       1.070  14.322  19.592  0.00  0.00    +0.000 A 
ATOM     23  C   UNL     1       2.244  14.854  19.058  0.00  0.00    +0.000 A 
ATOM     24  C   UNL     1       2.209  16.102  18.433  0.00  0.00    +0.000 A 
ATOM     25  C   UNL     1       0.999  16.768  18.350  0.00  0.00    +0.000 A 
ATOM     26  N   UNL     1      -0.161  16.275  18.830  0.00  0.00    +0.000 NA
ATOM     27  C   UNL     1      -0.100  15.064  19.427  0.00  0.00    +0.000 A 
ENDBRANCH  21  22
ENDBRANCH   3  21
TORSDOF 4
ENDMDL
MODEL 9
REMARK VINA RESULT:      -6.5      1.255      1.720
REMARK  Name = 
REMARK  4 active torsions:
REMARK  status: ('A' for Active; 'I' for Inactive)
REMARK    1  A    between atoms: C_2  and  C_3
REMARK    2  A    between atoms: C_3  and  C_4
REMARK    3  A    between atoms: N_10  and  C_11
REMARK    4  A    between atoms: C_11  and  C_12
REMARK                            x       y       z     vdW  Elec       q    Type
REMARK                         _______ _______ _______ _____ _____    ______ ____
ROOT
ATOM      1  O   UNL     1       1.619  12.222  18.915  0.00  0.00    +0.000 OA
ATOM      2  C   UNL     1       0.461  11.780  19.013  0.00  0.00    +0.000 C 
ATOM      3  N   UNL     1      -0.465  12.395  19.860  0.00  0.00    +0.000 N 
ATOM      4  C   UNL     1      -1.832  12.218  19.640  0.00  0.00    +0.000 A 
ATOM      5  N   UNL     1      -2.383  11.790  18.533  0.00  0.00    +0.000 NA
ATOM      6  C   UNL     1      -3.766  11.918  18.579  0.00  0.00    +0.000 A 
ATOM      7  C   UNL     1      -4.699  11.647  17.557  0.00  0.00    +0.000 A 
ATOM      8 CL   UNL     1      -4.059  11.079  16.076  0.00  0.00    +0.000 Cl
ATOM      9  C   UNL     1      -6.065  11.859  17.735  0.00  0.00    +0.000 A 
ATOM     10  C   UNL     1      -6.528  12.330  18.959  0.00  0.00    +0.000 A 
ATOM     11  C   UNL     1      -5.640  12.598  20.007  0.00  0.00    +0.000 A 
ATOM     12  C   UNL     1      -4.264  12.398  19.790  0.00  0.00    +0.000 A 
ATOM     13  S   UNL     1      -2.949  12.693  20.853  0.00  0.00    +0.000 S 
ENDROOT
BRANCH   2  14
ATOM     14  C   UNL     1       0.146  10.478  18.266  0.00  0.00    +0.000 C 
BRANCH  14  15
ATOM     15  C   UNL     1       0.961   9.299  18.756  0.00  0.00    +0.000 A 
ATOM     16  C   UNL     1       1.794   8.597  17.874  0.00  0.00    +0.000 A 
ATOM     17  C   UNL     1       2.559   7.521  18.327  0.00  0.00    +0.000 A 
ATOM     18  C   UNL     1       2.499   7.135  19.666  0.00  0.00    +0.000 A 
ATOM     19  C   UNL     1       1.689   7.837  20.556  0.00  0.00    +0.000 A 
ATOM     20  C   UNL     1       0.930   8.918  20.105  0.00  0.00    +0.000 A 
ENDBRANCH  14  15
ENDBRANCH   2  14
BRANCH   3  21
ATOM     21  C   UNL     1       0.033  13.539  20.648  0.00  0.00    +0.000 C 
BRANCH  21  22
ATOM     22  C   UNL     1      -0.285  14.910  20.113  0.00  0.00    +0.000 A 
ATOM     23  C   UNL     1      -0.082  15.279  18.782  0.00  0.00    +0.000 A 
ATOM     24  C   UNL     1      -0.431  16.565  18.367  0.00  0.00    +0.000 A 
ATOM     25  C   UNL     1      -0.985  17.433  19.291  0.00  0.00    +0.000 A 
ATOM     26  N   UNL     1      -1.221  17.105  20.577  0.00  0.00    +0.000 NA
ATOM     27  C   UNL     1      -0.878  15.853  20.953  0.00  0.00    +0.000 A 
ENDBRANCH  21  22
ENDBRANCH   3  21
TORSDOF 4
ENDMDL
