MODEL 1
REMARK VINA RESULT:      -9.5      0.000      0.000
REMARK  Name = 
REMARK  6 active torsions:
REMARK  status: ('A' for Active; 'I' for Inactive)
REMARK    1  A    between atoms: S_2  and  C_4
REMARK    2  A    between atoms: S_2  and  C_10
REMARK    3  A    between atoms: C_12  and  C_13
REMARK    4  A    between atoms: C_21  and  N_22
REMARK    5  A    between atoms: N_22  and  C_23
REMARK    6  A    between atoms: C_23  and  C_24
REMARK                            x       y       z     vdW  Elec       q    Type
REMARK                         _______ _______ _______ _____ _____    ______ ____
ROOT
ATOM      1  C   UNL     1       5.742   5.505  17.200  0.00  0.00    +0.000 A 
ATOM      2  N   UNL     1       5.181   6.770  17.364  0.00  0.00    +0.000 NA
ATOM      3  C   UNL     1       4.062   6.534  18.015  0.00  0.00    +0.000 A 
ATOM      4  O   UNL     1       3.860   5.219  18.303  0.00  0.00    +0.000 OA
ATOM      5  C   UNL     1       4.934   4.547  17.785  0.00  0.00    +0.000 A 
ENDROOT
BRANCH   3   6
ATOM      6  C   UNL     1       3.018   7.467  18.415  0.00  0.00    +0.000 A 
ATOM      7  C   UNL     1       2.691   8.540  17.571  0.00  0.00    +0.000 A 
ATOM      8  C   UNL     1       1.656   9.422  17.900  0.00  0.00    +0.000 A 
ATOM      9  C   UNL     1       0.937   9.246  19.081  0.00  0.00    +0.000 A 
ATOM     10  C   UNL     1       1.261   8.196  19.937  0.00  0.00    +0.000 A 
ATOM     11  C   UNL     1       2.293   7.321  19.605  0.00  0.00    +0.000 A 
ATOM     12  F   UNL     1       2.563   6.326  20.464  0.00  0.00    +0.000 F 
ENDBRANCH   3   6
BRANCH   1  14
ATOM     13  O   UNL     1       7.909   4.209  17.057  0.00  0.00    +0.000 OA
ATOM     14  S   UNL     1       7.224   5.278  16.352  0.00  0.00    +0.000 S 
ATOM     15  O   UNL     1       7.804   6.598  16.220  0.00  0.00    +0.000 OA
BRANCH  14  16
ATOM     16  C   UNL     1       6.747   4.708  14.740  0.00  0.00    +0.000 A 
ATOM     17  C   UNL     1       7.600   4.909  13.651  0.00  0.00    +0.000 A 
ATOM     18  C   UNL     1       7.223   4.442  12.390  0.00  0.00    +0.000 A 
ATOM     19  C   UNL     1       6.005   3.783  12.218  0.00  0.00    +0.000 A 
ATOM     20  C   UNL     1       5.151   3.594  13.306  0.00  0.00    +0.000 A 
ATOM     21  C   UNL     1       5.516   4.064  14.569  0.00  0.00    +0.000 A 
ENDBRANCH  14  16
ENDBRANCH   1  14
BRANCH   5  22
ATOM     22  N   UNL     1       4.935   3.196  17.966  0.00  0.00    +0.000 N 
ATOM     23  H   UNL     1       5.605   2.825  18.641  0.00  0.00    +0.000 HD
BRANCH  22  24
ATOM     24  C   UNL     1       3.617   2.554  17.991  0.00  0.00    +0.000 C 
BRANCH  24  25
ATOM     25  C   UNL     1       2.809   2.696  19.253  0.00  0.00    +0.000 A 
ATOM     26  C   UNL     1       1.464   3.052  19.343  0.00  0.00    +0.000 A 
ATOM     27  C   UNL     1       0.855   3.129  20.599  0.00  0.00    +0.000 A 
ATOM     28  C   UNL     1       1.612   2.859  21.729  0.00  0.00    +0.000 A 
ATOM     29  N   UNL     1       2.917   2.533  21.687  0.00  0.00    +0.000 NA
ATOM     30  C   UNL     1       3.479   2.463  20.460  0.00  0.00    +0.000 A 
ENDBRANCH  24  25
ENDBRANCH  22  24
ENDBRANCH   5  22
TORSDOF 6
ENDMDL
MODEL 2
REMARK VINA RESULT:      -9.1      0.863      1.239
REMARK  Name = 
REMARK  6 active torsions:
REMARK  status: ('A' for Active; 'I' for Inactive)
REMARK    1  A    between atoms: S_2  and  C_4
REMARK    2  A    between atoms: S_2  and  C_10
REMARK    3  A    between atoms: C_12  and  C_13
REMARK    4  A    between atoms: C_21  and  N_22
REMARK    5  A    between atoms: N_22  and  C_23
REMARK    6  A    between atoms: C_23  and  C_24
REMARK                            x       y       z     vdW  Elec       q    Type
REMARK                         _______ _______ _______ _____ _____    ______ ____
ROOT
ATOM      1  C   UNL     1       5.668   5.458  17.300  0.00  0.00    +0.000 A 
ATOM      2  N   UNL     1       5.084   6.702  17.535  0.00  0.00    +0.000 NA
ATOM      3  C   UNL     1       3.977   6.411  18.183  0.00  0.00    +0.000 A 
ATOM      4  O   UNL     1       3.803   5.080  18.405  0.00  0.00    +0.000 OA
ATOM      5  C   UNL     1       4.885   4.456  17.843  0.00  0.00    +0.000 A 
ENDROOT
BRANCH   3   6
ATOM      6  C   UNL     1       2.920   7.302  18.641  0.00  0.00    +0.000 A 
ATOM      7  C   UNL     1       2.390   7.137  19.931  0.00  0.00    +0.000 A 
ATOM      8  C   UNL     1       1.413   8.009  20.421  0.00  0.00    +0.000 A 
ATOM      9  C   UNL     1       0.949   9.056  19.627  0.00  0.00    +0.000 A 
ATOM     10  C   UNL     1       1.453   9.223  18.340  0.00  0.00    +0.000 A 
ATOM     11  C   UNL     1       2.426   8.351  17.856  0.00  0.00    +0.000 A 
ATOM     12  F   UNL     1       2.878   8.557  16.609  0.00  0.00    +0.000 F 
ENDBRANCH   3   6
BRANCH   1  14
ATOM     13  O   UNL     1       7.889   4.264  17.114  0.00  0.00    +0.000 OA
ATOM     14  S   UNL     1       7.145   5.304  16.427  0.00  0.00    +0.000 S 
ATOM     15  O   UNL     1       7.661   6.650  16.294  0.00  0.00    +0.000 OA
BRANCH  14  16
ATOM     16  C   UNL     1       6.668   4.722  14.819  0.00  0.00    +0.000 A 
ATOM     17  C   UNL     1       7.543   4.868  13.739  0.00  0.00    +0.000 A 
ATOM     18  C   UNL     1       7.166   4.392  12.482  0.00  0.00    +0.000 A 
ATOM     19  C   UNL     1       5.925   3.778  12.305  0.00  0.00    +0.000 A 
ATOM     20  C   UNL     1       5.049   3.644  13.383  0.00  0.00    +0.000 A 
ATOM     21  C   UNL     1       5.415   4.123  14.642  0.00  0.00    +0.000 A 
ENDBRANCH  14  16
ENDBRANCH   1  14
BRANCH   5  22
ATOM     22  N   UNL     1       4.913   3.098  17.954  0.00  0.00    +0.000 N 
ATOM     23  H   UNL     1       5.622   2.704  18.572  0.00  0.00    +0.000 HD
BRANCH  22  24
ATOM     24  C   UNL     1       3.607   2.434  18.015  0.00  0.00    +0.000 C 
BRANCH  24  25
ATOM     25  C   UNL     1       2.803   2.617  19.275  0.00  0.00    +0.000 A 
ATOM     26  C   UNL     1       1.465   2.999  19.359  0.00  0.00    +0.000 A 
ATOM     27  C   UNL     1       0.859   3.113  20.614  0.00  0.00    +0.000 A 
ATOM     28  C   UNL     1       1.613   2.852  21.748  0.00  0.00    +0.000 A 
ATOM     29  N   UNL     1       2.912   2.501  21.712  0.00  0.00    +0.000 NA
ATOM     30  C   UNL     1       3.471   2.397  20.485  0.00  0.00    +0.000 A 
ENDBRANCH  24  25
ENDBRANCH  22  24
ENDBRANCH   5  22
TORSDOF 6
ENDMDL
MODEL 3
REMARK VINA RESULT:      -9.0      2.420      6.637
REMARK  Name = 
REMARK  6 active torsions:
REMARK  status: ('A' for Active; 'I' for Inactive)
REMARK    1  A    between atoms: S_2  and  C_4
REMARK    2  A    between atoms: S_2  and  C_10
REMARK    3  A    between atoms: C_12  and  C_13
REMARK    4  A    between atoms: C_21  and  N_22
REMARK    5  A    between atoms: N_22  and  C_23
REMARK    6  A    between atoms: C_23  and  C_24
REMARK                            x       y       z     vdW  Elec       q    Type
REMARK                         _______ _______ _______ _____ _____    ______ ____
ROOT
ATOM      1  C   UNL     1       5.130   4.898  17.481  0.00  0.00    +0.000 A 
ATOM      2  N   UNL     1       5.628   4.017  16.522  0.00  0.00    +0.000 NA
ATOM      3  C   UNL     1       5.607   4.720  15.410  0.00  0.00    +0.000 A 
ATOM      4  O   UNL     1       5.154   5.993  15.573  0.00  0.00    +0.000 OA
ATOM      5  C   UNL     1       4.845   6.120  16.901  0.00  0.00    +0.000 A 
ENDROOT
BRANCH   3   6
ATOM      6  C   UNL     1       5.954   4.310  14.057  0.00  0.00    +0.000 A 
ATOM      7  C   UNL     1       5.056   3.515  13.325  0.00  0.00    +0.000 A 
ATOM      8  C   UNL     1       5.335   3.149  12.005  0.00  0.00    +0.000 A 
ATOM      9  C   UNL     1       6.517   3.570  11.397  0.00  0.00    +0.000 A 
ATOM     10  C   UNL     1       7.425   4.345  12.115  0.00  0.00    +0.000 A 
ATOM     11  C   UNL     1       7.143   4.706  13.431  0.00  0.00    +0.000 A 
ATOM     12  F   UNL     1       8.051   5.454  14.076  0.00  0.00    +0.000 F 
ENDBRANCH   3   6
BRANCH   1  14
ATOM     13  O   UNL     1       5.174   5.616  19.905  0.00  0.00    +0.000 OA
ATOM     14  S   UNL     1       4.920   4.419  19.123  0.00  0.00    +0.000 S 
ATOM     15  O   UNL     1       5.714   3.220  19.284  0.00  0.00    +0.000 OA
BRANCH  14  16
ATOM     16  C   UNL     1       3.205   3.982  19.256  0.00  0.00    +0.000 A 
ATOM     17  C   UNL     1       2.593   3.942  20.512  0.00  0.00    +0.000 A 
ATOM     18  C   UNL     1       1.240   3.613  20.606  0.00  0.00    +0.000 A 
ATOM     19  C   UNL     1       0.505   3.323  19.455  0.00  0.00    +0.000 A 
ATOM     20  C   UNL     1       1.121   3.352  18.204  0.00  0.00    +0.000 A 
ATOM     21  C   UNL     1       2.476   3.673  18.101  0.00  0.00    +0.000 A 
ENDBRANCH  14  16
ENDBRANCH   1  14
BRANCH   5  22
ATOM     22  N   UNL     1       4.368   7.336  17.288  0.00  0.00    +0.000 N 
ATOM     23  H   UNL     1       4.912   8.152  17.006  0.00  0.00    +0.000 HD
BRANCH  22  24
ATOM     24  C   UNL     1       2.914   7.509  17.205  0.00  0.00    +0.000 C 
BRANCH  24  25
ATOM     25  C   UNL     1       2.215   8.040  18.428  0.00  0.00    +0.000 A 
ATOM     26  C   UNL     1       2.173   7.442  19.687  0.00  0.00    +0.000 A 
ATOM     27  C   UNL     1       1.485   8.076  20.726  0.00  0.00    +0.000 A 
ATOM     28  C   UNL     1       0.848   9.281  20.472  0.00  0.00    +0.000 A 
ATOM     29  N   UNL     1       0.846   9.880  19.267  0.00  0.00    +0.000 NA
ATOM     30  C   UNL     1       1.522   9.247  18.282  0.00  0.00    +0.000 A 
ENDBRANCH  24  25
ENDBRANCH  22  24
ENDBRANCH   5  22
TORSDOF 6
ENDMDL
MODEL 4
REMARK VINA RESULT:      -8.9      2.416      6.713
REMARK  Name = 
REMARK  6 active torsions:
REMARK  status: ('A' for Active; 'I' for Inactive)
REMARK    1  A    between atoms: S_2  and  C_4
REMARK    2  A    between atoms: S_2  and  C_10
REMARK    3  A    between atoms: C_12  and  C_13
REMARK    4  A    between atoms: C_21  and  N_22
REMARK    5  A    between atoms: N_22  and  C_23
REMARK    6  A    between atoms: C_23  and  C_24
REMARK                            x       y       z     vdW  Elec       q    Type
REMARK                         _______ _______ _______ _____ _____    ______ ____
ROOT
ATOM      1  C   UNL     1       5.003   4.861  17.526  0.00  0.00    +0.000 A 
ATOM      2  N   UNL     1       5.616   4.030  16.589  0.00  0.00    +0.000 NA
ATOM      3  C   UNL     1       5.572   4.728  15.475  0.00  0.00    +0.000 A 
ATOM      4  O   UNL     1       4.996   5.953  15.616  0.00  0.00    +0.000 OA
ATOM      5  C   UNL     1       4.627   6.050  16.931  0.00  0.00    +0.000 A 
ENDROOT
BRANCH   3   6
ATOM      6  C   UNL     1       6.007   4.351  14.137  0.00  0.00    +0.000 A 
ATOM      7  C   UNL     1       5.190   3.518  13.355  0.00  0.00    +0.000 A 
ATOM      8  C   UNL     1       5.552   3.182  12.047  0.00  0.00    +0.000 A 
ATOM      9  C   UNL     1       6.739   3.671  11.503  0.00  0.00    +0.000 A 
ATOM     10  C   UNL     1       7.567   4.485  12.271  0.00  0.00    +0.000 A 
ATOM     11  C   UNL     1       7.202   4.816  13.575  0.00  0.00    +0.000 A 
ATOM     12  F   UNL     1       8.036   5.604  14.271  0.00  0.00    +0.000 F 
ENDBRANCH   3   6
BRANCH   1  14
ATOM     13  O   UNL     1       4.925   5.574  19.950  0.00  0.00    +0.000 OA
ATOM     14  S   UNL     1       4.776   4.365  19.160  0.00  0.00    +0.000 S 
ATOM     15  O   UNL     1       5.644   3.221  19.345  0.00  0.00    +0.000 OA
BRANCH  14  16
ATOM     16  C   UNL     1       3.090   3.814  19.242  0.00  0.00    +0.000 A 
ATOM     17  C   UNL     1       2.637   2.830  18.359  0.00  0.00    +0.000 A 
ATOM     18  C   UNL     1       1.315   2.391  18.442  0.00  0.00    +0.000 A 
ATOM     19  C   UNL     1       0.452   2.931  19.397  0.00  0.00    +0.000 A 
ATOM     20  C   UNL     1       0.905   3.922  20.270  0.00  0.00    +0.000 A 
ATOM     21  C   UNL     1       2.224   4.373  20.189  0.00  0.00    +0.000 A 
ENDBRANCH  14  16
ENDBRANCH   1  14
BRANCH   5  22
ATOM     22  N   UNL     1       4.024   7.217  17.295  0.00  0.00    +0.000 N 
ATOM     23  H   UNL     1       4.244   8.040  16.734  0.00  0.00    +0.000 HD
BRANCH  22  24
ATOM     24  C   UNL     1       2.620   7.111  17.706  0.00  0.00    +0.000 C 
BRANCH  24  25
ATOM     25  C   UNL     1       2.023   8.293  18.421  0.00  0.00    +0.000 A 
ATOM     26  C   UNL     1       1.752   9.546  17.873  0.00  0.00    +0.000 A 
ATOM     27  C   UNL     1       1.182  10.540  18.676  0.00  0.00    +0.000 A 
ATOM     28  C   UNL     1       0.911  10.254  20.005  0.00  0.00    +0.000 A 
ATOM     29  N   UNL     1       1.177   9.065  20.578  0.00  0.00    +0.000 NA
ATOM     30  C   UNL     1       1.725   8.123  19.778  0.00  0.00    +0.000 A 
ENDBRANCH  24  25
ENDBRANCH  22  24
ENDBRANCH   5  22
TORSDOF 6
ENDMDL
MODEL 5
REMARK VINA RESULT:      -8.6      0.626      1.232
REMARK  Name = 
REMARK  6 active torsions:
REMARK  status: ('A' for Active; 'I' for Inactive)
REMARK    1  A    between atoms: S_2  and  C_4
REMARK    2  A    between atoms: S_2  and  C_10
REMARK    3  A    between atoms: C_12  and  C_13
REMARK    4  A    between atoms: C_21  and  N_22
REMARK    5  A    between atoms: N_22  and  C_23
REMARK    6  A    between atoms: C_23  and  C_24
REMARK                            x       y       z     vdW  Elec       q    Type
REMARK                         _______ _______ _______ _____ _____    ______ ____
ROOT
ATOM      1  C   UNL     1       5.842   5.539  17.296  0.00  0.00    +0.000 A 
ATOM      2  N   UNL     1       5.204   6.778  17.332  0.00  0.00    +0.000 NA
ATOM      3  C   UNL     1       4.144   6.564  18.081  0.00  0.00    +0.000 A 
ATOM      4  O   UNL     1       4.051   5.289  18.550  0.00  0.00    +0.000 OA
ATOM      5  C   UNL     1       5.138   4.621  18.052  0.00  0.00    +0.000 A 
ENDROOT
BRANCH   3   6
ATOM      6  C   UNL     1       3.063   7.476  18.426  0.00  0.00    +0.000 A 
ATOM      7  C   UNL     1       2.720   8.508  17.537  0.00  0.00    +0.000 A 
ATOM      8  C   UNL     1       1.652   9.366  17.814  0.00  0.00    +0.000 A 
ATOM      9  C   UNL     1       0.914   9.209  18.985  0.00  0.00    +0.000 A 
ATOM     10  C   UNL     1       1.251   8.201  19.885  0.00  0.00    +0.000 A 
ATOM     11  C   UNL     1       2.318   7.348  19.605  0.00  0.00    +0.000 A 
ATOM     12  F   UNL     1       2.600   6.394  20.506  0.00  0.00    +0.000 F 
ENDBRANCH   3   6
BRANCH   1  14
ATOM     13  O   UNL     1       7.995   4.231  17.078  0.00  0.00    +0.000 OA
ATOM     14  S   UNL     1       7.284   5.292  16.387  0.00  0.00    +0.000 S 
ATOM     15  O   UNL     1       7.863   6.607  16.209  0.00  0.00    +0.000 OA
BRANCH  14  16
ATOM     16  C   UNL     1       6.734   4.700  14.806  0.00  0.00    +0.000 A 
ATOM     17  C   UNL     1       5.491   4.071  14.694  0.00  0.00    +0.000 A 
ATOM     18  C   UNL     1       5.060   3.623  13.443  0.00  0.00    +0.000 A 
ATOM     19  C   UNL     1       5.865   3.799  12.317  0.00  0.00    +0.000 A 
ATOM     20  C   UNL     1       7.111   4.417  12.435  0.00  0.00    +0.000 A 
ATOM     21  C   UNL     1       7.554   4.862  13.683  0.00  0.00    +0.000 A 
ENDBRANCH  14  16
ENDBRANCH   1  14
BRANCH   5  22
ATOM     22  N   UNL     1       5.243   3.309  18.406  0.00  0.00    +0.000 N 
ATOM     23  H   UNL     1       6.139   2.856  18.224  0.00  0.00    +0.000 HD
BRANCH  22  24
ATOM     24  C   UNL     1       4.613   2.936  19.677  0.00  0.00    +0.000 C 
BRANCH  24  25
ATOM     25  C   UNL     1       3.112   2.821  19.690  0.00  0.00    +0.000 A 
ATOM     26  C   UNL     1       2.301   2.393  18.640  0.00  0.00    +0.000 A 
ATOM     27  C   UNL     1       0.916   2.331  18.821  0.00  0.00    +0.000 A 
ATOM     28  C   UNL     1       0.382   2.712  20.043  0.00  0.00    +0.000 A 
ATOM     29  N   UNL     1       1.127   3.151  21.074  0.00  0.00    +0.000 NA
ATOM     30  C   UNL     1       2.462   3.197  20.872  0.00  0.00    +0.000 A 
ENDBRANCH  24  25
ENDBRANCH  22  24
ENDBRANCH   5  22
TORSDOF 6
ENDMDL
MODEL 6
REMARK VINA RESULT:      -8.6      2.443      3.143
REMARK  Name = 
REMARK  6 active torsions:
REMARK  status: ('A' for Active; 'I' for Inactive)
REMARK    1  A    between atoms: S_2  and  C_4
REMARK    2  A    between atoms: S_2  and  C_10
REMARK    3  A    between atoms: C_12  and  C_13
REMARK    4  A    between atoms: C_21  and  N_22
REMARK    5  A    between atoms: N_22  and  C_23
REMARK    6  A    between atoms: C_23  and  C_24
REMARK                            x       y       z     vdW  Elec       q    Type
REMARK                         _______ _______ _______ _____ _____    ______ ____
ROOT
ATOM      1  C   UNL     1       3.937   5.629  17.417  0.00  0.00    +0.000 A 
ATOM      2  N   UNL     1       3.800   6.799  18.162  0.00  0.00    +0.000 NA
ATOM      3  C   UNL     1       2.552   6.760  18.577  0.00  0.00    +0.000 A 
ATOM      4  O   UNL     1       1.873   5.651  18.178  0.00  0.00    +0.000 OA
ATOM      5  C   UNL     1       2.754   4.915  17.431  0.00  0.00    +0.000 A 
ENDROOT
BRANCH   3   6
ATOM      6  C   UNL     1       1.811   7.747  19.350  0.00  0.00    +0.000 A 
ATOM      7  C   UNL     1       1.501   8.988  18.769  0.00  0.00    +0.000 A 
ATOM      8  C   UNL     1       0.743   9.935  19.464  0.00  0.00    +0.000 A 
ATOM      9  C   UNL     1       0.288   9.658  20.752  0.00  0.00    +0.000 A 
ATOM     10  C   UNL     1       0.601   8.439  21.348  0.00  0.00    +0.000 A 
ATOM     11  C   UNL     1       1.358   7.498  20.651  0.00  0.00    +0.000 A 
ATOM     12  F   UNL     1       1.629   6.340  21.272  0.00  0.00    +0.000 F 
ENDBRANCH   3   6
BRANCH   1  14
ATOM     13  O   UNL     1       5.252   5.738  15.259  0.00  0.00    +0.000 OA
ATOM     14  S   UNL     1       5.411   5.238  16.613  0.00  0.00    +0.000 S 
ATOM     15  O   UNL     1       5.643   3.835  16.885  0.00  0.00    +0.000 OA
BRANCH  14  16
ATOM     16  C   UNL     1       6.655   6.188  17.450  0.00  0.00    +0.000 A 
ATOM     17  C   UNL     1       6.977   7.468  16.991  0.00  0.00    +0.000 A 
ATOM     18  C   UNL     1       7.946   8.214  17.666  0.00  0.00    +0.000 A 
ATOM     19  C   UNL     1       8.588   7.684  18.786  0.00  0.00    +0.000 A 
ATOM     20  C   UNL     1       8.273   6.401  19.234  0.00  0.00    +0.000 A 
ATOM     21  C   UNL     1       7.310   5.645  18.562  0.00  0.00    +0.000 A 
ENDBRANCH  14  16
ENDBRANCH   1  14
BRANCH   5  22
ATOM     22  N   UNL     1       2.273   3.743  16.927  0.00  0.00    +0.000 N 
ATOM     23  H   UNL     1       2.333   3.621  15.916  0.00  0.00    +0.000 HD
BRANCH  22  24
ATOM     24  C   UNL     1       2.571   2.540  17.710  0.00  0.00    +0.000 C 
BRANCH  24  25
ATOM     25  C   UNL     1       2.352   2.617  19.197  0.00  0.00    +0.000 A 
ATOM     26  C   UNL     1       1.139   2.837  19.849  0.00  0.00    +0.000 A 
ATOM     27  C   UNL     1       1.105   2.869  21.246  0.00  0.00    +0.000 A 
ATOM     28  C   UNL     1       2.286   2.692  21.950  0.00  0.00    +0.000 A 
ATOM     29  N   UNL     1       3.480   2.498  21.360  0.00  0.00    +0.000 NA
ATOM     30  C   UNL     1       3.483   2.469  20.008  0.00  0.00    +0.000 A 
ENDBRANCH  24  25
ENDBRANCH  22  24
ENDBRANCH   5  22
TORSDOF 6
ENDMDL
MODEL 7
REMARK VINA RESULT:      -8.5      2.670      3.422
REMARK  Name = 
REMARK  6 active torsions:
REMARK  status: ('A' for Active; 'I' for Inactive)
REMARK    1  A    between atoms: S_2  and  C_4
REMARK    2  A    between atoms: S_2  and  C_10
REMARK    3  A    between atoms: C_12  and  C_13
REMARK    4  A    between atoms: C_21  and  N_22
REMARK    5  A    between atoms: N_22  and  C_23
REMARK    6  A    between atoms: C_23  and  C_24
REMARK                            x       y       z     vdW  Elec       q    Type
REMARK                         _______ _______ _______ _____ _____    ______ ____
ROOT
ATOM      1  C   UNL     1       4.162   5.371  18.098  0.00  0.00    +0.000 A 
ATOM      2  N   UNL     1       3.961   6.533  18.841  0.00  0.00    +0.000 NA
ATOM      3  C   UNL     1       2.654   6.681  18.844  0.00  0.00    +0.000 A 
ATOM      4  O   UNL     1       1.988   5.698  18.178  0.00  0.00    +0.000 OA
ATOM      5  C   UNL     1       2.947   4.849  17.694  0.00  0.00    +0.000 A 
ENDROOT
BRANCH   3   6
ATOM      6  C   UNL     1       1.852   7.755  19.412  0.00  0.00    +0.000 A 
ATOM      7  C   UNL     1       1.397   7.650  20.737  0.00  0.00    +0.000 A 
ATOM      8  C   UNL     1       0.672   8.687  21.331  0.00  0.00    +0.000 A 
ATOM      9  C   UNL     1       0.386   9.843  20.607  0.00  0.00    +0.000 A 
ATOM     10  C   UNL     1       0.815   9.956  19.286  0.00  0.00    +0.000 A 
ATOM     11  C   UNL     1       1.537   8.918  18.699  0.00  0.00    +0.000 A 
ATOM     12  F   UNL     1       1.927   9.079  17.425  0.00  0.00    +0.000 F 
ENDBRANCH   3   6
BRANCH   1  14
ATOM     13  O   UNL     1       5.729   4.407  16.363  0.00  0.00    +0.000 OA
ATOM     14  S   UNL     1       5.744   4.773  17.769  0.00  0.00    +0.000 S 
ATOM     15  O   UNL     1       6.017   3.801  18.807  0.00  0.00    +0.000 OA
BRANCH  14  16
ATOM     16  C   UNL     1       6.819   6.166  18.003  0.00  0.00    +0.000 A 
ATOM     17  C   UNL     1       7.758   6.152  19.038  0.00  0.00    +0.000 A 
ATOM     18  C   UNL     1       8.610   7.246  19.204  0.00  0.00    +0.000 A 
ATOM     19  C   UNL     1       8.524   8.343  18.346  0.00  0.00    +0.000 A 
ATOM     20  C   UNL     1       7.577   8.357  17.320  0.00  0.00    +0.000 A 
ATOM     21  C   UNL     1       6.716   7.272  17.151  0.00  0.00    +0.000 A 
ENDBRANCH  14  16
ENDBRANCH   1  14
BRANCH   5  22
ATOM     22  N   UNL     1       2.492   3.777  16.987  0.00  0.00    +0.000 N 
ATOM     23  H   UNL     1       2.811   3.697  16.021  0.00  0.00    +0.000 HD
BRANCH  22  24
ATOM     24  C   UNL     1       2.425   2.509  17.720  0.00  0.00    +0.000 C 
BRANCH  24  25
ATOM     25  C   UNL     1       2.236   2.587  19.211  0.00  0.00    +0.000 A 
ATOM     26  C   UNL     1       1.058   2.905  19.885  0.00  0.00    +0.000 A 
ATOM     27  C   UNL     1       1.048   2.923  21.283  0.00  0.00    +0.000 A 
ATOM     28  C   UNL     1       2.220   2.635  21.965  0.00  0.00    +0.000 A 
ATOM     29  N   UNL     1       3.383   2.345  21.353  0.00  0.00    +0.000 NA
ATOM     30  C   UNL     1       3.363   2.332  20.002  0.00  0.00    +0.000 A 
ENDBRANCH  24  25
ENDBRANCH  22  24
ENDBRANCH   5  22
TORSDOF 6
ENDMDL
MODEL 8
REMARK VINA RESULT:      -8.4      1.298      1.697
REMARK  Name = 
REMARK  6 active torsions:
REMARK  status: ('A' for Active; 'I' for Inactive)
REMARK    1  A    between atoms: S_2  and  C_4
REMARK    2  A    between atoms: S_2  and  C_10
REMARK    3  A    between atoms: C_12  and  C_13
REMARK    4  A    between atoms: C_21  and  N_22
REMARK    5  A    between atoms: N_22  and  C_23
REMARK    6  A    between atoms: C_23  and  C_24
REMARK                            x       y       z     vdW  Elec       q    Type
REMARK                         _______ _______ _______ _____ _____    ______ ____
ROOT
ATOM      1  C   UNL     1       5.770   5.667  17.787  0.00  0.00    +0.000 A 
ATOM      2  N   UNL     1       5.005   6.829  17.698  0.00  0.00    +0.000 NA
ATOM      3  C   UNL     1       4.009   6.613  18.529  0.00  0.00    +0.000 A 
ATOM      4  O   UNL     1       4.074   5.411  19.165  0.00  0.00    +0.000 OA
ATOM      5  C   UNL     1       5.203   4.794  18.697  0.00  0.00    +0.000 A 
ENDROOT
BRANCH   3   6
ATOM      6  C   UNL     1       2.852   7.450  18.815  0.00  0.00    +0.000 A 
ATOM      7  C   UNL     1       2.243   7.379  20.078  0.00  0.00    +0.000 A 
ATOM      8  C   UNL     1       1.165   8.209  20.402  0.00  0.00    +0.000 A 
ATOM      9  C   UNL     1       0.678   9.118  19.466  0.00  0.00    +0.000 A 
ATOM     10  C   UNL     1       1.260   9.190  18.203  0.00  0.00    +0.000 A 
ATOM     11  C   UNL     1       2.334   8.360  17.885  0.00  0.00    +0.000 A 
ATOM     12  F   UNL     1       2.857   8.470  16.654  0.00  0.00    +0.000 F 
ENDBRANCH   3   6
BRANCH   1  14
ATOM     13  O   UNL     1       7.952   4.416  17.520  0.00  0.00    +0.000 OA
ATOM     14  S   UNL     1       7.189   5.445  16.836  0.00  0.00    +0.000 S 
ATOM     15  O   UNL     1       7.724   6.773  16.618  0.00  0.00    +0.000 OA
BRANCH  14  16
ATOM     16  C   UNL     1       6.606   4.811  15.284  0.00  0.00    +0.000 A 
ATOM     17  C   UNL     1       7.403   4.927  14.142  0.00  0.00    +0.000 A 
ATOM     18  C   UNL     1       6.943   4.410  12.929  0.00  0.00    +0.000 A 
ATOM     19  C   UNL     1       5.697   3.786  12.858  0.00  0.00    +0.000 A 
ATOM     20  C   UNL     1       4.898   3.683  13.998  0.00  0.00    +0.000 A 
ATOM     21  C   UNL     1       5.347   4.203  15.213  0.00  0.00    +0.000 A 
ENDBRANCH  14  16
ENDBRANCH   1  14
BRANCH   5  22
ATOM     22  N   UNL     1       5.464   3.560  19.213  0.00  0.00    +0.000 N 
ATOM     23  H   UNL     1       5.754   3.524  20.190  0.00  0.00    +0.000 HD
BRANCH  22  24
ATOM     24  C   UNL     1       4.550   2.489  18.803  0.00  0.00    +0.000 C 
BRANCH  24  25
ATOM     25  C   UNL     1       3.114   2.611  19.236  0.00  0.00    +0.000 A 
ATOM     26  C   UNL     1       2.649   2.778  20.540  0.00  0.00    +0.000 A 
ATOM     27  C   UNL     1       1.274   2.886  20.772  0.00  0.00    +0.000 A 
ATOM     28  C   UNL     1       0.405   2.810  19.695  0.00  0.00    +0.000 A 
ATOM     29  N   UNL     1       0.810   2.627  18.425  0.00  0.00    +0.000 NA
ATOM     30  C   UNL     1       2.144   2.530  18.230  0.00  0.00    +0.000 A 
ENDBRANCH  24  25
ENDBRANCH  22  24
ENDBRANCH   5  22
TORSDOF 6
ENDMDL
MODEL 9
REMARK VINA RESULT:      -8.4      3.640      7.791
REMARK  Name = 
REMARK  6 active torsions:
REMARK  status: ('A' for Active; 'I' for Inactive)
REMARK    1  A    between atoms: S_2  and  C_4
REMARK    2  A    between atoms: S_2  and  C_10
REMARK    3  A    between atoms: C_12  and  C_13
REMARK    4  A    between atoms: C_21  and  N_22
REMARK    5  A    between atoms: N_22  and  C_23
REMARK    6  A    between atoms: C_23  and  C_24
REMARK                            x       y       z     vdW  Elec       q    Type
REMARK                         _______ _______ _______ _____ _____    ______ ____
ROOT
ATOM      1  C   UNL     1       6.374   5.091  17.456  0.00  0.00    +0.000 A 
ATOM      2  N   UNL     1       6.002   4.301  16.370  0.00  0.00    +0.000 NA
ATOM      3  C   UNL     1       6.698   4.796  15.370  0.00  0.00    +0.000 A 
ATOM      4  O   UNL     1       7.506   5.834  15.722  0.00  0.00    +0.000 OA
ATOM      5  C   UNL     1       7.306   6.032  17.062  0.00  0.00    +0.000 A 
ENDROOT
BRANCH   3   6
ATOM      6  C   UNL     1       6.682   4.419  13.964  0.00  0.00    +0.000 A 
ATOM      7  C   UNL     1       5.690   3.543  13.495  0.00  0.00    +0.000 A 
ATOM      8  C   UNL     1       5.614   3.204  12.141  0.00  0.00    +0.000 A 
ATOM      9  C   UNL     1       6.532   3.733  11.235  0.00  0.00    +0.000 A 
ATOM     10  C   UNL     1       7.532   4.590  11.687  0.00  0.00    +0.000 A 
ATOM     11  C   UNL     1       7.604   4.924  13.038  0.00  0.00    +0.000 A 
ATOM     12  F   UNL     1       8.587   5.755  13.419  0.00  0.00    +0.000 F 
ENDBRANCH   3   6
BRANCH   1  14
ATOM     13  O   UNL     1       6.652   5.418  19.949  0.00  0.00    +0.000 OA
ATOM     14  S   UNL     1       5.687   4.857  19.019  0.00  0.00    +0.000 S 
ATOM     15  O   UNL     1       5.300   3.463  19.070  0.00  0.00    +0.000 OA
BRANCH  14  16
ATOM     16  C   UNL     1       4.216   5.851  19.027  0.00  0.00    +0.000 A 
ATOM     17  C   UNL     1       4.026   6.818  18.037  0.00  0.00    +0.000 A 
ATOM     18  C   UNL     1       2.858   7.584  18.042  0.00  0.00    +0.000 A 
ATOM     19  C   UNL     1       1.891   7.387  19.029  0.00  0.00    +0.000 A 
ATOM     20  C   UNL     1       2.091   6.428  20.024  0.00  0.00    +0.000 A 
ATOM     21  C   UNL     1       3.258   5.662  20.031  0.00  0.00    +0.000 A 
ENDBRANCH  14  16
ENDBRANCH   1  14
BRANCH   5  22
ATOM     22  N   UNL     1       8.030   7.038  17.629  0.00  0.00    +0.000 N 
ATOM     23  H   UNL     1       9.040   7.015  17.483  0.00  0.00    +0.000 HD
BRANCH  22  24
ATOM     24  C   UNL     1       7.431   8.374  17.561  0.00  0.00    +0.000 C 
BRANCH  24  25
ATOM     25  C   UNL     1       8.239   9.518  18.112  0.00  0.00    +0.000 A 
ATOM     26  C   UNL     1       9.103   9.476  19.205  0.00  0.00    +0.000 A 
ATOM     27  C   UNL     1       9.793  10.632  19.582  0.00  0.00    +0.000 A 
ATOM     28  C   UNL     1       9.588  11.800  18.864  0.00  0.00    +0.000 A 
ATOM     29  N   UNL     1       8.746  11.889  17.817  0.00  0.00    +0.000 NA
ATOM     30  C   UNL     1       8.096  10.755  17.472  0.00  0.00    +0.000 A 
ENDBRANCH  24  25
ENDBRANCH  22  24
ENDBRANCH   5  22
TORSDOF 6
ENDMDL
