MODEL 1
REMARK VINA RESULT:      -7.6      0.000      0.000
REMARK  Name = 
REMARK  4 active torsions:
REMARK  status: ('A' for Active; 'I' for Inactive)
REMARK    1  A    between atoms: C_2  and  C_3
REMARK    2  A    between atoms: C_3  and  C_4
REMARK    3  A    between atoms: C_7  and  C_8
REMARK    4  A    between atoms: C_14  and  C_15
REMARK                            x       y       z     vdW  Elec       q    Type
REMARK                         _______ _______ _______ _____ _____    ______ ____
ROOT
ATOM      1  C   UNL     1       4.359   5.235  17.383  0.00  0.00    +0.000 A 
ATOM      2  O   UNL     1       4.712   6.315  16.634  0.00  0.00    +0.000 OA
ATOM      3  N   UNL     1       3.933   7.400  16.978  0.00  0.00    +0.000 NA
ATOM      4  C   UNL     1       3.168   6.988  17.997  0.00  0.00    +0.000 A 
ATOM      5  C   UNL     1       3.333   5.592  18.240  0.00  0.00    +0.000 A 
ENDROOT
BRANCH   4   6
ATOM      6  C   UNL     1       2.275   7.918  18.746  0.00  0.00    +0.000 A 
ATOM      7  C   UNL     1       1.589   8.998  18.223  0.00  0.00    +0.000 A 
ATOM      8  C   UNL     1       0.881   9.584  19.303  0.00  0.00    +0.000 A 
ATOM      9  C   UNL     1       1.207   8.858  20.424  0.00  0.00    +0.000 A 
ATOM     10 CL   UNL     1       0.708   9.175  22.038  0.00  0.00    +0.000 Cl
ATOM     11  O   UNL     1       2.007   7.815  20.081  0.00  0.00    +0.000 OA
ENDBRANCH   4   6
BRANCH   5  12
ATOM     12  C   UNL     1       2.539   4.679  19.049  0.00  0.00    +0.000 A 
ATOM     13  C   UNL     1       2.765   4.619  20.433  0.00  0.00    +0.000 A 
ATOM     14  C   UNL     1       2.027   3.759  21.249  0.00  0.00    +0.000 A 
ATOM     15  C   UNL     1       1.020   2.979  20.695  0.00  0.00    +0.000 A 
ATOM     16  C   UNL     1       0.763   3.049  19.328  0.00  0.00    +0.000 A 
ATOM     17  C   UNL     1       1.525   3.883  18.505  0.00  0.00    +0.000 A 
ENDBRANCH   5  12
BRANCH   1  18
ATOM     18  C   UNL     1       5.106   3.990  17.088  0.00  0.00    +0.000 C 
BRANCH  18  20
ATOM     19  N   UNL     1       7.744   4.640  16.491  0.00  0.00    +0.000 NA
ATOM     20  C   UNL     1       6.548   4.345  16.762  0.00  0.00    +0.000 C 
ENDBRANCH  18  20
ENDBRANCH   1  18
TORSDOF 4
ENDMDL
MODEL 2
REMARK VINA RESULT:      -7.5      3.107      5.371
REMARK  Name = 
REMARK  4 active torsions:
REMARK  status: ('A' for Active; 'I' for Inactive)
REMARK    1  A    between atoms: C_2  and  C_3
REMARK    2  A    between atoms: C_3  and  C_4
REMARK    3  A    between atoms: C_7  and  C_8
REMARK    4  A    between atoms: C_14  and  C_15
REMARK                            x       y       z     vdW  Elec       q    Type
REMARK                         _______ _______ _______ _____ _____    ______ ____
ROOT
ATOM      1  C   UNL     1       2.129   3.426  18.806  0.00  0.00    +0.000 A 
ATOM      2  O   UNL     1       2.705   2.339  18.224  0.00  0.00    +0.000 OA
ATOM      3  N   UNL     1       3.829   2.720  17.524  0.00  0.00    +0.000 NA
ATOM      4  C   UNL     1       3.974   4.031  17.757  0.00  0.00    +0.000 A 
ATOM      5  C   UNL     1       2.871   4.553  18.496  0.00  0.00    +0.000 A 
ENDROOT
BRANCH   4   6
ATOM      6  C   UNL     1       5.162   4.796  17.280  0.00  0.00    +0.000 A 
ATOM      7  C   UNL     1       5.883   4.558  16.125  0.00  0.00    +0.000 A 
ATOM      8  C   UNL     1       6.918   5.527  16.093  0.00  0.00    +0.000 A 
ATOM      9  C   UNL     1       6.796   6.269  17.243  0.00  0.00    +0.000 A 
ATOM     10 CL   UNL     1       7.840   7.527  17.774  0.00  0.00    +0.000 Cl
ATOM     11  O   UNL     1       5.700   5.865  17.938  0.00  0.00    +0.000 OA
ENDBRANCH   4   6
BRANCH   5  12
ATOM     12  C   UNL     1       2.476   5.931  18.746  0.00  0.00    +0.000 A 
ATOM     13  C   UNL     1       2.193   6.333  20.062  0.00  0.00    +0.000 A 
ATOM     14  C   UNL     1       1.812   7.644  20.350  0.00  0.00    +0.000 A 
ATOM     15  C   UNL     1       1.751   8.585  19.329  0.00  0.00    +0.000 A 
ATOM     16  C   UNL     1       2.058   8.210  18.023  0.00  0.00    +0.000 A 
ATOM     17  C   UNL     1       2.404   6.888  17.728  0.00  0.00    +0.000 A 
ENDBRANCH   5  12
BRANCH   1  18
ATOM     18  C   UNL     1       0.890   3.153  19.569  0.00  0.00    +0.000 C 
BRANCH  18  20
ATOM     19  N   UNL     1       1.562   2.532  22.195  0.00  0.00    +0.000 NA
ATOM     20  C   UNL     1       1.257   2.813  21.005  0.00  0.00    +0.000 C 
ENDBRANCH  18  20
ENDBRANCH   1  18
TORSDOF 4
ENDMDL
MODEL 3
REMARK VINA RESULT:      -7.5      3.136      5.439
REMARK  Name = 
REMARK  4 active torsions:
REMARK  status: ('A' for Active; 'I' for Inactive)
REMARK    1  A    between atoms: C_2  and  C_3
REMARK    2  A    between atoms: C_3  and  C_4
REMARK    3  A    between atoms: C_7  and  C_8
REMARK    4  A    between atoms: C_14  and  C_15
REMARK                            x       y       z     vdW  Elec       q    Type
REMARK                         _______ _______ _______ _____ _____    ______ ____
ROOT
ATOM      1  C   UNL     1       2.217   3.573  19.010  0.00  0.00    +0.000 A 
ATOM      2  O   UNL     1       2.825   2.482  18.468  0.00  0.00    +0.000 OA
ATOM      3  N   UNL     1       3.967   2.865  17.797  0.00  0.00    +0.000 NA
ATOM      4  C   UNL     1       4.087   4.181  18.011  0.00  0.00    +0.000 A 
ATOM      5  C   UNL     1       2.954   4.703  18.703  0.00  0.00    +0.000 A 
ENDROOT
BRANCH   4   6
ATOM      6  C   UNL     1       5.281   4.953  17.559  0.00  0.00    +0.000 A 
ATOM      7  C   UNL     1       5.931   4.826  16.346  0.00  0.00    +0.000 A 
ATOM      8  C   UNL     1       7.003   5.753  16.367  0.00  0.00    +0.000 A 
ATOM      9  C   UNL     1       6.973   6.359  17.600  0.00  0.00    +0.000 A 
ATOM     10 CL   UNL     1       8.096   7.508  18.212  0.00  0.00    +0.000 Cl
ATOM     11  O   UNL     1       5.898   5.917  18.304  0.00  0.00    +0.000 OA
ENDBRANCH   4   6
BRANCH   5  12
ATOM     12  C   UNL     1       2.534   6.080  18.915  0.00  0.00    +0.000 A 
ATOM     13  C   UNL     1       2.464   6.950  17.815  0.00  0.00    +0.000 A 
ATOM     14  C   UNL     1       2.065   8.279  17.970  0.00  0.00    +0.000 A 
ATOM     15  C   UNL     1       1.689   8.744  19.224  0.00  0.00    +0.000 A 
ATOM     16  C   UNL     1       1.724   7.885  20.320  0.00  0.00    +0.000 A 
ATOM     17  C   UNL     1       2.158   6.565  20.172  0.00  0.00    +0.000 A 
ENDBRANCH   5  12
BRANCH   1  18
ATOM     18  C   UNL     1       0.956   3.297  19.737  0.00  0.00    +0.000 C 
BRANCH  18  20
ATOM     19  N   UNL     1       1.564   2.472  22.323  0.00  0.00    +0.000 NA
ATOM     20  C   UNL     1       1.288   2.846  21.150  0.00  0.00    +0.000 C 
ENDBRANCH  18  20
ENDBRANCH   1  18
TORSDOF 4
ENDMDL
MODEL 4
REMARK VINA RESULT:      -7.5      0.217      1.096
REMARK  Name = 
REMARK  4 active torsions:
REMARK  status: ('A' for Active; 'I' for Inactive)
REMARK    1  A    between atoms: C_2  and  C_3
REMARK    2  A    between atoms: C_3  and  C_4
REMARK    3  A    between atoms: C_7  and  C_8
REMARK    4  A    between atoms: C_14  and  C_15
REMARK                            x       y       z     vdW  Elec       q    Type
REMARK                         _______ _______ _______ _____ _____    ______ ____
ROOT
ATOM      1  C   UNL     1       4.381   5.326  17.431  0.00  0.00    +0.000 A 
ATOM      2  O   UNL     1       4.736   6.403  16.678  0.00  0.00    +0.000 OA
ATOM      3  N   UNL     1       3.938   7.482  16.994  0.00  0.00    +0.000 NA
ATOM      4  C   UNL     1       3.157   7.071  18.002  0.00  0.00    +0.000 A 
ATOM      5  C   UNL     1       3.334   5.680  18.264  0.00  0.00    +0.000 A 
ENDROOT
BRANCH   4   6
ATOM      6  C   UNL     1       2.238   7.998  18.723  0.00  0.00    +0.000 A 
ATOM      7  C   UNL     1       1.551   9.065  18.175  0.00  0.00    +0.000 A 
ATOM      8  C   UNL     1       0.813   9.653  19.234  0.00  0.00    +0.000 A 
ATOM      9  C   UNL     1       1.124   8.943  20.369  0.00  0.00    +0.000 A 
ATOM     10 CL   UNL     1       0.587   9.269  21.969  0.00  0.00    +0.000 Cl
ATOM     11  O   UNL     1       1.943   7.905  20.053  0.00  0.00    +0.000 OA
ENDBRANCH   4   6
BRANCH   5  12
ATOM     12  C   UNL     1       2.534   4.766  19.066  0.00  0.00    +0.000 A 
ATOM     13  C   UNL     1       1.622   3.913  18.425  0.00  0.00    +0.000 A 
ATOM     14  C   UNL     1       0.835   3.019  19.153  0.00  0.00    +0.000 A 
ATOM     15  C   UNL     1       0.982   2.936  20.532  0.00  0.00    +0.000 A 
ATOM     16  C   UNL     1       1.904   3.754  21.180  0.00  0.00    +0.000 A 
ATOM     17  C   UNL     1       2.667   4.676  20.456  0.00  0.00    +0.000 A 
ENDBRANCH   5  12
BRANCH   1  18
ATOM     18  C   UNL     1       5.149   4.088  17.165  0.00  0.00    +0.000 C 
BRANCH  18  20
ATOM     19  N   UNL     1       7.490   4.748  15.816  0.00  0.00    +0.000 NA
ATOM     20  C   UNL     1       6.429   4.449  16.427  0.00  0.00    +0.000 C 
ENDBRANCH  18  20
ENDBRANCH   1  18
TORSDOF 4
ENDMDL
MODEL 5
REMARK VINA RESULT:      -7.4      3.006      5.257
REMARK  Name = 
REMARK  4 active torsions:
REMARK  status: ('A' for Active; 'I' for Inactive)
REMARK    1  A    between atoms: C_2  and  C_3
REMARK    2  A    between atoms: C_3  and  C_4
REMARK    3  A    between atoms: C_7  and  C_8
REMARK    4  A    between atoms: C_14  and  C_15
REMARK                            x       y       z     vdW  Elec       q    Type
REMARK                         _______ _______ _______ _____ _____    ______ ____
ROOT
ATOM      1  C   UNL     1       2.807   4.167  17.667  0.00  0.00    +0.000 A 
ATOM      2  O   UNL     1       3.660   3.289  17.073  0.00  0.00    +0.000 OA
ATOM      3  N   UNL     1       4.926   3.832  17.011  0.00  0.00    +0.000 NA
ATOM      4  C   UNL     1       4.846   5.007  17.648  0.00  0.00    +0.000 A 
ATOM      5  C   UNL     1       3.501   5.314  18.010  0.00  0.00    +0.000 A 
ENDROOT
BRANCH   4   6
ATOM      6  C   UNL     1       6.049   5.847  17.916  0.00  0.00    +0.000 A 
ATOM      7  C   UNL     1       7.108   5.526  18.744  0.00  0.00    +0.000 A 
ATOM      8  C   UNL     1       8.006   6.622  18.690  0.00  0.00    +0.000 A 
ATOM      9  C   UNL     1       7.428   7.562  17.871  0.00  0.00    +0.000 A 
ATOM     10 CL   UNL     1       8.032   9.131  17.514  0.00  0.00    +0.000 Cl
ATOM     11  O   UNL     1       6.269   7.073  17.356  0.00  0.00    +0.000 OA
ENDBRANCH   4   6
BRANCH   5  12
ATOM     12  C   UNL     1       2.914   6.564  18.469  0.00  0.00    +0.000 A 
ATOM     13  C   UNL     1       2.820   7.644  17.576  0.00  0.00    +0.000 A 
ATOM     14  C   UNL     1       2.263   8.861  17.972  0.00  0.00    +0.000 A 
ATOM     15  C   UNL     1       1.751   9.000  19.256  0.00  0.00    +0.000 A 
ATOM     16  C   UNL     1       1.809   7.929  20.144  0.00  0.00    +0.000 A 
ATOM     17  C   UNL     1       2.399   6.721  19.760  0.00  0.00    +0.000 A 
ENDBRANCH   5  12
BRANCH   1  18
ATOM     18  C   UNL     1       1.401   3.711  17.770  0.00  0.00    +0.000 C 
BRANCH  18  20
ATOM     19  N   UNL     1       0.903   2.895  20.381  0.00  0.00    +0.000 NA
ATOM     20  C   UNL     1       1.128   3.265  19.197  0.00  0.00    +0.000 C 
ENDBRANCH  18  20
ENDBRANCH   1  18
TORSDOF 4
ENDMDL
MODEL 6
REMARK VINA RESULT:      -7.3      0.926      1.122
REMARK  Name = 
REMARK  4 active torsions:
REMARK  status: ('A' for Active; 'I' for Inactive)
REMARK    1  A    between atoms: C_2  and  C_3
REMARK    2  A    between atoms: C_3  and  C_4
REMARK    3  A    between atoms: C_7  and  C_8
REMARK    4  A    between atoms: C_14  and  C_15
REMARK                            x       y       z     vdW  Elec       q    Type
REMARK                         _______ _______ _______ _____ _____    ______ ____
ROOT
ATOM      1  C   UNL     1       4.222   5.273  17.434  0.00  0.00    +0.000 A 
ATOM      2  O   UNL     1       4.510   6.400  16.726  0.00  0.00    +0.000 OA
ATOM      3  N   UNL     1       3.740   7.450  17.178  0.00  0.00    +0.000 NA
ATOM      4  C   UNL     1       3.047   6.968  18.218  0.00  0.00    +0.000 A 
ATOM      5  C   UNL     1       3.247   5.564  18.372  0.00  0.00    +0.000 A 
ENDROOT
BRANCH   4   6
ATOM      6  C   UNL     1       2.190   7.840  19.072  0.00  0.00    +0.000 A 
ATOM      7  C   UNL     1       1.878   7.635  20.403  0.00  0.00    +0.000 A 
ATOM      8  C   UNL     1       1.037   8.711  20.788  0.00  0.00    +0.000 A 
ATOM      9  C   UNL     1       0.851   9.482  19.666  0.00  0.00    +0.000 A 
ATOM     10 CL   UNL     1      -0.152  10.871  19.524  0.00  0.00    +0.000 Cl
ATOM     11  O   UNL     1       1.593   8.989  18.639  0.00  0.00    +0.000 OA
ENDBRANCH   4   6
BRANCH   5  12
ATOM     12  C   UNL     1       2.519   4.595  19.177  0.00  0.00    +0.000 A 
ATOM     13  C   UNL     1       2.894   4.399  20.516  0.00  0.00    +0.000 A 
ATOM     14  C   UNL     1       2.224   3.481  21.326  0.00  0.00    +0.000 A 
ATOM     15  C   UNL     1       1.140   2.775  20.818  0.00  0.00    +0.000 A 
ATOM     16  C   UNL     1       0.737   2.980  19.501  0.00  0.00    +0.000 A 
ATOM     17  C   UNL     1       1.430   3.873  18.678  0.00  0.00    +0.000 A 
ENDBRANCH   5  12
BRANCH   1  18
ATOM     18  C   UNL     1       4.967   4.061  17.024  0.00  0.00    +0.000 C 
BRANCH  18  20
ATOM     19  N   UNL     1       7.637   4.731  16.625  0.00  0.00    +0.000 NA
ATOM     20  C   UNL     1       6.427   4.427  16.806  0.00  0.00    +0.000 C 
ENDBRANCH  18  20
ENDBRANCH   1  18
TORSDOF 4
ENDMDL
MODEL 7
REMARK VINA RESULT:      -7.3      0.999      1.590
REMARK  Name = 
REMARK  4 active torsions:
REMARK  status: ('A' for Active; 'I' for Inactive)
REMARK    1  A    between atoms: C_2  and  C_3
REMARK    2  A    between atoms: C_3  and  C_4
REMARK    3  A    between atoms: C_7  and  C_8
REMARK    4  A    between atoms: C_14  and  C_15
REMARK                            x       y       z     vdW  Elec       q    Type
REMARK                         _______ _______ _______ _____ _____    ______ ____
ROOT
ATOM      1  C   UNL     1       4.235   5.294  17.519  0.00  0.00    +0.000 A 
ATOM      2  O   UNL     1       4.522   6.371  16.738  0.00  0.00    +0.000 OA
ATOM      3  N   UNL     1       3.735   7.441  17.105  0.00  0.00    +0.000 NA
ATOM      4  C   UNL     1       3.032   7.026  18.167  0.00  0.00    +0.000 A 
ATOM      5  C   UNL     1       3.245   5.639  18.422  0.00  0.00    +0.000 A 
ENDROOT
BRANCH   4   6
ATOM      6  C   UNL     1       2.154   7.945  18.946  0.00  0.00    +0.000 A 
ATOM      7  C   UNL     1       1.834   7.837  20.287  0.00  0.00    +0.000 A 
ATOM      8  C   UNL     1       0.973   8.924  20.583  0.00  0.00    +0.000 A 
ATOM      9  C   UNL     1       0.784   9.605  19.404  0.00  0.00    +0.000 A 
ATOM     10 CL   UNL     1      -0.241  10.962  19.151  0.00  0.00    +0.000 Cl
ATOM     11  O   UNL     1       1.542   9.048  18.423  0.00  0.00    +0.000 OA
ENDBRANCH   4   6
BRANCH   5  12
ATOM     12  C   UNL     1       2.516   4.719  19.282  0.00  0.00    +0.000 A 
ATOM     13  C   UNL     1       1.473   3.953  18.736  0.00  0.00    +0.000 A 
ATOM     14  C   UNL     1       0.747   3.057  19.523  0.00  0.00    +0.000 A 
ATOM     15  C   UNL     1       1.084   2.883  20.859  0.00  0.00    +0.000 A 
ATOM     16  C   UNL     1       2.135   3.614  21.409  0.00  0.00    +0.000 A 
ATOM     17  C   UNL     1       2.839   4.538  20.631  0.00  0.00    +0.000 A 
ENDBRANCH   5  12
BRANCH   1  18
ATOM     18  C   UNL     1       4.999   4.064  17.205  0.00  0.00    +0.000 C 
BRANCH  18  20
ATOM     19  N   UNL     1       7.441   4.777  16.080  0.00  0.00    +0.000 NA
ATOM     20  C   UNL     1       6.334   4.454  16.590  0.00  0.00    +0.000 C 
ENDBRANCH  18  20
ENDBRANCH   1  18
TORSDOF 4
ENDMDL
MODEL 8
REMARK VINA RESULT:      -7.3      3.562      5.917
REMARK  Name = 
REMARK  4 active torsions:
REMARK  status: ('A' for Active; 'I' for Inactive)
REMARK    1  A    between atoms: C_2  and  C_3
REMARK    2  A    between atoms: C_3  and  C_4
REMARK    3  A    between atoms: C_7  and  C_8
REMARK    4  A    between atoms: C_14  and  C_15
REMARK                            x       y       z     vdW  Elec       q    Type
REMARK                         _______ _______ _______ _____ _____    ______ ____
ROOT
ATOM      1  C   UNL     1       2.040   3.051  18.852  0.00  0.00    +0.000 A 
ATOM      2  O   UNL     1       2.472   1.894  18.279  0.00  0.00    +0.000 OA
ATOM      3  N   UNL     1       3.597   2.138  17.519  0.00  0.00    +0.000 NA
ATOM      4  C   UNL     1       3.888   3.431  17.707  0.00  0.00    +0.000 A 
ATOM      5  C   UNL     1       2.880   4.086  18.476  0.00  0.00    +0.000 A 
ENDROOT
BRANCH   4   6
ATOM      6  C   UNL     1       5.125   4.055  17.157  0.00  0.00    +0.000 A 
ATOM      7  C   UNL     1       6.109   4.705  17.878  0.00  0.00    +0.000 A 
ATOM      8  C   UNL     1       7.080   5.133  16.937  0.00  0.00    +0.000 A 
ATOM      9  C   UNL     1       6.615   4.759  15.698  0.00  0.00    +0.000 A 
ATOM     10 CL   UNL     1       7.343   5.098  14.179  0.00  0.00    +0.000 Cl
ATOM     11  O   UNL     1       5.459   4.057  15.833  0.00  0.00    +0.000 OA
ENDBRANCH   4   6
BRANCH   5  12
ATOM     12  C   UNL     1       2.642   5.503  18.702  0.00  0.00    +0.000 A 
ATOM     13  C   UNL     1       2.714   6.390  17.615  0.00  0.00    +0.000 A 
ATOM     14  C   UNL     1       2.492   7.758  17.784  0.00  0.00    +0.000 A 
ATOM     15  C   UNL     1       2.152   8.252  19.037  0.00  0.00    +0.000 A 
ATOM     16  C   UNL     1       2.048   7.381  20.119  0.00  0.00    +0.000 A 
ATOM     17  C   UNL     1       2.305   6.017  19.959  0.00  0.00    +0.000 A 
ENDBRANCH   5  12
BRANCH   1  18
ATOM     18  C   UNL     1       0.815   2.929  19.675  0.00  0.00    +0.000 C 
BRANCH  18  20
ATOM     19  N   UNL     1       1.544   2.575  22.336  0.00  0.00    +0.000 NA
ATOM     20  C   UNL     1       1.214   2.735  21.130  0.00  0.00    +0.000 C 
ENDBRANCH  18  20
ENDBRANCH   1  18
TORSDOF 4
ENDMDL
MODEL 9
REMARK VINA RESULT:      -7.3      3.563      5.863
REMARK  Name = 
REMARK  4 active torsions:
REMARK  status: ('A' for Active; 'I' for Inactive)
REMARK    1  A    between atoms: C_2  and  C_3
REMARK    2  A    between atoms: C_3  and  C_4
REMARK    3  A    between atoms: C_7  and  C_8
REMARK    4  A    between atoms: C_14  and  C_15
REMARK                            x       y       z     vdW  Elec       q    Type
REMARK                         _______ _______ _______ _____ _____    ______ ____
ROOT
ATOM      1  C   UNL     1       2.039   3.104  18.867  0.00  0.00    +0.000 A 
ATOM      2  O   UNL     1       2.482   1.931  18.338  0.00  0.00    +0.000 OA
ATOM      3  N   UNL     1       3.608   2.155  17.576  0.00  0.00    +0.000 NA
ATOM      4  C   UNL     1       3.889   3.457  17.719  0.00  0.00    +0.000 A 
ATOM      5  C   UNL     1       2.872   4.131  18.459  0.00  0.00    +0.000 A 
ENDROOT
BRANCH   4   6
ATOM      6  C   UNL     1       5.125   4.070  17.153  0.00  0.00    +0.000 A 
ATOM      7  C   UNL     1       6.121   4.715  17.861  0.00  0.00    +0.000 A 
ATOM      8  C   UNL     1       7.085   5.132  16.907  0.00  0.00    +0.000 A 
ATOM      9  C   UNL     1       6.604   4.758  15.675  0.00  0.00    +0.000 A 
ATOM     10 CL   UNL     1       7.317   5.087  14.147  0.00  0.00    +0.000 Cl
ATOM     11  O   UNL     1       5.444   4.065  15.825  0.00  0.00    +0.000 OA
ENDBRANCH   4   6
BRANCH   5  12
ATOM     12  C   UNL     1       2.624   5.554  18.634  0.00  0.00    +0.000 A 
ATOM     13  C   UNL     1       2.271   6.035  19.905  0.00  0.00    +0.000 A 
ATOM     14  C   UNL     1       2.025   7.392  20.119  0.00  0.00    +0.000 A 
ATOM     15  C   UNL     1       2.171   8.294  19.072  0.00  0.00    +0.000 A 
ATOM     16  C   UNL     1       2.549   7.836  17.813  0.00  0.00    +0.000 A 
ATOM     17  C   UNL     1       2.761   6.473  17.587  0.00  0.00    +0.000 A 
ENDBRANCH   5  12
BRANCH   1  18
ATOM     18  C   UNL     1       0.810   3.002  19.689  0.00  0.00    +0.000 C 
BRANCH  18  20
ATOM     19  N   UNL     1       1.528   2.552  22.338  0.00  0.00    +0.000 NA
ATOM     20  C   UNL     1       1.202   2.756  21.137  0.00  0.00    +0.000 C 
ENDBRANCH  18  20
ENDBRANCH   1  18
TORSDOF 4
ENDMDL
