MODEL 1
REMARK VINA RESULT:      -7.4      0.000      0.000
REMARK  Name = 
REMARK  8 active torsions:
REMARK  status: ('A' for Active; 'I' for Inactive)
REMARK    1  A    between atoms: C_1  and  C_2
REMARK    2  A    between atoms: C_2  and  C_3
REMARK    3  A    between atoms: C_3  and  N_4
REMARK    4  A    between atoms: N_4  and  C_5
REMARK    5  A    between atoms: C_6  and  N_7
REMARK    6  A    between atoms: N_20  and  C_21
REMARK    7  A    between atoms: C_21  and  C_22
REMARK    8  A    between atoms: C_22  and  C_23
REMARK                            x       y       z     vdW  Elec       q    Type
REMARK                         _______ _______ _______ _____ _____    ______ ____
ROOT
ATOM      1  C   UNL     1       1.556   8.020  19.765  0.00  0.00    +0.000 A 
ATOM      2  C   UNL     1       2.026   8.683  18.603  0.00  0.00    +0.000 A 
ATOM      3  C   UNL     1       2.945   8.114  17.714  0.00  0.00    +0.000 A 
ATOM      4  C   UNL     1       3.421   6.826  17.960  0.00  0.00    +0.000 A 
ATOM      5  C   UNL     1       2.962   6.090  19.056  0.00  0.00    +0.000 A 
ATOM      6  C   UNL     1       3.444   4.784  19.266  0.00  0.00    +0.000 A 
ATOM      7  C   UNL     1       3.018   4.009  20.348  0.00  0.00    +0.000 A 
ATOM      8  C   UNL     1       2.051   4.503  21.194  0.00  0.00    +0.000 A 
ATOM      9  C   UNL     1       1.529   5.772  20.959  0.00  0.00    +0.000 A 
ATOM     10  C   UNL     1       1.999   6.651  19.950  0.00  0.00    +0.000 A 
ATOM     11  C   UNL     1       4.398   4.164  18.321  0.00  0.00    +0.000 C 
ATOM     12  O   UNL     1       4.678   2.976  18.459  0.00  0.00    +0.000 OA
ATOM     13  N   UNL     1       4.892   4.968  17.303  0.00  0.00    +0.000 N 
ATOM     14  C   UNL     1       4.412   6.243  17.019  0.00  0.00    +0.000 C 
ATOM     15  O   UNL     1       4.747   6.896  16.034  0.00  0.00    +0.000 OA
ENDROOT
BRANCH   2  16
ATOM     16  N   UNL     1       1.595  10.034  18.284  0.00  0.00    +0.000 N 
ATOM     17  O   UNL     1       2.469  10.855  17.974  0.00  0.00    +0.000 OA
ATOM     18  O   UNL     1       0.381  10.267  18.348  0.00  0.00    +0.000 OA
ENDBRANCH   2  16
BRANCH   1  19
ATOM     19  N   UNL     1       0.698   8.692  20.663  0.00  0.00    +0.000 N 
ATOM     20  H   UNL     1      -0.106   9.164  20.249  0.00  0.00    +0.000 HD
BRANCH  19  21
ATOM     21  C   UNL     1       1.183   9.325  21.884  0.00  0.00    +0.000 C 
BRANCH  21  23
ATOM     22  C   UNL     1      -0.743  10.581  22.817  0.00  0.00    +0.000 C 
ATOM     23  C   UNL     1       0.148   9.356  23.001  0.00  0.00    +0.000 C 
ENDBRANCH  21  23
ENDBRANCH  19  21
ENDBRANCH   1  19
BRANCH  13  24
ATOM     24  C   UNL     1       5.845   4.363  16.370  0.00  0.00    +0.000 C 
BRANCH  24  25
ATOM     25  C   UNL     1       7.314   4.558  16.761  0.00  0.00    +0.000 C 
ATOM     26  C   UNL     1       7.498   5.275  18.090  0.00  0.00    +0.000 C 
ENDBRANCH  24  25
ENDBRANCH  13  24
TORSDOF 6
ENDMDL
MODEL 2
REMARK VINA RESULT:      -7.4      0.585      1.041
REMARK  Name = 
REMARK  8 active torsions:
REMARK  status: ('A' for Active; 'I' for Inactive)
REMARK    1  A    between atoms: C_1  and  C_2
REMARK    2  A    between atoms: C_2  and  C_3
REMARK    3  A    between atoms: C_3  and  N_4
REMARK    4  A    between atoms: N_4  and  C_5
REMARK    5  A    between atoms: C_6  and  N_7
REMARK    6  A    between atoms: N_20  and  C_21
REMARK    7  A    between atoms: C_21  and  C_22
REMARK    8  A    between atoms: C_22  and  C_23
REMARK                            x       y       z     vdW  Elec       q    Type
REMARK                         _______ _______ _______ _____ _____    ______ ____
ROOT
ATOM      1  C   UNL     1       1.545   8.072  19.716  0.00  0.00    +0.000 A 
ATOM      2  C   UNL     1       2.022   8.751  18.565  0.00  0.00    +0.000 A 
ATOM      3  C   UNL     1       2.981   8.213  17.699  0.00  0.00    +0.000 A 
ATOM      4  C   UNL     1       3.495   6.943  17.958  0.00  0.00    +0.000 A 
ATOM      5  C   UNL     1       3.034   6.192  19.044  0.00  0.00    +0.000 A 
ATOM      6  C   UNL     1       3.556   4.903  19.268  0.00  0.00    +0.000 A 
ATOM      7  C   UNL     1       3.131   4.115  20.340  0.00  0.00    +0.000 A 
ATOM      8  C   UNL     1       2.126   4.576  21.161  0.00  0.00    +0.000 A 
ATOM      9  C   UNL     1       1.567   5.826  20.912  0.00  0.00    +0.000 A 
ATOM     10  C   UNL     1       2.031   6.720  19.914  0.00  0.00    +0.000 A 
ATOM     11  C   UNL     1       4.553   4.317  18.347  0.00  0.00    +0.000 C 
ATOM     12  O   UNL     1       4.872   3.139  18.494  0.00  0.00    +0.000 OA
ATOM     13  N   UNL     1       5.045   5.137  17.340  0.00  0.00    +0.000 N 
ATOM     14  C   UNL     1       4.528   6.394  17.043  0.00  0.00    +0.000 C 
ATOM     15  O   UNL     1       4.865   7.058  16.066  0.00  0.00    +0.000 OA
ENDROOT
BRANCH   2  16
ATOM     16  N   UNL     1       1.552  10.086  18.233  0.00  0.00    +0.000 N 
ATOM     17  O   UNL     1       2.405  10.943  17.969  0.00  0.00    +0.000 OA
ATOM     18  O   UNL     1       0.328  10.271  18.242  0.00  0.00    +0.000 OA
ENDBRANCH   2  16
BRANCH   1  19
ATOM     19  N   UNL     1       0.643   8.715  20.591  0.00  0.00    +0.000 N 
ATOM     20  H   UNL     1      -0.184   9.129  20.161  0.00  0.00    +0.000 HD
BRANCH  19  21
ATOM     21  C   UNL     1       1.081   9.406  21.798  0.00  0.00    +0.000 C 
BRANCH  21  23
ATOM     22  C   UNL     1      -0.806  10.537  22.944  0.00  0.00    +0.000 C 
ATOM     23  C   UNL     1       0.089   9.302  22.949  0.00  0.00    +0.000 C 
ENDBRANCH  21  23
ENDBRANCH  19  21
ENDBRANCH   1  19
BRANCH  13  24
ATOM     24  C   UNL     1       6.041   4.564  16.432  0.00  0.00    +0.000 C 
BRANCH  24  25
ATOM     25  C   UNL     1       5.446   3.922  15.174  0.00  0.00    +0.000 C 
ATOM     26  C   UNL     1       6.285   4.142  13.925  0.00  0.00    +0.000 C 
ENDBRANCH  24  25
ENDBRANCH  13  24
TORSDOF 6
ENDMDL
MODEL 3
REMARK VINA RESULT:      -7.3      2.539      6.740
REMARK  Name = 
REMARK  8 active torsions:
REMARK  status: ('A' for Active; 'I' for Inactive)
REMARK    1  A    between atoms: C_1  and  C_2
REMARK    2  A    between atoms: C_2  and  C_3
REMARK    3  A    between atoms: C_3  and  N_4
REMARK    4  A    between atoms: N_4  and  C_5
REMARK    5  A    between atoms: C_6  and  N_7
REMARK    6  A    between atoms: N_20  and  C_21
REMARK    7  A    between atoms: C_21  and  C_22
REMARK    8  A    between atoms: C_22  and  C_23
REMARK                            x       y       z     vdW  Elec       q    Type
REMARK                         _______ _______ _______ _____ _____    ______ ____
ROOT
ATOM      1  C   UNL     1       3.391   4.009  19.568  0.00  0.00    +0.000 A 
ATOM      2  C   UNL     1       2.472   4.159  20.639  0.00  0.00    +0.000 A 
ATOM      3  C   UNL     1       1.795   5.354  20.907  0.00  0.00    +0.000 A 
ATOM      4  C   UNL     1       2.012   6.458  20.083  0.00  0.00    +0.000 A 
ATOM      5  C   UNL     1       2.863   6.370  18.976  0.00  0.00    +0.000 A 
ATOM      6  C   UNL     1       3.045   7.494  18.149  0.00  0.00    +0.000 A 
ATOM      7  C   UNL     1       3.885   7.458  17.034  0.00  0.00    +0.000 A 
ATOM      8  C   UNL     1       4.500   6.275  16.690  0.00  0.00    +0.000 A 
ATOM      9  C   UNL     1       4.280   5.144  17.472  0.00  0.00    +0.000 A 
ATOM     10  C   UNL     1       3.532   5.144  18.677  0.00  0.00    +0.000 A 
ATOM     11  C   UNL     1       2.317   8.756  18.410  0.00  0.00    +0.000 C 
ATOM     12  O   UNL     1       2.391   9.662  17.583  0.00  0.00    +0.000 OA
ATOM     13  N   UNL     1       1.559   8.821  19.571  0.00  0.00    +0.000 N 
ATOM     14  C   UNL     1       1.303   7.727  20.392  0.00  0.00    +0.000 C 
ATOM     15  O   UNL     1       0.518   7.749  21.337  0.00  0.00    +0.000 OA
ENDROOT
BRANCH   2  16
ATOM     16  N   UNL     1       2.204   3.064  21.556  0.00  0.00    +0.000 N 
ATOM     17  O   UNL     1       3.178   2.466  22.033  0.00  0.00    +0.000 OA
ATOM     18  O   UNL     1       1.016   2.806  21.793  0.00  0.00    +0.000 OA
ENDBRANCH   2  16
BRANCH   1  19
ATOM     19  N   UNL     1       4.103   2.799  19.414  0.00  0.00    +0.000 N 
ATOM     20  H   UNL     1       5.120   2.875  19.397  0.00  0.00    +0.000 HD
BRANCH  19  21
ATOM     21  C   UNL     1       3.586   1.681  18.635  0.00  0.00    +0.000 C 
BRANCH  21  23
ATOM     22  C   UNL     1       1.119   1.853  18.437  0.00  0.00    +0.000 C 
ATOM     23  C   UNL     1       2.441   2.067  17.708  0.00  0.00    +0.000 C 
ENDBRANCH  21  23
ENDBRANCH  19  21
ENDBRANCH   1  19
BRANCH  13  24
ATOM     24  C   UNL     1       0.845  10.071  19.840  0.00  0.00    +0.000 C 
BRANCH  24  25
ATOM     25  C   UNL     1      -0.527  10.166  19.164  0.00  0.00    +0.000 C 
ATOM     26  C   UNL     1      -0.829  11.544  18.596  0.00  0.00    +0.000 C 
ENDBRANCH  24  25
ENDBRANCH  13  24
TORSDOF 6
ENDMDL
MODEL 4
REMARK VINA RESULT:      -7.1      3.097      6.303
REMARK  Name = 
REMARK  8 active torsions:
REMARK  status: ('A' for Active; 'I' for Inactive)
REMARK    1  A    between atoms: C_1  and  C_2
REMARK    2  A    between atoms: C_2  and  C_3
REMARK    3  A    between atoms: C_3  and  N_4
REMARK    4  A    between atoms: N_4  and  C_5
REMARK    5  A    between atoms: C_6  and  N_7
REMARK    6  A    between atoms: N_20  and  C_21
REMARK    7  A    between atoms: C_21  and  C_22
REMARK    8  A    between atoms: C_22  and  C_23
REMARK                            x       y       z     vdW  Elec       q    Type
REMARK                         _______ _______ _______ _____ _____    ______ ____
ROOT
ATOM      1  C   UNL     1       5.949   6.323  17.372  0.00  0.00    +0.000 A 
ATOM      2  C   UNL     1       6.391   5.004  17.649  0.00  0.00    +0.000 A 
ATOM      3  C   UNL     1       5.675   4.107  18.451  0.00  0.00    +0.000 A 
ATOM      4  C   UNL     1       4.459   4.510  19.002  0.00  0.00    +0.000 A 
ATOM      5  C   UNL     1       3.933   5.777  18.730  0.00  0.00    +0.000 A 
ATOM      6  C   UNL     1       2.692   6.146  19.282  0.00  0.00    +0.000 A 
ATOM      7  C   UNL     1       2.126   7.401  19.043  0.00  0.00    +0.000 A 
ATOM      8  C   UNL     1       2.760   8.276  18.189  0.00  0.00    +0.000 A 
ATOM      9  C   UNL     1       3.960   7.895  17.595  0.00  0.00    +0.000 A 
ATOM     10  C   UNL     1       4.642   6.685  17.885  0.00  0.00    +0.000 A 
ATOM     11  C   UNL     1       1.918   5.199  20.113  0.00  0.00    +0.000 C 
ATOM     12  O   UNL     1       0.777   5.508  20.452  0.00  0.00    +0.000 OA
ATOM     13  N   UNL     1       2.524   3.991  20.429  0.00  0.00    +0.000 N 
ATOM     14  C   UNL     1       3.721   3.555  19.869  0.00  0.00    +0.000 C 
ATOM     15  O   UNL     1       4.184   2.430  20.037  0.00  0.00    +0.000 OA
ENDROOT
BRANCH   2  16
ATOM     16  N   UNL     1       7.656   4.512  17.129  0.00  0.00    +0.000 N 
ATOM     17  O   UNL     1       8.488   4.097  17.947  0.00  0.00    +0.000 OA
ATOM     18  O   UNL     1       7.812   4.547  15.901  0.00  0.00    +0.000 OA
ENDBRANCH   2  16
BRANCH   1  19
ATOM     19  N   UNL     1       6.768   7.200  16.628  0.00  0.00    +0.000 N 
ATOM     20  H   UNL     1       6.859   6.995  15.632  0.00  0.00    +0.000 HD
BRANCH  19  21
ATOM     21  C   UNL     1       7.939   7.852  17.200  0.00  0.00    +0.000 C 
BRANCH  21  23
ATOM     22  C   UNL     1       8.842   9.717  18.565  0.00  0.00    +0.000 C 
ATOM     23  C   UNL     1       7.654   9.252  17.729  0.00  0.00    +0.000 C 
ENDBRANCH  21  23
ENDBRANCH  19  21
ENDBRANCH   1  19
BRANCH  13  24
ATOM     24  C   UNL     1       1.766   3.054  21.260  0.00  0.00    +0.000 C 
BRANCH  24  25
ATOM     25  C   UNL     1       0.946   2.033  20.464  0.00  0.00    +0.000 C 
ATOM     26  C   UNL     1       0.776   2.402  18.998  0.00  0.00    +0.000 C 
ENDBRANCH  24  25
ENDBRANCH  13  24
TORSDOF 6
ENDMDL
MODEL 5
REMARK VINA RESULT:      -7.0      1.870      6.154
REMARK  Name = 
REMARK  8 active torsions:
REMARK  status: ('A' for Active; 'I' for Inactive)
REMARK    1  A    between atoms: C_1  and  C_2
REMARK    2  A    between atoms: C_2  and  C_3
REMARK    3  A    between atoms: C_3  and  N_4
REMARK    4  A    between atoms: N_4  and  C_5
REMARK    5  A    between atoms: C_6  and  N_7
REMARK    6  A    between atoms: N_20  and  C_21
REMARK    7  A    between atoms: C_21  and  C_22
REMARK    8  A    between atoms: C_22  and  C_23
REMARK                            x       y       z     vdW  Elec       q    Type
REMARK                         _______ _______ _______ _____ _____    ______ ____
ROOT
ATOM      1  C   UNL     1       4.291   5.527  17.995  0.00  0.00    +0.000 A 
ATOM      2  C   UNL     1       4.492   6.633  17.129  0.00  0.00    +0.000 A 
ATOM      3  C   UNL     1       3.770   7.828  17.230  0.00  0.00    +0.000 A 
ATOM      4  C   UNL     1       2.811   7.960  18.234  0.00  0.00    +0.000 A 
ATOM      5  C   UNL     1       2.595   6.933  19.158  0.00  0.00    +0.000 A 
ATOM      6  C   UNL     1       1.637   7.105  20.175  0.00  0.00    +0.000 A 
ATOM      7  C   UNL     1       1.382   6.108  21.120  0.00  0.00    +0.000 A 
ATOM      8  C   UNL     1       2.134   4.955  21.105  0.00  0.00    +0.000 A 
ATOM      9  C   UNL     1       3.122   4.802  20.136  0.00  0.00    +0.000 A 
ATOM     10  C   UNL     1       3.351   5.723  19.082  0.00  0.00    +0.000 A 
ATOM     11  C   UNL     1       0.884   8.371  20.304  0.00  0.00    +0.000 C 
ATOM     12  O   UNL     1       0.166   8.534  21.289  0.00  0.00    +0.000 OA
ATOM     13  N   UNL     1       1.068   9.321  19.309  0.00  0.00    +0.000 N 
ATOM     14  C   UNL     1       2.037   9.226  18.316  0.00  0.00    +0.000 C 
ATOM     15  O   UNL     1       2.297  10.129  17.524  0.00  0.00    +0.000 OA
ENDROOT
BRANCH   2  16
ATOM     16  N   UNL     1       5.457   6.570  16.045  0.00  0.00    +0.000 N 
ATOM     17  O   UNL     1       6.619   6.249  16.331  0.00  0.00    +0.000 OA
ATOM     18  O   UNL     1       5.048   6.845  14.909  0.00  0.00    +0.000 OA
ENDBRANCH   2  16
BRANCH   1  19
ATOM     19  N   UNL     1       4.994   4.323  17.776  0.00  0.00    +0.000 N 
ATOM     20  H   UNL     1       6.008   4.401  17.699  0.00  0.00    +0.000 HD
BRANCH  19  21
ATOM     21  C   UNL     1       4.433   3.217  17.010  0.00  0.00    +0.000 C 
BRANCH  21  23
ATOM     22  C   UNL     1       2.244   2.311  17.749  0.00  0.00    +0.000 C 
ATOM     23  C   UNL     1       3.757   2.162  17.876  0.00  0.00    +0.000 C 
ENDBRANCH  21  23
ENDBRANCH  19  21
ENDBRANCH   1  19
BRANCH  13  24
ATOM     24  C   UNL     1       0.317  10.573  19.426  0.00  0.00    +0.000 C 
BRANCH  24  25
ATOM     25  C   UNL     1      -1.165  10.452  19.053  0.00  0.00    +0.000 C 
ATOM     26  C   UNL     1      -1.397  10.135  17.584  0.00  0.00    +0.000 C 
ENDBRANCH  24  25
ENDBRANCH  13  24
TORSDOF 6
ENDMDL
MODEL 6
REMARK VINA RESULT:      -6.9      3.261      6.225
REMARK  Name = 
REMARK  8 active torsions:
REMARK  status: ('A' for Active; 'I' for Inactive)
REMARK    1  A    between atoms: C_1  and  C_2
REMARK    2  A    between atoms: C_2  and  C_3
REMARK    3  A    between atoms: C_3  and  N_4
REMARK    4  A    between atoms: N_4  and  C_5
REMARK    5  A    between atoms: C_6  and  N_7
REMARK    6  A    between atoms: N_20  and  C_21
REMARK    7  A    between atoms: C_21  and  C_22
REMARK    8  A    between atoms: C_22  and  C_23
REMARK                            x       y       z     vdW  Elec       q    Type
REMARK                         _______ _______ _______ _____ _____    ______ ____
ROOT
ATOM      1  C   UNL     1       5.834   6.257  17.272  0.00  0.00    +0.000 A 
ATOM      2  C   UNL     1       6.260   4.904  17.299  0.00  0.00    +0.000 A 
ATOM      3  C   UNL     1       5.486   3.867  17.832  0.00  0.00    +0.000 A 
ATOM      4  C   UNL     1       4.227   4.158  18.355  0.00  0.00    +0.000 A 
ATOM      5  C   UNL     1       3.718   5.460  18.315  0.00  0.00    +0.000 A 
ATOM      6  C   UNL     1       2.433   5.719  18.830  0.00  0.00    +0.000 A 
ATOM      7  C   UNL     1       1.881   7.002  18.815  0.00  0.00    +0.000 A 
ATOM      8  C   UNL     1       2.577   8.030  18.220  0.00  0.00    +0.000 A 
ATOM      9  C   UNL     1       3.824   7.769  17.659  0.00  0.00    +0.000 A 
ATOM     10  C   UNL     1       4.487   6.518  17.742  0.00  0.00    +0.000 A 
ATOM     11  C   UNL     1       1.598   4.627  19.376  0.00  0.00    +0.000 C 
ATOM     12  O   UNL     1       0.432   4.870  19.678  0.00  0.00    +0.000 OA
ATOM     13  N   UNL     1       2.184   3.372  19.478  0.00  0.00    +0.000 N 
ATOM     14  C   UNL     1       3.426   3.051  18.938  0.00  0.00    +0.000 C 
ATOM     15  O   UNL     1       3.880   1.910  18.901  0.00  0.00    +0.000 OA
ENDROOT
BRANCH   2  16
ATOM     16  N   UNL     1       7.567   4.519  16.792  0.00  0.00    +0.000 N 
ATOM     17  O   UNL     1       8.402   4.114  17.612  0.00  0.00    +0.000 OA
ATOM     18  O   UNL     1       7.752   4.626  15.573  0.00  0.00    +0.000 OA
ENDBRANCH   2  16
BRANCH   1  19
ATOM     19  N   UNL     1       6.706   7.262  16.799  0.00  0.00    +0.000 N 
ATOM     20  H   UNL     1       6.870   7.279  15.792  0.00  0.00    +0.000 HD
BRANCH  19  21
ATOM     21  C   UNL     1       7.834   7.752  17.583  0.00  0.00    +0.000 C 
BRANCH  21  23
ATOM     22  C   UNL     1       8.924   9.660  18.734  0.00  0.00    +0.000 C 
ATOM     23  C   UNL     1       7.882   9.271  17.691  0.00  0.00    +0.000 C 
ENDBRANCH  21  23
ENDBRANCH  19  21
ENDBRANCH   1  19
BRANCH  13  24
ATOM     24  C   UNL     1       1.366   2.290  20.027  0.00  0.00    +0.000 C 
BRANCH  24  25
ATOM     25  C   UNL     1       1.368   2.218  21.558  0.00  0.00    +0.000 C 
ATOM     26  C   UNL     1       2.274   3.250  22.213  0.00  0.00    +0.000 C 
ENDBRANCH  24  25
ENDBRANCH  13  24
TORSDOF 6
ENDMDL
MODEL 7
REMARK VINA RESULT:      -6.9      2.350      6.768
REMARK  Name = 
REMARK  8 active torsions:
REMARK  status: ('A' for Active; 'I' for Inactive)
REMARK    1  A    between atoms: C_1  and  C_2
REMARK    2  A    between atoms: C_2  and  C_3
REMARK    3  A    between atoms: C_3  and  N_4
REMARK    4  A    between atoms: N_4  and  C_5
REMARK    5  A    between atoms: C_6  and  N_7
REMARK    6  A    between atoms: N_20  and  C_21
REMARK    7  A    between atoms: C_21  and  C_22
REMARK    8  A    between atoms: C_22  and  C_23
REMARK                            x       y       z     vdW  Elec       q    Type
REMARK                         _______ _______ _______ _____ _____    ______ ____
ROOT
ATOM      1  C   UNL     1       3.352   4.118  19.597  0.00  0.00    +0.000 A 
ATOM      2  C   UNL     1       2.400   4.236  20.642  0.00  0.00    +0.000 A 
ATOM      3  C   UNL     1       1.678   5.408  20.894  0.00  0.00    +0.000 A 
ATOM      4  C   UNL     1       1.884   6.522  20.080  0.00  0.00    +0.000 A 
ATOM      5  C   UNL     1       2.767   6.464  18.997  0.00  0.00    +0.000 A 
ATOM      6  C   UNL     1       2.937   7.597  18.179  0.00  0.00    +0.000 A 
ATOM      7  C   UNL     1       3.810   7.591  17.088  0.00  0.00    +0.000 A 
ATOM      8  C   UNL     1       4.470   6.428  16.758  0.00  0.00    +0.000 A 
ATOM      9  C   UNL     1       4.264   5.288  17.530  0.00  0.00    +0.000 A 
ATOM     10  C   UNL     1       3.483   5.260  18.713  0.00  0.00    +0.000 A 
ATOM     11  C   UNL     1       2.164   8.834  18.423  0.00  0.00    +0.000 C 
ATOM     12  O   UNL     1       2.233   9.745  17.601  0.00  0.00    +0.000 OA
ATOM     13  N   UNL     1       1.371   8.871  19.562  0.00  0.00    +0.000 N 
ATOM     14  C   UNL     1       1.127   7.766  20.372  0.00  0.00    +0.000 C 
ATOM     15  O   UNL     1       0.315   7.761  21.295  0.00  0.00    +0.000 OA
ENDROOT
BRANCH   2  16
ATOM     16  N   UNL     1       2.140   3.129  21.548  0.00  0.00    +0.000 N 
ATOM     17  O   UNL     1       0.958   2.818  21.747  0.00  0.00    +0.000 OA
ATOM     18  O   UNL     1       3.123   2.578  22.060  0.00  0.00    +0.000 OA
ENDBRANCH   2  16
BRANCH   1  19
ATOM     19  N   UNL     1       4.106   2.932  19.460  0.00  0.00    +0.000 N 
ATOM     20  H   UNL     1       5.120   3.038  19.485  0.00  0.00    +0.000 HD
BRANCH  19  21
ATOM     21  C   UNL     1       3.655   1.808  18.649  0.00  0.00    +0.000 C 
BRANCH  21  23
ATOM     22  C   UNL     1       1.181   1.824  18.460  0.00  0.00    +0.000 C 
ATOM     23  C   UNL     1       2.483   2.151  17.737  0.00  0.00    +0.000 C 
ENDBRANCH  21  23
ENDBRANCH  19  21
ENDBRANCH   1  19
BRANCH  13  24
ATOM     24  C   UNL     1       0.612  10.097  19.814  0.00  0.00    +0.000 C 
BRANCH  24  25
ATOM     25  C   UNL     1       0.984  10.807  21.121  0.00  0.00    +0.000 C 
ATOM     26  C   UNL     1      -0.222  11.219  21.952  0.00  0.00    +0.000 C 
ENDBRANCH  24  25
ENDBRANCH  13  24
TORSDOF 6
ENDMDL
MODEL 8
REMARK VINA RESULT:      -6.6      4.994      9.657
REMARK  Name = 
REMARK  8 active torsions:
REMARK  status: ('A' for Active; 'I' for Inactive)
REMARK    1  A    between atoms: C_1  and  C_2
REMARK    2  A    between atoms: C_2  and  C_3
REMARK    3  A    between atoms: C_3  and  N_4
REMARK    4  A    between atoms: N_4  and  C_5
REMARK    5  A    between atoms: C_6  and  N_7
REMARK    6  A    between atoms: N_20  and  C_21
REMARK    7  A    between atoms: C_21  and  C_22
REMARK    8  A    between atoms: C_22  and  C_23
REMARK                            x       y       z     vdW  Elec       q    Type
REMARK                         _______ _______ _______ _____ _____    ______ ____
ROOT
ATOM      1  C   UNL     1      -0.461  11.035  18.737  0.00  0.00    +0.000 A 
ATOM      2  C   UNL     1      -0.553  11.704  19.984  0.00  0.00    +0.000 A 
ATOM      3  C   UNL     1      -1.736  12.284  20.458  0.00  0.00    +0.000 A 
ATOM      4  C   UNL     1      -2.893  12.197  19.684  0.00  0.00    +0.000 A 
ATOM      5  C   UNL     1      -2.892  11.506  18.469  0.00  0.00    +0.000 A 
ATOM      6  C   UNL     1      -4.081  11.415  17.721  0.00  0.00    +0.000 A 
ATOM      7  C   UNL     1      -4.131  10.739  16.499  0.00  0.00    +0.000 A 
ATOM      8  C   UNL     1      -3.010  10.083  16.044  0.00  0.00    +0.000 A 
ATOM      9  C   UNL     1      -1.845  10.121  16.807  0.00  0.00    +0.000 A 
ATOM     10  C   UNL     1      -1.697  10.883  17.994  0.00  0.00    +0.000 A 
ATOM     11  C   UNL     1      -5.341  12.006  18.222  0.00  0.00    +0.000 C 
ATOM     12  O   UNL     1      -6.384  11.778  17.612  0.00  0.00    +0.000 OA
ATOM     13  N   UNL     1      -5.269  12.759  19.386  0.00  0.00    +0.000 N 
ATOM     14  C   UNL     1      -4.135  12.836  20.190  0.00  0.00    +0.000 C 
ATOM     15  O   UNL     1      -4.113  13.382  21.290  0.00  0.00    +0.000 OA
ENDROOT
BRANCH   2  16
ATOM     16  N   UNL     1       0.611  11.856  20.841  0.00  0.00    +0.000 N 
ATOM     17  O   UNL     1       1.495  12.641  20.472  0.00  0.00    +0.000 OA
ATOM     18  O   UNL     1       0.635  11.186  21.882  0.00  0.00    +0.000 OA
ENDBRANCH   2  16
BRANCH   1  19
ATOM     19  N   UNL     1       0.787  10.553  18.285  0.00  0.00    +0.000 N 
ATOM     20  H   UNL     1       1.041  10.788  17.326  0.00  0.00    +0.000 HD
BRANCH  19  21
ATOM     21  C   UNL     1       1.351   9.290  18.746  0.00  0.00    +0.000 C 
BRANCH  21  23
ATOM     22  C   UNL     1       2.599   7.216  18.198  0.00  0.00    +0.000 C 
ATOM     23  C   UNL     1       2.266   8.627  17.723  0.00  0.00    +0.000 C 
ENDBRANCH  21  23
ENDBRANCH  19  21
ENDBRANCH   1  19
BRANCH  13  24
ATOM     24  C   UNL     1      -6.511  13.354  19.881  0.00  0.00    +0.000 C 
BRANCH  24  25
ATOM     25  C   UNL     1      -7.113  12.632  21.092  0.00  0.00    +0.000 C 
ATOM     26  C   UNL     1      -7.540  11.202  20.795  0.00  0.00    +0.000 C 
ENDBRANCH  24  25
ENDBRANCH  13  24
TORSDOF 6
ENDMDL
MODEL 9
REMARK VINA RESULT:      -6.6      1.900      6.075
REMARK  Name = 
REMARK  8 active torsions:
REMARK  status: ('A' for Active; 'I' for Inactive)
REMARK    1  A    between atoms: C_1  and  C_2
REMARK    2  A    between atoms: C_2  and  C_3
REMARK    3  A    between atoms: C_3  and  N_4
REMARK    4  A    between atoms: N_4  and  C_5
REMARK    5  A    between atoms: C_6  and  N_7
REMARK    6  A    between atoms: N_20  and  C_21
REMARK    7  A    between atoms: C_21  and  C_22
REMARK    8  A    between atoms: C_22  and  C_23
REMARK                            x       y       z     vdW  Elec       q    Type
REMARK                         _______ _______ _______ _____ _____    ______ ____
ROOT
ATOM      1  C   UNL     1       4.321   5.276  18.035  0.00  0.00    +0.000 A 
ATOM      2  C   UNL     1       4.569   6.345  17.135  0.00  0.00    +0.000 A 
ATOM      3  C   UNL     1       3.888   7.566  17.189  0.00  0.00    +0.000 A 
ATOM      4  C   UNL     1       2.925   7.765  18.178  0.00  0.00    +0.000 A 
ATOM      5  C   UNL     1       2.665   6.778  19.133  0.00  0.00    +0.000 A 
ATOM      6  C   UNL     1       1.704   7.016  20.134  0.00  0.00    +0.000 A 
ATOM      7  C   UNL     1       1.405   6.060  21.108  0.00  0.00    +0.000 A 
ATOM      8  C   UNL     1       2.117   4.881  21.139  0.00  0.00    +0.000 A 
ATOM      9  C   UNL     1       3.108   4.663  20.186  0.00  0.00    +0.000 A 
ATOM     10  C   UNL     1       3.379   5.540  19.105  0.00  0.00    +0.000 A 
ATOM     11  C   UNL     1       0.994   8.311  20.214  0.00  0.00    +0.000 C 
ATOM     12  O   UNL     1       0.274   8.531  21.185  0.00  0.00    +0.000 OA
ATOM     13  N   UNL     1       1.221   9.221  19.190  0.00  0.00    +0.000 N 
ATOM     14  C   UNL     1       2.196   9.059  18.210  0.00  0.00    +0.000 C 
ATOM     15  O   UNL     1       2.494   9.926  17.392  0.00  0.00    +0.000 OA
ENDROOT
BRANCH   2  16
ATOM     16  N   UNL     1       5.542   6.213  16.063  0.00  0.00    +0.000 N 
ATOM     17  O   UNL     1       6.641   6.760  16.219  0.00  0.00    +0.000 OA
ATOM     18  O   UNL     1       5.198   5.562  15.068  0.00  0.00    +0.000 OA
ENDBRANCH   2  16
BRANCH   1  19
ATOM     19  N   UNL     1       4.984   4.041  17.863  0.00  0.00    +0.000 N 
ATOM     20  H   UNL     1       6.000   4.082  17.782  0.00  0.00    +0.000 HD
BRANCH  19  21
ATOM     21  C   UNL     1       4.385   2.926  17.139  0.00  0.00    +0.000 C 
BRANCH  21  23
ATOM     22  C   UNL     1       2.149   2.169  17.901  0.00  0.00    +0.000 C 
ATOM     23  C   UNL     1       3.651   1.943  18.042  0.00  0.00    +0.000 C 
ENDBRANCH  21  23
ENDBRANCH  19  21
ENDBRANCH   1  19
BRANCH  13  24
ATOM     24  C   UNL     1       0.513  10.501  19.258  0.00  0.00    +0.000 C 
BRANCH  24  25
ATOM     25  C   UNL     1       1.175  11.534  20.176  0.00  0.00    +0.000 C 
ATOM     26  C   UNL     1       1.796  12.703  19.426  0.00  0.00    +0.000 C 
ENDBRANCH  24  25
ENDBRANCH  13  24
TORSDOF 6
ENDMDL
