MODEL 1
REMARK VINA RESULT:      -8.7      0.000      0.000
REMARK  Name = 
REMARK  10 active torsions:
REMARK  status: ('A' for Active; 'I' for Inactive)
REMARK    1  A    between atoms: C_1  and  C_2
REMARK    2  A    between atoms: C_2  and  C_3
REMARK    3  A    between atoms: C_2  and  C_4
REMARK    4  A    between atoms: C_4  and  N_5
REMARK    5  A    between atoms: N_5  and  C_6
REMARK    6  A    between atoms: C_10  and  C_11
REMARK    7  A    between atoms: C_13  and  C_14
REMARK    8  A    between atoms: C_17  and  O_18
REMARK    9  A    between atoms: O_18  and  C_19
REMARK   10  A    between atoms: C_22  and  C_23
REMARK                            x       y       z     vdW  Elec       q    Type
REMARK                         _______ _______ _______ _____ _____    ______ ____
ROOT
ATOM      1  C   UNL     1       4.528   5.016  16.485  0.00  0.00    +0.000 A 
ATOM      2  N   UNL     1       4.320   6.266  16.860  0.00  0.00    +0.000 NA
ATOM      3  C   UNL     1       3.331   6.140  17.806  0.00  0.00    +0.000 A 
ATOM      4  N   UNL     1       2.985   4.871  18.073  0.00  0.00    +0.000 NA
ATOM      5  O   UNL     1       3.769   4.126  17.198  0.00  0.00    +0.000 OA
ENDROOT
BRANCH   1  10
ATOM      6  C   UNL     1       6.837   4.787  15.312  0.00  0.00    +0.000 A 
ATOM      7  C   UNL     1       7.202   4.374  14.057  0.00  0.00    +0.000 A 
ATOM      8  N   UNL     1       6.051   3.982  13.438  0.00  0.00    +0.000 N 
ATOM      9  N   UNL     1       4.953   4.104  14.203  0.00  0.00    +0.000 NA
ATOM     10  C   UNL     1       5.423   4.616  15.350  0.00  0.00    +0.000 A 
ATOM     11  H   UNL     1       5.940   3.627  12.494  0.00  0.00    +0.000 HD
BRANCH   6  12
ATOM     12  N   UNL     1       7.638   5.246  16.298  0.00  0.00    +0.000 N 
ATOM     13  H   UNL     1       8.472   5.766  16.014  0.00  0.00    +0.000 HD
BRANCH  12  14
ATOM     14  C   UNL     1       7.765   4.571  17.581  0.00  0.00    +0.000 C 
BRANCH  14  16
ATOM     15  C   UNL     1       7.799   7.029  18.220  0.00  0.00    +0.000 C 
ATOM     16  C   UNL     1       7.721   5.589  18.734  0.00  0.00    +0.000 C 
ATOM     17  C   UNL     1       6.445   5.398  19.554  0.00  0.00    +0.000 C 
ENDBRANCH  14  16
ENDBRANCH  12  14
ENDBRANCH   6  12
ENDBRANCH   1  10
BRANCH   3  18
ATOM     18  C   UNL     1       2.662   7.299  18.386  0.00  0.00    +0.000 A 
ATOM     19  C   UNL     1       2.474   8.468  17.632  0.00  0.00    +0.000 A 
ATOM     20  C   UNL     1       1.741   9.539  18.154  0.00  0.00    +0.000 A 
ATOM     21  C   UNL     1       1.193   9.453  19.436  0.00  0.00    +0.000 A 
ATOM     22  C   UNL     1       1.447   8.327  20.221  0.00  0.00    +0.000 A 
ATOM     23  C   UNL     1       2.150   7.246  19.689  0.00  0.00    +0.000 A 
BRANCH  21  24
ATOM     24  O   UNL     1       0.461  10.537  19.861  0.00  0.00    +0.000 OA
BRANCH  24  25
ATOM     25  C   UNL     1      -0.791  10.765  19.331  0.00  0.00    +0.000 A 
ATOM     26  C   UNL     1      -1.518  11.805  19.914  0.00  0.00    +0.000 A 
ATOM     27  C   UNL     1      -2.795  12.124  19.442  0.00  0.00    +0.000 A 
ATOM     28  C   UNL     1      -3.361  11.404  18.381  0.00  0.00    +0.000 A 
ATOM     29  C   UNL     1      -2.617  10.373  17.789  0.00  0.00    +0.000 A 
ATOM     30  C   UNL     1      -1.329  10.078  18.240  0.00  0.00    +0.000 A 
BRANCH  28  31
ATOM     31  C   UNL     1      -4.735  11.731  17.850  0.00  0.00    +0.000 C 
ATOM     32  F   UNL     1      -5.341  12.763  18.500  0.00  0.00    +0.000 F 
ATOM     33  F   UNL     1      -4.710  12.083  16.533  0.00  0.00    +0.000 F 
ATOM     34  F   UNL     1      -5.594  10.677  17.937  0.00  0.00    +0.000 F 
ENDBRANCH  28  31
ENDBRANCH  24  25
ENDBRANCH  21  24
ENDBRANCH   3  18
TORSDOF 8
ENDMDL
MODEL 2
REMARK VINA RESULT:      -8.5      5.843     10.524
REMARK  Name = 
REMARK  10 active torsions:
REMARK  status: ('A' for Active; 'I' for Inactive)
REMARK    1  A    between atoms: C_1  and  C_2
REMARK    2  A    between atoms: C_2  and  C_3
REMARK    3  A    between atoms: C_2  and  C_4
REMARK    4  A    between atoms: C_4  and  N_5
REMARK    5  A    between atoms: N_5  and  C_6
REMARK    6  A    between atoms: C_10  and  C_11
REMARK    7  A    between atoms: C_13  and  C_14
REMARK    8  A    between atoms: C_17  and  O_18
REMARK    9  A    between atoms: O_18  and  C_19
REMARK   10  A    between atoms: C_22  and  C_23
REMARK                            x       y       z     vdW  Elec       q    Type
REMARK                         _______ _______ _______ _____ _____    ______ ____
ROOT
ATOM      1  C   UNL     1      -1.761  12.193  19.705  0.00  0.00    +0.000 A 
ATOM      2  N   UNL     1      -1.349  10.955  19.912  0.00  0.00    +0.000 NA
ATOM      3  C   UNL     1      -0.016  11.017  19.583  0.00  0.00    +0.000 A 
ATOM      4  N   UNL     1       0.413  12.247  19.260  0.00  0.00    +0.000 NA
ATOM      5  O   UNL     1      -0.739  13.026  19.333  0.00  0.00    +0.000 OA
ENDROOT
BRANCH   1  10
ATOM      6  C   UNL     1      -4.267  12.071  19.024  0.00  0.00    +0.000 A 
ATOM      7  C   UNL     1      -5.354  12.842  19.347  0.00  0.00    +0.000 A 
ATOM      8  N   UNL     1      -4.908  13.765  20.248  0.00  0.00    +0.000 N 
ATOM      9  N   UNL     1      -3.602  13.652  20.541  0.00  0.00    +0.000 NA
ATOM     10  C   UNL     1      -3.195  12.626  19.780  0.00  0.00    +0.000 A 
ATOM     11  H   UNL     1      -5.438  14.505  20.695  0.00  0.00    +0.000 HD
BRANCH   6  12
ATOM     12  N   UNL     1      -4.222  11.016  18.182  0.00  0.00    +0.000 N 
ATOM     13  H   UNL     1      -3.733  10.180  18.511  0.00  0.00    +0.000 HD
BRANCH  12  14
ATOM     14  C   UNL     1      -4.231  11.170  16.734  0.00  0.00    +0.000 C 
BRANCH  14  16
ATOM     15  C   UNL     1      -3.269  10.271  14.562  0.00  0.00    +0.000 C 
ATOM     16  C   UNL     1      -3.438  10.033  16.065  0.00  0.00    +0.000 C 
ATOM     17  C   UNL     1      -2.067   9.890  16.726  0.00  0.00    +0.000 C 
ENDBRANCH  14  16
ENDBRANCH  12  14
ENDBRANCH   6  12
ENDBRANCH   1  10
BRANCH   3  18
ATOM     18  C   UNL     1       0.819   9.824  19.506  0.00  0.00    +0.000 A 
ATOM     19  C   UNL     1       1.036   9.026  20.640  0.00  0.00    +0.000 A 
ATOM     20  C   UNL     1       1.750   7.828  20.539  0.00  0.00    +0.000 A 
ATOM     21  C   UNL     1       2.257   7.417  19.304  0.00  0.00    +0.000 A 
ATOM     22  C   UNL     1       2.116   8.246  18.190  0.00  0.00    +0.000 A 
ATOM     23  C   UNL     1       1.376   9.426  18.283  0.00  0.00    +0.000 A 
BRANCH  21  24
ATOM     24  O   UNL     1       2.919   6.212  19.287  0.00  0.00    +0.000 OA
BRANCH  24  25
ATOM     25  C   UNL     1       3.653   5.852  18.176  0.00  0.00    +0.000 A 
ATOM     26  C   UNL     1       3.532   4.521  17.773  0.00  0.00    +0.000 A 
ATOM     27  C   UNL     1       4.226   4.058  16.651  0.00  0.00    +0.000 A 
ATOM     28  C   UNL     1       5.053   4.923  15.920  0.00  0.00    +0.000 A 
ATOM     29  C   UNL     1       5.155   6.263  16.322  0.00  0.00    +0.000 A 
ATOM     30  C   UNL     1       4.434   6.731  17.422  0.00  0.00    +0.000 A 
BRANCH  28  31
ATOM     31  C   UNL     1       5.809   4.450  14.703  0.00  0.00    +0.000 C 
ATOM     32  F   UNL     1       6.729   5.345  14.247  0.00  0.00    +0.000 F 
ATOM     33  F   UNL     1       6.497   3.296  14.937  0.00  0.00    +0.000 F 
ATOM     34  F   UNL     1       4.988   4.186  13.648  0.00  0.00    +0.000 F 
ENDBRANCH  28  31
ENDBRANCH  24  25
ENDBRANCH  21  24
ENDBRANCH   3  18
TORSDOF 8
ENDMDL
MODEL 3
REMARK VINA RESULT:      -8.5      3.665      5.406
REMARK  Name = 
REMARK  10 active torsions:
REMARK  status: ('A' for Active; 'I' for Inactive)
REMARK    1  A    between atoms: C_1  and  C_2
REMARK    2  A    between atoms: C_2  and  C_3
REMARK    3  A    between atoms: C_2  and  C_4
REMARK    4  A    between atoms: C_4  and  N_5
REMARK    5  A    between atoms: N_5  and  C_6
REMARK    6  A    between atoms: C_10  and  C_11
REMARK    7  A    between atoms: C_13  and  C_14
REMARK    8  A    between atoms: C_17  and  O_18
REMARK    9  A    between atoms: O_18  and  C_19
REMARK   10  A    between atoms: C_22  and  C_23
REMARK                            x       y       z     vdW  Elec       q    Type
REMARK                         _______ _______ _______ _____ _____    ______ ____
ROOT
ATOM      1  C   UNL     1       2.322   7.966  18.538  0.00  0.00    +0.000 A 
ATOM      2  N   UNL     1       1.787   8.296  19.700  0.00  0.00    +0.000 NA
ATOM      3  C   UNL     1       1.121   9.463  19.410  0.00  0.00    +0.000 A 
ATOM      4  N   UNL     1       1.167   9.814  18.116  0.00  0.00    +0.000 NA
ATOM      5  O   UNL     1       1.965   8.831  17.537  0.00  0.00    +0.000 OA
ENDROOT
BRANCH   1  10
ATOM      6  C   UNL     1       3.518   5.780  19.278  0.00  0.00    +0.000 A 
ATOM      7  C   UNL     1       4.534   5.045  18.722  0.00  0.00    +0.000 A 
ATOM      8  N   UNL     1       4.834   5.651  17.537  0.00  0.00    +0.000 N 
ATOM      9  N   UNL     1       4.081   6.732  17.273  0.00  0.00    +0.000 NA
ATOM     10  C   UNL     1       3.282   6.830  18.346  0.00  0.00    +0.000 A 
ATOM     11  H   UNL     1       5.544   5.385  16.864  0.00  0.00    +0.000 HD
BRANCH   6  12
ATOM     12  N   UNL     1       2.876   5.555  20.445  0.00  0.00    +0.000 N 
ATOM     13  H   UNL     1       3.456   5.448  21.281  0.00  0.00    +0.000 HD
BRANCH  12  14
ATOM     14  C   UNL     1       1.599   4.860  20.514  0.00  0.00    +0.000 C 
BRANCH  14  16
ATOM     15  C   UNL     1       1.546   2.609  21.688  0.00  0.00    +0.000 C 
ATOM     16  C   UNL     1       1.801   3.342  20.368  0.00  0.00    +0.000 C 
ATOM     17  C   UNL     1       0.877   2.791  19.282  0.00  0.00    +0.000 C 
ENDBRANCH  14  16
ENDBRANCH  12  14
ENDBRANCH   6  12
ENDBRANCH   1  10
BRANCH   3  18
ATOM     18  C   UNL     1       0.508  10.283  20.449  0.00  0.00    +0.000 A 
ATOM     19  C   UNL     1       0.532  11.683  20.363  0.00  0.00    +0.000 A 
ATOM     20  C   UNL     1      -0.146  12.464  21.304  0.00  0.00    +0.000 A 
ATOM     21  C   UNL     1      -0.853  11.852  22.342  0.00  0.00    +0.000 A 
ATOM     22  C   UNL     1      -0.811  10.464  22.481  0.00  0.00    +0.000 A 
ATOM     23  C   UNL     1      -0.161   9.683  21.524  0.00  0.00    +0.000 A 
BRANCH  21  24
ATOM     24  O   UNL     1      -1.517  12.692  23.206  0.00  0.00    +0.000 OA
BRANCH  24  25
ATOM     25  C   UNL     1      -2.895  12.741  23.185  0.00  0.00    +0.000 A 
ATOM     26  C   UNL     1      -3.533  12.407  24.380  0.00  0.00    +0.000 A 
ATOM     27  C   UNL     1      -4.929  12.437  24.467  0.00  0.00    +0.000 A 
ATOM     28  C   UNL     1      -5.703  12.800  23.355  0.00  0.00    +0.000 A 
ATOM     29  C   UNL     1      -5.052  13.151  22.163  0.00  0.00    +0.000 A 
ATOM     30  C   UNL     1      -3.657  13.153  22.089  0.00  0.00    +0.000 A 
BRANCH  28  31
ATOM     31  C   UNL     1      -7.209  12.844  23.424  0.00  0.00    +0.000 C 
ATOM     32  F   UNL     1      -7.795  13.319  22.289  0.00  0.00    +0.000 F 
ATOM     33  F   UNL     1      -7.754  11.613  23.637  0.00  0.00    +0.000 F 
ATOM     34  F   UNL     1      -7.662  13.633  24.437  0.00  0.00    +0.000 F 
ENDBRANCH  28  31
ENDBRANCH  24  25
ENDBRANCH  21  24
ENDBRANCH   3  18
TORSDOF 8
ENDMDL
MODEL 4
REMARK VINA RESULT:      -8.3      5.539     10.237
REMARK  Name = 
REMARK  10 active torsions:
REMARK  status: ('A' for Active; 'I' for Inactive)
REMARK    1  A    between atoms: C_1  and  C_2
REMARK    2  A    between atoms: C_2  and  C_3
REMARK    3  A    between atoms: C_2  and  C_4
REMARK    4  A    between atoms: C_4  and  N_5
REMARK    5  A    between atoms: N_5  and  C_6
REMARK    6  A    between atoms: C_10  and  C_11
REMARK    7  A    between atoms: C_13  and  C_14
REMARK    8  A    between atoms: C_17  and  O_18
REMARK    9  A    between atoms: O_18  and  C_19
REMARK   10  A    between atoms: C_22  and  C_23
REMARK                            x       y       z     vdW  Elec       q    Type
REMARK                         _______ _______ _______ _____ _____    ______ ____
ROOT
ATOM      1  C   UNL     1       0.474   9.862  19.289  0.00  0.00    +0.000 A 
ATOM      2  N   UNL     1       1.196   9.119  18.470  0.00  0.00    +0.000 NA
ATOM      3  C   UNL     1       1.771   8.201  19.316  0.00  0.00    +0.000 A 
ATOM      4  N   UNL     1       1.374   8.308  20.594  0.00  0.00    +0.000 NA
ATOM      5  O   UNL     1       0.521   9.409  20.581  0.00  0.00    +0.000 OA
ENDROOT
BRANCH   1  10
ATOM      6  C   UNL     1      -0.307  12.318  19.633  0.00  0.00    +0.000 A 
ATOM      7  C   UNL     1      -1.146  13.133  18.917  0.00  0.00    +0.000 A 
ATOM      8  N   UNL     1      -1.517  12.419  17.815  0.00  0.00    +0.000 N 
ATOM      9  N   UNL     1      -0.975  11.190  17.755  0.00  0.00    +0.000 NA
ATOM     10  C   UNL     1      -0.246  11.112  18.877  0.00  0.00    +0.000 A 
ATOM     11  H   UNL     1      -2.140  12.704  17.068  0.00  0.00    +0.000 HD
BRANCH   6  12
ATOM     12  N   UNL     1       0.327  12.597  20.793  0.00  0.00    +0.000 N 
ATOM     13  H   UNL     1       1.274  12.229  20.904  0.00  0.00    +0.000 HD
BRANCH  12  14
ATOM     14  C   UNL     1      -0.387  12.793  22.046  0.00  0.00    +0.000 C 
BRANCH  14  16
ATOM     15  C   UNL     1      -1.095  10.648  23.207  0.00  0.00    +0.000 C 
ATOM     16  C   UNL     1      -1.495  11.738  22.208  0.00  0.00    +0.000 C 
ATOM     17  C   UNL     1      -2.793  12.405  22.660  0.00  0.00    +0.000 C 
ENDBRANCH  14  16
ENDBRANCH  12  14
ENDBRANCH   6  12
ENDBRANCH   1  10
BRANCH   3  18
ATOM     18  C   UNL     1       2.794   7.265  18.864  0.00  0.00    +0.000 A 
ATOM     19  C   UNL     1       3.574   7.548  17.733  0.00  0.00    +0.000 A 
ATOM     20  C   UNL     1       4.623   6.700  17.363  0.00  0.00    +0.000 A 
ATOM     21  C   UNL     1       4.898   5.558  18.119  0.00  0.00    +0.000 A 
ATOM     22  C   UNL     1       4.074   5.226  19.195  0.00  0.00    +0.000 A 
ATOM     23  C   UNL     1       3.048   6.090  19.584  0.00  0.00    +0.000 A 
BRANCH  21  24
ATOM     24  O   UNL     1       5.965   4.795  17.704  0.00  0.00    +0.000 OA
BRANCH  24  25
ATOM     25  C   UNL     1       6.154   4.559  16.359  0.00  0.00    +0.000 A 
ATOM     26  C   UNL     1       5.176   3.781  15.735  0.00  0.00    +0.000 A 
ATOM     27  C   UNL     1       5.269   3.493  14.370  0.00  0.00    +0.000 A 
ATOM     28  C   UNL     1       6.344   3.979  13.612  0.00  0.00    +0.000 A 
ATOM     29  C   UNL     1       7.311   4.775  14.243  0.00  0.00    +0.000 A 
ATOM     30  C   UNL     1       7.199   5.089  15.599  0.00  0.00    +0.000 A 
BRANCH  28  31
ATOM     31  C   UNL     1       6.464   3.687  12.137  0.00  0.00    +0.000 C 
ATOM     32  F   UNL     1       5.271   3.684  11.480  0.00  0.00    +0.000 F 
ATOM     33  F   UNL     1       7.243   4.600  11.490  0.00  0.00    +0.000 F 
ATOM     34  F   UNL     1       7.030   2.473  11.890  0.00  0.00    +0.000 F 
ENDBRANCH  28  31
ENDBRANCH  24  25
ENDBRANCH  21  24
ENDBRANCH   3  18
TORSDOF 8
ENDMDL
MODEL 5
REMARK VINA RESULT:      -8.2      3.537      5.402
REMARK  Name = 
REMARK  10 active torsions:
REMARK  status: ('A' for Active; 'I' for Inactive)
REMARK    1  A    between atoms: C_1  and  C_2
REMARK    2  A    between atoms: C_2  and  C_3
REMARK    3  A    between atoms: C_2  and  C_4
REMARK    4  A    between atoms: C_4  and  N_5
REMARK    5  A    between atoms: N_5  and  C_6
REMARK    6  A    between atoms: C_10  and  C_11
REMARK    7  A    between atoms: C_13  and  C_14
REMARK    8  A    between atoms: C_17  and  O_18
REMARK    9  A    between atoms: O_18  and  C_19
REMARK   10  A    between atoms: C_22  and  C_23
REMARK                            x       y       z     vdW  Elec       q    Type
REMARK                         _______ _______ _______ _____ _____    ______ ____
ROOT
ATOM      1  C   UNL     1       2.447   7.794  18.596  0.00  0.00    +0.000 A 
ATOM      2  N   UNL     1       1.782   8.169  19.674  0.00  0.00    +0.000 NA
ATOM      3  C   UNL     1       1.171   9.331  19.268  0.00  0.00    +0.000 A 
ATOM      4  N   UNL     1       1.375   9.636  17.977  0.00  0.00    +0.000 NA
ATOM      5  O   UNL     1       2.223   8.626  17.531  0.00  0.00    +0.000 OA
ENDROOT
BRANCH   1  10
ATOM      6  C   UNL     1       3.471   5.585  19.509  0.00  0.00    +0.000 A 
ATOM      7  C   UNL     1       4.553   4.837  19.124  0.00  0.00    +0.000 A 
ATOM      8  N   UNL     1       5.055   5.443  18.008  0.00  0.00    +0.000 N 
ATOM      9  N   UNL     1       4.372   6.537  17.631  0.00  0.00    +0.000 NA
ATOM     10  C   UNL     1       3.409   6.644  18.557  0.00  0.00    +0.000 A 
ATOM     11  H   UNL     1       5.862   5.168  17.460  0.00  0.00    +0.000 HD
BRANCH   6  12
ATOM     12  N   UNL     1       2.641   5.366  20.552  0.00  0.00    +0.000 N 
ATOM     13  H   UNL     1       3.072   5.084  21.436  0.00  0.00    +0.000 HD
BRANCH  12  14
ATOM     14  C   UNL     1       1.274   4.898  20.379  0.00  0.00    +0.000 C 
BRANCH  14  16
ATOM     15  C   UNL     1       1.317   2.550  19.411  0.00  0.00    +0.000 C 
ATOM     16  C   UNL     1       1.176   3.392  20.682  0.00  0.00    +0.000 C 
ATOM     17  C   UNL     1       2.249   2.990  21.694  0.00  0.00    +0.000 C 
ENDBRANCH  14  16
ENDBRANCH  12  14
ENDBRANCH   6  12
ENDBRANCH   1  10
BRANCH   3  18
ATOM     18  C   UNL     1       0.449  10.192  20.198  0.00  0.00    +0.000 A 
ATOM     19  C   UNL     1      -0.141   9.660  21.355  0.00  0.00    +0.000 A 
ATOM     20  C   UNL     1      -0.741  10.502  22.297  0.00  0.00    +0.000 A 
ATOM     21  C   UNL     1      -0.760  11.884  22.089  0.00  0.00    +0.000 A 
ATOM     22  C   UNL     1      -0.250  12.410  20.901  0.00  0.00    +0.000 A 
ATOM     23  C   UNL     1       0.378  11.574  19.977  0.00  0.00    +0.000 A 
BRANCH  21  24
ATOM     24  O   UNL     1      -1.343  12.641  23.078  0.00  0.00    +0.000 OA
BRANCH  24  25
ATOM     25  C   UNL     1      -2.717  12.690  23.181  0.00  0.00    +0.000 A 
ATOM     26  C   UNL     1      -3.413  12.814  21.977  0.00  0.00    +0.000 A 
ATOM     27  C   UNL     1      -4.810  12.861  21.972  0.00  0.00    +0.000 A 
ATOM     28  C   UNL     1      -5.529  12.785  23.174  0.00  0.00    +0.000 A 
ATOM     29  C   UNL     1      -4.822  12.643  24.377  0.00  0.00    +0.000 A 
ATOM     30  C   UNL     1      -3.428  12.563  24.377  0.00  0.00    +0.000 A 
BRANCH  28  31
ATOM     31  C   UNL     1      -7.037  12.828  23.195  0.00  0.00    +0.000 C 
ATOM     32  F   UNL     1      -7.597  12.975  21.963  0.00  0.00    +0.000 F 
ATOM     33  F   UNL     1      -7.579  11.693  23.719  0.00  0.00    +0.000 F 
ATOM     34  F   UNL     1      -7.519  13.854  23.950  0.00  0.00    +0.000 F 
ENDBRANCH  28  31
ENDBRANCH  24  25
ENDBRANCH  21  24
ENDBRANCH   3  18
TORSDOF 8
ENDMDL
MODEL 6
REMARK VINA RESULT:      -8.2      5.444     10.249
REMARK  Name = 
REMARK  10 active torsions:
REMARK  status: ('A' for Active; 'I' for Inactive)
REMARK    1  A    between atoms: C_1  and  C_2
REMARK    2  A    between atoms: C_2  and  C_3
REMARK    3  A    between atoms: C_2  and  C_4
REMARK    4  A    between atoms: C_4  and  N_5
REMARK    5  A    between atoms: N_5  and  C_6
REMARK    6  A    between atoms: C_10  and  C_11
REMARK    7  A    between atoms: C_13  and  C_14
REMARK    8  A    between atoms: C_17  and  O_18
REMARK    9  A    between atoms: O_18  and  C_19
REMARK   10  A    between atoms: C_22  and  C_23
REMARK                            x       y       z     vdW  Elec       q    Type
REMARK                         _______ _______ _______ _____ _____    ______ ____
ROOT
ATOM      1  C   UNL     1       0.775   9.874  19.777  0.00  0.00    +0.000 A 
ATOM      2  N   UNL     1       1.591   9.266  18.934  0.00  0.00    +0.000 NA
ATOM      3  C   UNL     1       1.872   8.084  19.578  0.00  0.00    +0.000 A 
ATOM      4  N   UNL     1       1.208   7.918  20.732  0.00  0.00    +0.000 NA
ATOM      5  O   UNL     1       0.487   9.101  20.871  0.00  0.00    +0.000 OA
ENDROOT
BRANCH   1  10
ATOM      6  C   UNL     1      -0.601  11.733  18.591  0.00  0.00    +0.000 A 
ATOM      7  C   UNL     1      -0.676  13.090  18.774  0.00  0.00    +0.000 A 
ATOM      8  N   UNL     1       0.118  13.372  19.847  0.00  0.00    +0.000 N 
ATOM      9  N   UNL     1       0.708  12.291  20.385  0.00  0.00    +0.000 NA
ATOM     10  C   UNL     1       0.288  11.282  19.608  0.00  0.00    +0.000 A 
ATOM     11  H   UNL     1       0.308  14.278  20.261  0.00  0.00    +0.000 HD
BRANCH   6  12
ATOM     12  N   UNL     1      -1.233  10.987  17.659  0.00  0.00    +0.000 N 
ATOM     13  H   UNL     1      -0.723  10.185  17.282  0.00  0.00    +0.000 HD
BRANCH  12  14
ATOM     14  C   UNL     1      -2.221  11.547  16.748  0.00  0.00    +0.000 C 
BRANCH  14  16
ATOM     15  C   UNL     1      -3.112   9.820  15.113  0.00  0.00    +0.000 C 
ATOM     16  C   UNL     1      -3.330  10.521  16.457  0.00  0.00    +0.000 C 
ATOM     17  C   UNL     1      -3.393   9.484  17.579  0.00  0.00    +0.000 C 
ENDBRANCH  14  16
ENDBRANCH  12  14
ENDBRANCH   6  12
ENDBRANCH   1  10
BRANCH   3  18
ATOM     18  C   UNL     1       2.877   7.152  19.082  0.00  0.00    +0.000 A 
ATOM     19  C   UNL     1       3.620   7.446  17.928  0.00  0.00    +0.000 A 
ATOM     20  C   UNL     1       4.655   6.601  17.515  0.00  0.00    +0.000 A 
ATOM     21  C   UNL     1       4.953   5.450  18.249  0.00  0.00    +0.000 A 
ATOM     22  C   UNL     1       4.164   5.109  19.348  0.00  0.00    +0.000 A 
ATOM     23  C   UNL     1       3.154   5.969  19.780  0.00  0.00    +0.000 A 
BRANCH  21  24
ATOM     24  O   UNL     1       6.005   4.691  17.791  0.00  0.00    +0.000 OA
BRANCH  24  25
ATOM     25  C   UNL     1       6.157   4.483  16.436  0.00  0.00    +0.000 A 
ATOM     26  C   UNL     1       5.165   3.716  15.823  0.00  0.00    +0.000 A 
ATOM     27  C   UNL     1       5.222   3.456  14.450  0.00  0.00    +0.000 A 
ATOM     28  C   UNL     1       6.275   3.961  13.674  0.00  0.00    +0.000 A 
ATOM     29  C   UNL     1       7.258   4.745  14.295  0.00  0.00    +0.000 A 
ATOM     30  C   UNL     1       7.181   5.031  15.660  0.00  0.00    +0.000 A 
BRANCH  28  31
ATOM     31  C   UNL     1       6.357   3.699  12.190  0.00  0.00    +0.000 C 
ATOM     32  F   UNL     1       6.914   2.497  11.876  0.00  0.00    +0.000 F 
ATOM     33  F   UNL     1       5.130   3.709  11.596  0.00  0.00    +0.000 F 
ATOM     34  F   UNL     1       7.096   4.637  11.535  0.00  0.00    +0.000 F 
ENDBRANCH  28  31
ENDBRANCH  24  25
ENDBRANCH  21  24
ENDBRANCH   3  18
TORSDOF 8
ENDMDL
MODEL 7
REMARK VINA RESULT:      -8.2      5.869     10.772
REMARK  Name = 
REMARK  10 active torsions:
REMARK  status: ('A' for Active; 'I' for Inactive)
REMARK    1  A    between atoms: C_1  and  C_2
REMARK    2  A    between atoms: C_2  and  C_3
REMARK    3  A    between atoms: C_2  and  C_4
REMARK    4  A    between atoms: C_4  and  N_5
REMARK    5  A    between atoms: N_5  and  C_6
REMARK    6  A    between atoms: C_10  and  C_11
REMARK    7  A    between atoms: C_13  and  C_14
REMARK    8  A    between atoms: C_17  and  O_18
REMARK    9  A    between atoms: O_18  and  C_19
REMARK   10  A    between atoms: C_22  and  C_23
REMARK                            x       y       z     vdW  Elec       q    Type
REMARK                         _______ _______ _______ _____ _____    ______ ____
ROOT
ATOM      1  C   UNL     1      -2.419  11.490  18.488  0.00  0.00    +0.000 A 
ATOM      2  N   UNL     1      -1.837  10.309  18.602  0.00  0.00    +0.000 NA
ATOM      3  C   UNL     1      -0.543  10.636  18.929  0.00  0.00    +0.000 A 
ATOM      4  N   UNL     1      -0.333  11.952  19.089  0.00  0.00    +0.000 NA
ATOM      5  O   UNL     1      -1.569  12.520  18.793  0.00  0.00    +0.000 OA
ENDROOT
BRANCH   1  10
ATOM      6  C   UNL     1      -4.848  12.393  18.691  0.00  0.00    +0.000 A 
ATOM      7  C   UNL     1      -5.965  12.233  17.911  0.00  0.00    +0.000 A 
ATOM      8  N   UNL     1      -5.571  11.494  16.834  0.00  0.00    +0.000 N 
ATOM      9  N   UNL     1      -4.269  11.162  16.849  0.00  0.00    +0.000 NA
ATOM     10  C   UNL     1      -3.821  11.693  17.996  0.00  0.00    +0.000 A 
ATOM     11  H   UNL     1      -6.138  11.177  16.056  0.00  0.00    +0.000 HD
BRANCH   6  12
ATOM     12  N   UNL     1      -4.742  13.070  19.855  0.00  0.00    +0.000 N 
ATOM     13  H   UNL     1      -3.944  13.703  19.953  0.00  0.00    +0.000 HD
BRANCH  12  14
ATOM     14  C   UNL     1      -5.241  12.541  21.115  0.00  0.00    +0.000 C 
BRANCH  14  16
ATOM     15  C   UNL     1      -3.020  13.592  21.762  0.00  0.00    +0.000 C 
ATOM     16  C   UNL     1      -4.202  12.740  22.234  0.00  0.00    +0.000 C 
ATOM     17  C   UNL     1      -4.860  13.392  23.450  0.00  0.00    +0.000 C 
ENDBRANCH  14  16
ENDBRANCH  12  14
ENDBRANCH   6  12
ENDBRANCH   1  10
BRANCH   3  18
ATOM     18  C   UNL     1       0.516   9.635  18.995  0.00  0.00    +0.000 A 
ATOM     19  C   UNL     1       0.825   8.999  20.207  0.00  0.00    +0.000 A 
ATOM     20  C   UNL     1       1.767   7.966  20.247  0.00  0.00    +0.000 A 
ATOM     21  C   UNL     1       2.412   7.562  19.075  0.00  0.00    +0.000 A 
ATOM     22  C   UNL     1       2.170   8.247  17.883  0.00  0.00    +0.000 A 
ATOM     23  C   UNL     1       1.206   9.255  17.837  0.00  0.00    +0.000 A 
BRANCH  21  24
ATOM     24  O   UNL     1       3.301   6.519  19.197  0.00  0.00    +0.000 OA
BRANCH  24  25
ATOM     25  C   UNL     1       3.969   6.058  18.082  0.00  0.00    +0.000 A 
ATOM     26  C   UNL     1       3.686   4.744  17.704  0.00  0.00    +0.000 A 
ATOM     27  C   UNL     1       4.303   4.185  16.581  0.00  0.00    +0.000 A 
ATOM     28  C   UNL     1       5.213   4.936  15.822  0.00  0.00    +0.000 A 
ATOM     29  C   UNL     1       5.478   6.261  16.199  0.00  0.00    +0.000 A 
ATOM     30  C   UNL     1       4.835   6.827  17.301  0.00  0.00    +0.000 A 
BRANCH  28  31
ATOM     31  C   UNL     1       5.888   4.358  14.603  0.00  0.00    +0.000 C 
ATOM     32  F   UNL     1       5.050   4.182  13.545  0.00  0.00    +0.000 F 
ATOM     33  F   UNL     1       6.901   5.148  14.149  0.00  0.00    +0.000 F 
ATOM     34  F   UNL     1       6.447   3.139  14.844  0.00  0.00    +0.000 F 
ENDBRANCH  28  31
ENDBRANCH  24  25
ENDBRANCH  21  24
ENDBRANCH   3  18
TORSDOF 8
ENDMDL
MODEL 8
REMARK VINA RESULT:      -8.1      3.457      5.059
REMARK  Name = 
REMARK  10 active torsions:
REMARK  status: ('A' for Active; 'I' for Inactive)
REMARK    1  A    between atoms: C_1  and  C_2
REMARK    2  A    between atoms: C_2  and  C_3
REMARK    3  A    between atoms: C_2  and  C_4
REMARK    4  A    between atoms: C_4  and  N_5
REMARK    5  A    between atoms: N_5  and  C_6
REMARK    6  A    between atoms: C_10  and  C_11
REMARK    7  A    between atoms: C_13  and  C_14
REMARK    8  A    between atoms: C_17  and  O_18
REMARK    9  A    between atoms: O_18  and  C_19
REMARK   10  A    between atoms: C_22  and  C_23
REMARK                            x       y       z     vdW  Elec       q    Type
REMARK                         _______ _______ _______ _____ _____    ______ ____
ROOT
ATOM      1  C   UNL     1       2.498   7.889  18.237  0.00  0.00    +0.000 A 
ATOM      2  N   UNL     1       1.938   8.092  19.417  0.00  0.00    +0.000 NA
ATOM      3  C   UNL     1       1.314   9.306  19.256  0.00  0.00    +0.000 A 
ATOM      4  N   UNL     1       1.408   9.811  18.016  0.00  0.00    +0.000 NA
ATOM      5  O   UNL     1       2.194   8.880  17.341  0.00  0.00    +0.000 OA
ENDROOT
BRANCH   1  10
ATOM      6  C   UNL     1       3.364   5.453  18.502  0.00  0.00    +0.000 A 
ATOM      7  C   UNL     1       4.464   4.802  18.008  0.00  0.00    +0.000 A 
ATOM      8  N   UNL     1       5.099   5.695  17.194  0.00  0.00    +0.000 N 
ATOM      9  N   UNL     1       4.487   6.889  17.116  0.00  0.00    +0.000 NA
ATOM     10  C   UNL     1       3.431   6.756  17.931  0.00  0.00    +0.000 A 
ATOM     11  H   UNL     1       5.955   5.559  16.668  0.00  0.00    +0.000 HD
BRANCH   6  12
ATOM     12  N   UNL     1       2.420   4.967  19.338  0.00  0.00    +0.000 N 
ATOM     13  H   UNL     1       2.714   4.748  20.293  0.00  0.00    +0.000 HD
BRANCH  12  14
ATOM     14  C   UNL     1       1.290   4.180  18.867  0.00  0.00    +0.000 C 
BRANCH  14  16
ATOM     15  C   UNL     1       2.398   1.907  19.098  0.00  0.00    +0.000 C 
ATOM     16  C   UNL     1       1.255   2.811  19.568  0.00  0.00    +0.000 C 
ATOM     17  C   UNL     1       1.329   2.996  21.084  0.00  0.00    +0.000 C 
ENDBRANCH  14  16
ENDBRANCH  12  14
ENDBRANCH   6  12
ENDBRANCH   1  10
BRANCH   3  18
ATOM     18  C   UNL     1       0.695  10.012  20.371  0.00  0.00    +0.000 A 
ATOM     19  C   UNL     1       0.612  11.413  20.374  0.00  0.00    +0.000 A 
ATOM     20  C   UNL     1      -0.075  12.082  21.393  0.00  0.00    +0.000 A 
ATOM     21  C   UNL     1      -0.682  11.355  22.421  0.00  0.00    +0.000 A 
ATOM     22  C   UNL     1      -0.531   9.969  22.468  0.00  0.00    +0.000 A 
ATOM     23  C   UNL     1       0.125   9.299  21.435  0.00  0.00    +0.000 A 
BRANCH  21  24
ATOM     24  O   UNL     1      -1.362  12.088  23.365  0.00  0.00    +0.000 OA
BRANCH  24  25
ATOM     25  C   UNL     1      -2.704  12.352  23.188  0.00  0.00    +0.000 A 
ATOM     26  C   UNL     1      -3.462  12.460  24.355  0.00  0.00    +0.000 A 
ATOM     27  C   UNL     1      -4.831  12.736  24.284  0.00  0.00    +0.000 A 
ATOM     28  C   UNL     1      -5.459  12.906  23.042  0.00  0.00    +0.000 A 
ATOM     29  C   UNL     1      -4.686  12.813  21.875  0.00  0.00    +0.000 A 
ATOM     30  C   UNL     1      -3.313  12.570  21.950  0.00  0.00    +0.000 A 
BRANCH  28  31
ATOM     31  C   UNL     1      -6.933  13.210  22.938  0.00  0.00    +0.000 C 
ATOM     32  F   UNL     1      -7.520  13.486  24.135  0.00  0.00    +0.000 F 
ATOM     33  F   UNL     1      -7.184  14.287  22.142  0.00  0.00    +0.000 F 
ATOM     34  F   UNL     1      -7.642  12.178  22.403  0.00  0.00    +0.000 F 
ENDBRANCH  28  31
ENDBRANCH  24  25
ENDBRANCH  21  24
ENDBRANCH   3  18
TORSDOF 8
ENDMDL
MODEL 9
REMARK VINA RESULT:      -8.1      2.484      3.874
REMARK  Name = 
REMARK  10 active torsions:
REMARK  status: ('A' for Active; 'I' for Inactive)
REMARK    1  A    between atoms: C_1  and  C_2
REMARK    2  A    between atoms: C_2  and  C_3
REMARK    3  A    between atoms: C_2  and  C_4
REMARK    4  A    between atoms: C_4  and  N_5
REMARK    5  A    between atoms: N_5  and  C_6
REMARK    6  A    between atoms: C_10  and  C_11
REMARK    7  A    between atoms: C_13  and  C_14
REMARK    8  A    between atoms: C_17  and  O_18
REMARK    9  A    between atoms: O_18  and  C_19
REMARK   10  A    between atoms: C_22  and  C_23
REMARK                            x       y       z     vdW  Elec       q    Type
REMARK                         _______ _______ _______ _____ _____    ______ ____
ROOT
ATOM      1  C   UNL     1       2.651   5.180  18.401  0.00  0.00    +0.000 A 
ATOM      2  N   UNL     1       1.832   5.880  19.166  0.00  0.00    +0.000 NA
ATOM      3  C   UNL     1       2.176   7.178  18.875  0.00  0.00    +0.000 A 
ATOM      4  N   UNL     1       3.110   7.298  17.919  0.00  0.00    +0.000 NA
ATOM      5  O   UNL     1       3.431   5.979  17.608  0.00  0.00    +0.000 OA
ENDROOT
BRANCH   1  10
ATOM      6  C   UNL     1       3.934   2.944  18.067  0.00  0.00    +0.000 A 
ATOM      7  C   UNL     1       3.557   1.631  18.189  0.00  0.00    +0.000 A 
ATOM      8  N   UNL     1       2.267   1.649  18.635  0.00  0.00    +0.000 N 
ATOM      9  N   UNL     1       1.772   2.884  18.818  0.00  0.00    +0.000 NA
ATOM     10  C   UNL     1       2.782   3.687  18.453  0.00  0.00    +0.000 A 
ATOM     11  H   UNL     1       1.664   0.857  18.828  0.00  0.00    +0.000 HD
BRANCH   6  12
ATOM     12  N   UNL     1       5.133   3.427  17.674  0.00  0.00    +0.000 N 
ATOM     13  H   UNL     1       5.580   4.113  18.287  0.00  0.00    +0.000 HD
BRANCH  12  14
ATOM     14  C   UNL     1       5.507   3.546  16.273  0.00  0.00    +0.000 C 
BRANCH  14  16
ATOM     15  C   UNL     1       6.321   5.858  15.608  0.00  0.00    +0.000 C 
ATOM     16  C   UNL     1       6.726   4.472  16.116  0.00  0.00    +0.000 C 
ATOM     17  C   UNL     1       7.461   4.602  17.450  0.00  0.00    +0.000 C 
ENDBRANCH  14  16
ENDBRANCH  12  14
ENDBRANCH   6  12
ENDBRANCH   1  10
BRANCH   3  18
ATOM     18  C   UNL     1       1.633   8.308  19.620  0.00  0.00    +0.000 A 
ATOM     19  C   UNL     1       1.427   8.221  21.005  0.00  0.00    +0.000 A 
ATOM     20  C   UNL     1       1.006   9.339  21.732  0.00  0.00    +0.000 A 
ATOM     21  C   UNL     1       0.781  10.554  21.079  0.00  0.00    +0.000 A 
ATOM     22  C   UNL     1       0.902  10.624  19.691  0.00  0.00    +0.000 A 
ATOM     23  C   UNL     1       1.354   9.518  18.970  0.00  0.00    +0.000 A 
BRANCH  21  24
ATOM     24  O   UNL     1       0.397  11.610  21.873  0.00  0.00    +0.000 OA
BRANCH  24  25
ATOM     25  C   UNL     1      -0.933  11.969  21.935  0.00  0.00    +0.000 A 
ATOM     26  C   UNL     1      -1.530  11.873  23.193  0.00  0.00    +0.000 A 
ATOM     27  C   UNL     1      -2.873  12.224  23.365  0.00  0.00    +0.000 A 
ATOM     28  C   UNL     1      -3.635  12.675  22.277  0.00  0.00    +0.000 A 
ATOM     29  C   UNL     1      -3.022  12.785  21.021  0.00  0.00    +0.000 A 
ATOM     30  C   UNL     1      -1.672  12.466  20.858  0.00  0.00    +0.000 A 
BRANCH  28  31
ATOM     31  C   UNL     1      -5.083  13.065  22.437  0.00  0.00    +0.000 C 
ATOM     32  F   UNL     1      -5.887  12.608  21.437  0.00  0.00    +0.000 F 
ATOM     33  F   UNL     1      -5.622  12.589  23.595  0.00  0.00    +0.000 F 
ATOM     34  F   UNL     1      -5.260  14.415  22.472  0.00  0.00    +0.000 F 
ENDBRANCH  28  31
ENDBRANCH  24  25
ENDBRANCH  21  24
ENDBRANCH   3  18
TORSDOF 8
ENDMDL
