MODEL 1
REMARK VINA RESULT:      -7.2      0.000      0.000
REMARK  Name = 
REMARK  17 active torsions:
REMARK  status: ('A' for Active; 'I' for Inactive)
REMARK    1  A    between atoms: C_1  and  C_2
REMARK    2  A    between atoms: C_2  and  C_3
REMARK    3  A    between atoms: C_4  and  C_5
REMARK    4  A    between atoms: C_5  and  C_6
REMARK    5  A    between atoms: C_6  and  C_7
REMARK    6  A    between atoms: C_7  and  C_8
REMARK    7  A    between atoms: C_9  and  C_10
REMARK    8  A    between atoms: C_13  and  C_14
REMARK    9  A    between atoms: C_14  and  O_15
REMARK   10  A    between atoms: O_15  and  C_16
REMARK   11  A    between atoms: C_16  and  P_17
REMARK   12  A    between atoms: P_17  and  O_19
REMARK   13  A    between atoms: P_17  and  C_20
REMARK   14  A    between atoms: C_20  and  P_21
REMARK   15  A    between atoms: P_21  and  O_23
REMARK   16  A    between atoms: P_21  and  O_24
REMARK   17  A    between atoms: C_25  and  C_26
REMARK                            x       y       z     vdW  Elec       q    Type
REMARK                         _______ _______ _______ _____ _____    ______ ____
ROOT
ATOM      1  C   UNL     1       4.016   5.404  17.275  0.00  0.00    +0.000 A 
ATOM      2  C   UNL     1       3.621   6.730  17.403  0.00  0.00    +0.000 A 
ATOM      3  C   UNL     1       2.923   7.129  18.538  0.00  0.00    +0.000 A 
ATOM      4  C   UNL     1       2.592   6.210  19.560  0.00  0.00    +0.000 A 
ATOM      5  C   UNL     1       3.010   4.865  19.437  0.00  0.00    +0.000 A 
ATOM      6  C   UNL     1       2.743   3.770  20.433  0.00  0.00    +0.000 C 
ATOM      7  C   UNL     1       3.717   4.486  18.285  0.00  0.00    +0.000 A 
ENDROOT
BRANCH   1  10
ATOM      8  C   UNL     1       6.120   5.313  15.904  0.00  0.00    +0.000 C 
ATOM      9  C   UNL     1       6.950   6.122  16.868  0.00  0.00    +0.000 C 
ATOM     10  C   UNL     1       4.842   4.972  16.155  0.00  0.00    +0.000 C 
BRANCH   8  11
ATOM     11  C   UNL     1       6.813   4.896  14.613  0.00  0.00    +0.000 C 
BRANCH  11  12
ATOM     12  C   UNL     1       6.218   3.637  13.962  0.00  0.00    +0.000 C 
BRANCH  12  16
ATOM     13  C   UNL     1       3.874   3.404  10.869  0.00  0.00    +0.000 C 
ATOM     14  C   UNL     1       5.005   3.114  11.813  0.00  0.00    +0.000 C 
ATOM     15  C   UNL     1       5.855   1.906  11.521  0.00  0.00    +0.000 C 
ATOM     16  C   UNL     1       5.216   3.913  12.878  0.00  0.00    +0.000 C 
ENDBRANCH  12  16
ENDBRANCH  11  12
ENDBRANCH   8  11
ENDBRANCH   1  10
BRANCH   4  17
ATOM     17  C   UNL     1       1.680   6.724  20.655  0.00  0.00    +0.000 C 
BRANCH  17  18
ATOM     18  O   UNL     1       1.655   8.172  20.667  0.00  0.00    +0.000 OA
BRANCH  18  19
ATOM     19  C   UNL     1       0.455   8.620  21.296  0.00  0.00    +0.000 C 
BRANCH  19  20
ATOM     20  P   UNL     1      -0.011  10.316  20.792  0.00  0.00    +0.000 P 
ATOM     21  O   UNL     1       1.144  10.873  21.640  0.00  0.00    +0.000 OA
BRANCH  20  22
ATOM     22  O   UNL     1       0.596  10.065  19.256  0.00  0.00    +0.000 OA
ATOM     23  H   UNL     1       0.575   9.113  18.997  0.00  0.00    +0.000 HD
ENDBRANCH  20  22
BRANCH  20  24
ATOM     24  C   UNL     1      -0.478  12.012  20.287  0.00  0.00    +0.000 C 
BRANCH  24  25
ATOM     25  P   UNL     1      -0.124  12.787  18.738  0.00  0.00    +0.000 P 
ATOM     26  O   UNL     1       1.318  12.910  18.373  0.00  0.00    +0.000 OA
BRANCH  25  27
ATOM     27  O   UNL     1      -1.008  12.018  17.650  0.00  0.00    +0.000 OA
ATOM     28  H   UNL     1      -0.482  11.770  16.850  0.00  0.00    +0.000 HD
ENDBRANCH  25  27
BRANCH  25  29
ATOM     29  O   UNL     1      -0.868  14.207  18.771  0.00  0.00    +0.000 OA
ATOM     30  H   UNL     1      -0.233  14.903  18.514  0.00  0.00    +0.000 HD
ENDBRANCH  25  29
ENDBRANCH  24  25
ENDBRANCH  20  24
ENDBRANCH  19  20
ENDBRANCH  18  19
ENDBRANCH  17  18
ENDBRANCH   4  17
TORSDOF 13
ENDMDL
MODEL 2
REMARK VINA RESULT:      -7.0      3.379      5.582
REMARK  Name = 
REMARK  17 active torsions:
REMARK  status: ('A' for Active; 'I' for Inactive)
REMARK    1  A    between atoms: C_1  and  C_2
REMARK    2  A    between atoms: C_2  and  C_3
REMARK    3  A    between atoms: C_4  and  C_5
REMARK    4  A    between atoms: C_5  and  C_6
REMARK    5  A    between atoms: C_6  and  C_7
REMARK    6  A    between atoms: C_7  and  C_8
REMARK    7  A    between atoms: C_9  and  C_10
REMARK    8  A    between atoms: C_13  and  C_14
REMARK    9  A    between atoms: C_14  and  O_15
REMARK   10  A    between atoms: O_15  and  C_16
REMARK   11  A    between atoms: C_16  and  P_17
REMARK   12  A    between atoms: P_17  and  O_19
REMARK   13  A    between atoms: P_17  and  C_20
REMARK   14  A    between atoms: C_20  and  P_21
REMARK   15  A    between atoms: P_21  and  O_23
REMARK   16  A    between atoms: P_21  and  O_24
REMARK   17  A    between atoms: C_25  and  C_26
REMARK                            x       y       z     vdW  Elec       q    Type
REMARK                         _______ _______ _______ _____ _____    ______ ____
ROOT
ATOM      1  C   UNL     1       2.845   6.901  18.383  0.00  0.00    +0.000 A 
ATOM      2  C   UNL     1       2.826   7.941  17.462  0.00  0.00    +0.000 A 
ATOM      3  C   UNL     1       2.212   9.142  17.799  0.00  0.00    +0.000 A 
ATOM      4  C   UNL     1       1.590   9.325  19.056  0.00  0.00    +0.000 A 
ATOM      5  C   UNL     1       1.625   8.273  19.999  0.00  0.00    +0.000 A 
ATOM      6  C   UNL     1       1.018   8.308  21.375  0.00  0.00    +0.000 C 
ATOM      7  C   UNL     1       2.255   7.070  19.639  0.00  0.00    +0.000 A 
ENDROOT
BRANCH   1  10
ATOM      8  C   UNL     1       3.065   4.502  17.670  0.00  0.00    +0.000 C 
ATOM      9  C   UNL     1       1.623   4.345  17.257  0.00  0.00    +0.000 C 
ATOM     10  C   UNL     1       3.572   5.669  18.109  0.00  0.00    +0.000 C 
BRANCH   8  11
ATOM     11  C   UNL     1       3.929   3.251  17.564  0.00  0.00    +0.000 C 
BRANCH  11  12
ATOM     12  C   UNL     1       3.513   2.122  18.521  0.00  0.00    +0.000 C 
BRANCH  12  16
ATOM     13  C   UNL     1       2.143   2.978  22.057  0.00  0.00    +0.000 C 
ATOM     14  C   UNL     1       2.179   2.698  20.582  0.00  0.00    +0.000 C 
ATOM     15  C   UNL     1       0.857   2.582  19.870  0.00  0.00    +0.000 C 
ATOM     16  C   UNL     1       3.362   2.547  19.953  0.00  0.00    +0.000 C 
ENDBRANCH  12  16
ENDBRANCH  11  12
ENDBRANCH   8  11
ENDBRANCH   1  10
BRANCH   4  17
ATOM     17  C   UNL     1       0.804  10.607  19.236  0.00  0.00    +0.000 C 
BRANCH  17  18
ATOM     18  O   UNL     1      -0.268  10.694  18.265  0.00  0.00    +0.000 OA
BRANCH  18  19
ATOM     19  C   UNL     1      -1.511  10.407  18.906  0.00  0.00    +0.000 C 
BRANCH  19  20
ATOM     20  P   UNL     1      -2.948  11.031  17.961  0.00  0.00    +0.000 P 
ATOM     21  O   UNL     1      -3.236  12.039  19.085  0.00  0.00    +0.000 OA
BRANCH  20  22
ATOM     22  O   UNL     1      -1.943  11.800  16.869  0.00  0.00    +0.000 OA
ATOM     23  H   UNL     1      -1.236  12.322  17.318  0.00  0.00    +0.000 HD
ENDBRANCH  20  22
BRANCH  20  24
ATOM     24  C   UNL     1      -4.385  11.654  17.014  0.00  0.00    +0.000 C 
BRANCH  24  25
ATOM     25  P   UNL     1      -5.984  12.046  17.659  0.00  0.00    +0.000 P 
ATOM     26  O   UNL     1      -6.767  10.909  18.226  0.00  0.00    +0.000 OA
BRANCH  25  27
ATOM     27  O   UNL     1      -5.760  13.255  18.682  0.00  0.00    +0.000 OA
ATOM     28  H   UNL     1      -6.201  13.094  19.552  0.00  0.00    +0.000 HD
ENDBRANCH  25  27
BRANCH  25  29
ATOM     29  O   UNL     1      -6.767  12.798  16.480  0.00  0.00    +0.000 OA
ATOM     30  H   UNL     1      -7.374  13.455  16.872  0.00  0.00    +0.000 HD
ENDBRANCH  25  29
ENDBRANCH  24  25
ENDBRANCH  20  24
ENDBRANCH  19  20
ENDBRANCH  18  19
ENDBRANCH  17  18
ENDBRANCH   4  17
TORSDOF 13
ENDMDL
MODEL 3
REMARK VINA RESULT:      -7.0      1.976      3.388
REMARK  Name = 
REMARK  17 active torsions:
REMARK  status: ('A' for Active; 'I' for Inactive)
REMARK    1  A    between atoms: C_1  and  C_2
REMARK    2  A    between atoms: C_2  and  C_3
REMARK    3  A    between atoms: C_4  and  C_5
REMARK    4  A    between atoms: C_5  and  C_6
REMARK    5  A    between atoms: C_6  and  C_7
REMARK    6  A    between atoms: C_7  and  C_8
REMARK    7  A    between atoms: C_9  and  C_10
REMARK    8  A    between atoms: C_13  and  C_14
REMARK    9  A    between atoms: C_14  and  O_15
REMARK   10  A    between atoms: O_15  and  C_16
REMARK   11  A    between atoms: C_16  and  P_17
REMARK   12  A    between atoms: P_17  and  O_19
REMARK   13  A    between atoms: P_17  and  C_20
REMARK   14  A    between atoms: C_20  and  P_21
REMARK   15  A    between atoms: P_21  and  O_23
REMARK   16  A    between atoms: P_21  and  O_24
REMARK   17  A    between atoms: C_25  and  C_26
REMARK                            x       y       z     vdW  Elec       q    Type
REMARK                         _______ _______ _______ _____ _____    ______ ____
ROOT
ATOM      1  C   UNL     1       3.496   6.216  17.861  0.00  0.00    +0.000 A 
ATOM      2  C   UNL     1       3.018   7.519  17.807  0.00  0.00    +0.000 A 
ATOM      3  C   UNL     1       2.242   8.007  18.854  0.00  0.00    +0.000 A 
ATOM      4  C   UNL     1       1.915   7.199  19.967  0.00  0.00    +0.000 A 
ATOM      5  C   UNL     1       2.417   5.879  20.029  0.00  0.00    +0.000 A 
ATOM      6  C   UNL     1       2.166   4.898  21.141  0.00  0.00    +0.000 C 
ATOM      7  C   UNL     1       3.203   5.410  18.964  0.00  0.00    +0.000 A 
ENDROOT
BRANCH   1  10
ATOM      8  C   UNL     1       4.682   4.419  16.565  0.00  0.00    +0.000 C 
ATOM      9  C   UNL     1       3.959   3.272  17.224  0.00  0.00    +0.000 C 
ATOM     10  C   UNL     1       4.401   5.707  16.839  0.00  0.00    +0.000 C 
BRANCH   8  11
ATOM     11  C   UNL     1       5.761   4.039  15.559  0.00  0.00    +0.000 C 
BRANCH  11  12
ATOM     12  C   UNL     1       7.139   4.653  15.859  0.00  0.00    +0.000 C 
BRANCH  12  16
ATOM     13  C   UNL     1       7.866   5.649  19.546  0.00  0.00    +0.000 C 
ATOM     14  C   UNL     1       7.638   5.766  18.066  0.00  0.00    +0.000 C 
ATOM     15  C   UNL     1       7.540   7.155  17.492  0.00  0.00    +0.000 C 
ATOM     16  C   UNL     1       7.513   4.655  17.313  0.00  0.00    +0.000 C 
ENDBRANCH  12  16
ENDBRANCH  11  12
ENDBRANCH   8  11
ENDBRANCH   1  10
BRANCH   4  17
ATOM     17  C   UNL     1       0.920   7.781  20.950  0.00  0.00    +0.000 C 
BRANCH  17  18
ATOM     18  O   UNL     1       1.586   8.639  21.909  0.00  0.00    +0.000 OA
BRANCH  18  19
ATOM     19  C   UNL     1       0.837   9.844  22.065  0.00  0.00    +0.000 C 
BRANCH  19  20
ATOM     20  P   UNL     1      -0.163  10.245  20.587  0.00  0.00    +0.000 P 
ATOM     21  O   UNL     1      -1.059  11.148  21.451  0.00  0.00    +0.000 OA
BRANCH  20  22
ATOM     22  O   UNL     1       1.056  11.213  19.980  0.00  0.00    +0.000 OA
ATOM     23  H   UNL     1       1.920  10.740  19.935  0.00  0.00    +0.000 HD
ENDBRANCH  20  22
BRANCH  20  24
ATOM     24  C   UNL     1      -1.163  10.646  19.107  0.00  0.00    +0.000 C 
BRANCH  24  25
ATOM     25  P   UNL     1      -1.476  12.257  18.450  0.00  0.00    +0.000 P 
ATOM     26  O   UNL     1      -0.279  13.107  18.181  0.00  0.00    +0.000 OA
BRANCH  25  27
ATOM     27  O   UNL     1      -2.416  12.036  17.174  0.00  0.00    +0.000 OA
ATOM     28  H   UNL     1      -3.229  11.520  17.395  0.00  0.00    +0.000 HD
ENDBRANCH  25  27
BRANCH  25  29
ATOM     29  O   UNL     1      -2.507  12.956  19.458  0.00  0.00    +0.000 OA
ATOM     30  H   UNL     1      -3.406  12.618  19.277  0.00  0.00    +0.000 HD
ENDBRANCH  25  29
ENDBRANCH  24  25
ENDBRANCH  20  24
ENDBRANCH  19  20
ENDBRANCH  18  19
ENDBRANCH  17  18
ENDBRANCH   4  17
TORSDOF 13
ENDMDL
MODEL 4
REMARK VINA RESULT:      -6.9      2.937      4.926
REMARK  Name = 
REMARK  17 active torsions:
REMARK  status: ('A' for Active; 'I' for Inactive)
REMARK    1  A    between atoms: C_1  and  C_2
REMARK    2  A    between atoms: C_2  and  C_3
REMARK    3  A    between atoms: C_4  and  C_5
REMARK    4  A    between atoms: C_5  and  C_6
REMARK    5  A    between atoms: C_6  and  C_7
REMARK    6  A    between atoms: C_7  and  C_8
REMARK    7  A    between atoms: C_9  and  C_10
REMARK    8  A    between atoms: C_13  and  C_14
REMARK    9  A    between atoms: C_14  and  O_15
REMARK   10  A    between atoms: O_15  and  C_16
REMARK   11  A    between atoms: C_16  and  P_17
REMARK   12  A    between atoms: P_17  and  O_19
REMARK   13  A    between atoms: P_17  and  C_20
REMARK   14  A    between atoms: C_20  and  P_21
REMARK   15  A    between atoms: P_21  and  O_23
REMARK   16  A    between atoms: P_21  and  O_24
REMARK   17  A    between atoms: C_25  and  C_26
REMARK                            x       y       z     vdW  Elec       q    Type
REMARK                         _______ _______ _______ _____ _____    ______ ____
ROOT
ATOM      1  C   UNL     1       2.537   6.806  19.492  0.00  0.00    +0.000 A 
ATOM      2  C   UNL     1       1.872   6.731  20.709  0.00  0.00    +0.000 A 
ATOM      3  C   UNL     1       1.027   7.768  21.091  0.00  0.00    +0.000 A 
ATOM      4  C   UNL     1       0.842   8.907  20.274  0.00  0.00    +0.000 A 
ATOM      5  C   UNL     1       1.505   8.973  19.028  0.00  0.00    +0.000 A 
ATOM      6  C   UNL     1       1.410  10.107  18.044  0.00  0.00    +0.000 C 
ATOM      7  C   UNL     1       2.349   7.913  18.660  0.00  0.00    +0.000 A 
ENDROOT
BRANCH   1  10
ATOM      8  C   UNL     1       2.926   4.637  18.284  0.00  0.00    +0.000 C 
ATOM      9  C   UNL     1       1.525   4.528  17.737  0.00  0.00    +0.000 C 
ATOM     10  C   UNL     1       3.343   5.692  19.008  0.00  0.00    +0.000 C 
BRANCH   8  11
ATOM     11  C   UNL     1       3.857   3.472  17.970  0.00  0.00    +0.000 C 
BRANCH  11  12
ATOM     12  C   UNL     1       4.769   3.712  16.755  0.00  0.00    +0.000 C 
BRANCH  12  16
ATOM     13  C   UNL     1       7.335   6.597  17.219  0.00  0.00    +0.000 C 
ATOM     14  C   UNL     1       6.132   5.834  16.741  0.00  0.00    +0.000 C 
ATOM     15  C   UNL     1       5.110   6.593  15.936  0.00  0.00    +0.000 C 
ATOM     16  C   UNL     1       5.993   4.530  17.051  0.00  0.00    +0.000 C 
ENDBRANCH  12  16
ENDBRANCH  11  12
ENDBRANCH   8  11
ENDBRANCH   1  10
BRANCH   4  17
ATOM     17  C   UNL     1       0.042  10.043  20.878  0.00  0.00    +0.000 C 
BRANCH  17  18
ATOM     18  O   UNL     1       0.919  11.088  21.364  0.00  0.00    +0.000 OA
BRANCH  18  19
ATOM     19  C   UNL     1       0.199  12.319  21.422  0.00  0.00    +0.000 C 
BRANCH  19  20
ATOM     20  P   UNL     1      -1.307  12.203  22.455  0.00  0.00    +0.000 P 
ATOM     21  O   UNL     1      -0.908  13.507  23.165  0.00  0.00    +0.000 OA
BRANCH  20  22
ATOM     22  O   UNL     1      -2.272  12.635  21.161  0.00  0.00    +0.000 OA
ATOM     23  H   UNL     1      -2.872  11.902  20.883  0.00  0.00    +0.000 HD
ENDBRANCH  20  22
BRANCH  20  24
ATOM     24  C   UNL     1      -2.814  12.086  23.487  0.00  0.00    +0.000 C 
BRANCH  24  25
ATOM     25  P   UNL     1      -4.334  12.953  23.238  0.00  0.00    +0.000 P 
ATOM     26  O   UNL     1      -5.245  12.405  22.190  0.00  0.00    +0.000 OA
BRANCH  25  27
ATOM     27  O   UNL     1      -5.009  13.082  24.682  0.00  0.00    +0.000 OA
ATOM     28  H   UNL     1      -4.406  12.778  25.404  0.00  0.00    +0.000 HD
ENDBRANCH  25  27
BRANCH  25  29
ATOM     29  O   UNL     1      -3.935  14.481  22.962  0.00  0.00    +0.000 OA
ATOM     30  H   UNL     1      -2.999  14.518  22.687  0.00  0.00    +0.000 HD
ENDBRANCH  25  29
ENDBRANCH  24  25
ENDBRANCH  20  24
ENDBRANCH  19  20
ENDBRANCH  18  19
ENDBRANCH  17  18
ENDBRANCH   4  17
TORSDOF 13
ENDMDL
MODEL 5
REMARK VINA RESULT:      -6.9      1.246      1.721
REMARK  Name = 
REMARK  17 active torsions:
REMARK  status: ('A' for Active; 'I' for Inactive)
REMARK    1  A    between atoms: C_1  and  C_2
REMARK    2  A    between atoms: C_2  and  C_3
REMARK    3  A    between atoms: C_4  and  C_5
REMARK    4  A    between atoms: C_5  and  C_6
REMARK    5  A    between atoms: C_6  and  C_7
REMARK    6  A    between atoms: C_7  and  C_8
REMARK    7  A    between atoms: C_9  and  C_10
REMARK    8  A    between atoms: C_13  and  C_14
REMARK    9  A    between atoms: C_14  and  O_15
REMARK   10  A    between atoms: O_15  and  C_16
REMARK   11  A    between atoms: C_16  and  P_17
REMARK   12  A    between atoms: P_17  and  O_19
REMARK   13  A    between atoms: P_17  and  C_20
REMARK   14  A    between atoms: C_20  and  P_21
REMARK   15  A    between atoms: P_21  and  O_23
REMARK   16  A    between atoms: P_21  and  O_24
REMARK   17  A    between atoms: C_25  and  C_26
REMARK                            x       y       z     vdW  Elec       q    Type
REMARK                         _______ _______ _______ _____ _____    ______ ____
ROOT
ATOM      1  C   UNL     1       3.801   6.271  17.440  0.00  0.00    +0.000 A 
ATOM      2  C   UNL     1       3.495   7.612  17.242  0.00  0.00    +0.000 A 
ATOM      3  C   UNL     1       2.689   8.273  18.163  0.00  0.00    +0.000 A 
ATOM      4  C   UNL     1       2.158   7.605  19.291  0.00  0.00    +0.000 A 
ATOM      5  C   UNL     1       2.485   6.246  19.501  0.00  0.00    +0.000 A 
ATOM      6  C   UNL     1       2.008   5.397  20.648  0.00  0.00    +0.000 C 
ATOM      7  C   UNL     1       3.305   5.600  18.561  0.00  0.00    +0.000 A 
ENDROOT
BRANCH   1  10
ATOM      8  C   UNL     1       6.033   5.853  16.364  0.00  0.00    +0.000 C 
ATOM      9  C   UNL     1       6.774   6.889  17.171  0.00  0.00    +0.000 C 
ATOM     10  C   UNL     1       4.730   5.576  16.559  0.00  0.00    +0.000 C 
BRANCH   8  11
ATOM     11  C   UNL     1       6.848   5.128  15.300  0.00  0.00    +0.000 C 
BRANCH  11  12
ATOM     12  C   UNL     1       6.231   3.796  14.842  0.00  0.00    +0.000 C 
BRANCH  12  16
ATOM     13  C   UNL     1       4.307   3.545  11.473  0.00  0.00    +0.000 C 
ATOM     14  C   UNL     1       5.432   3.507  12.468  0.00  0.00    +0.000 C 
ATOM     15  C   UNL     1       6.756   2.973  11.990  0.00  0.00    +0.000 C 
ATOM     16  C   UNL     1       5.228   3.926  13.733  0.00  0.00    +0.000 C 
ENDBRANCH  12  16
ENDBRANCH  11  12
ENDBRANCH   8  11
ENDBRANCH   1  10
BRANCH   4  17
ATOM     17  C   UNL     1       1.153   8.380  20.118  0.00  0.00    +0.000 C 
BRANCH  17  18
ATOM     18  O   UNL     1       1.630   8.554  21.475  0.00  0.00    +0.000 OA
BRANCH  18  19
ATOM     19  C   UNL     1       0.843   9.550  22.128  0.00  0.00    +0.000 C 
BRANCH  19  20
ATOM     20  P   UNL     1       0.153  10.777  20.959  0.00  0.00    +0.000 P 
ATOM     21  O   UNL     1      -1.070  10.946  21.875  0.00  0.00    +0.000 OA
BRANCH  20  22
ATOM     22  O   UNL     1       1.276  11.918  21.436  0.00  0.00    +0.000 OA
ATOM     23  H   UNL     1       2.177  11.532  21.543  0.00  0.00    +0.000 HD
ENDBRANCH  20  22
BRANCH  20  24
ATOM     24  C   UNL     1      -0.536  12.003  19.789  0.00  0.00    +0.000 C 
BRANCH  24  25
ATOM     25  P   UNL     1      -1.509  11.662  18.352  0.00  0.00    +0.000 P 
ATOM     26  O   UNL     1      -2.973  11.478  18.572  0.00  0.00    +0.000 OA
BRANCH  25  27
ATOM     27  O   UNL     1      -1.149  12.807  17.295  0.00  0.00    +0.000 OA
ATOM     28  H   UNL     1      -1.316  12.521  16.364  0.00  0.00    +0.000 HD
ENDBRANCH  25  27
BRANCH  25  29
ATOM     29  O   UNL     1      -0.833  10.389  17.650  0.00  0.00    +0.000 OA
ATOM     30  H   UNL     1      -1.241  10.258  16.772  0.00  0.00    +0.000 HD
ENDBRANCH  25  29
ENDBRANCH  24  25
ENDBRANCH  20  24
ENDBRANCH  19  20
ENDBRANCH  18  19
ENDBRANCH  17  18
ENDBRANCH   4  17
TORSDOF 13
ENDMDL
MODEL 6
REMARK VINA RESULT:      -6.8      2.680      4.407
REMARK  Name = 
REMARK  17 active torsions:
REMARK  status: ('A' for Active; 'I' for Inactive)
REMARK    1  A    between atoms: C_1  and  C_2
REMARK    2  A    between atoms: C_2  and  C_3
REMARK    3  A    between atoms: C_4  and  C_5
REMARK    4  A    between atoms: C_5  and  C_6
REMARK    5  A    between atoms: C_6  and  C_7
REMARK    6  A    between atoms: C_7  and  C_8
REMARK    7  A    between atoms: C_9  and  C_10
REMARK    8  A    between atoms: C_13  and  C_14
REMARK    9  A    between atoms: C_14  and  O_15
REMARK   10  A    between atoms: O_15  and  C_16
REMARK   11  A    between atoms: C_16  and  P_17
REMARK   12  A    between atoms: P_17  and  O_19
REMARK   13  A    between atoms: P_17  and  C_20
REMARK   14  A    between atoms: C_20  and  P_21
REMARK   15  A    between atoms: P_21  and  O_23
REMARK   16  A    between atoms: P_21  and  O_24
REMARK   17  A    between atoms: C_25  and  C_26
REMARK                            x       y       z     vdW  Elec       q    Type
REMARK                         _______ _______ _______ _____ _____    ______ ____
ROOT
ATOM      1  C   UNL     1       2.459   7.350  18.744  0.00  0.00    +0.000 A 
ATOM      2  C   UNL     1       2.153   8.261  17.742  0.00  0.00    +0.000 A 
ATOM      3  C   UNL     1       1.381   9.378  18.046  0.00  0.00    +0.000 A 
ATOM      4  C   UNL     1       0.886   9.599  19.352  0.00  0.00    +0.000 A 
ATOM      5  C   UNL     1       1.214   8.680  20.374  0.00  0.00    +0.000 A 
ATOM      6  C   UNL     1       0.772   8.772  21.810  0.00  0.00    +0.000 C 
ATOM      7  C   UNL     1       1.998   7.562  20.046  0.00  0.00    +0.000 A 
ENDROOT
BRANCH   1  10
ATOM      8  C   UNL     1       3.015   4.982  18.111  0.00  0.00    +0.000 C 
ATOM      9  C   UNL     1       1.601   4.598  17.753  0.00  0.00    +0.000 C 
ATOM     10  C   UNL     1       3.354   6.228  18.490  0.00  0.00    +0.000 C 
BRANCH   8  11
ATOM     11  C   UNL     1       4.052   3.870  18.021  0.00  0.00    +0.000 C 
BRANCH  11  12
ATOM     12  C   UNL     1       5.268   4.219  17.147  0.00  0.00    +0.000 C 
BRANCH  12  16
ATOM     13  C   UNL     1       5.788   3.732  13.326  0.00  0.00    +0.000 C 
ATOM     14  C   UNL     1       5.992   4.219  14.732  0.00  0.00    +0.000 C 
ATOM     15  C   UNL     1       7.232   5.027  15.008  0.00  0.00    +0.000 C 
ATOM     16  C   UNL     1       5.093   3.914  15.688  0.00  0.00    +0.000 C 
ENDBRANCH  12  16
ENDBRANCH  11  12
ENDBRANCH   8  11
ENDBRANCH   1  10
BRANCH   4  17
ATOM     17  C   UNL     1      -0.086  10.749  19.516  0.00  0.00    +0.000 C 
BRANCH  17  18
ATOM     18  O   UNL     1      -0.686  11.101  18.246  0.00  0.00    +0.000 OA
BRANCH  18  19
ATOM     19  C   UNL     1      -1.471  12.282  18.405  0.00  0.00    +0.000 C 
BRANCH  19  20
ATOM     20  P   UNL     1      -2.140  12.457  20.100  0.00  0.00    +0.000 P 
ATOM     21  O   UNL     1      -1.484  13.843  20.204  0.00  0.00    +0.000 OA
BRANCH  20  22
ATOM     22  O   UNL     1      -3.683  12.696  19.506  0.00  0.00    +0.000 OA
ATOM     23  H   UNL     1      -4.365  12.221  20.038  0.00  0.00    +0.000 HD
ENDBRANCH  20  22
BRANCH  20  24
ATOM     24  C   UNL     1      -2.809  12.630  21.794  0.00  0.00    +0.000 C 
BRANCH  24  25
ATOM     25  P   UNL     1      -4.376  13.312  22.246  0.00  0.00    +0.000 P 
ATOM     26  O   UNL     1      -4.713  14.643  21.659  0.00  0.00    +0.000 OA
BRANCH  25  27
ATOM     27  O   UNL     1      -5.456  12.174  21.939  0.00  0.00    +0.000 OA
ATOM     28  H   UNL     1      -5.344  11.386  22.524  0.00  0.00    +0.000 HD
ENDBRANCH  25  27
BRANCH  25  29
ATOM     29  O   UNL     1      -4.409  13.327  23.848  0.00  0.00    +0.000 OA
ATOM     30  H   UNL     1      -3.747  12.692  24.184  0.00  0.00    +0.000 HD
ENDBRANCH  25  29
ENDBRANCH  24  25
ENDBRANCH  20  24
ENDBRANCH  19  20
ENDBRANCH  18  19
ENDBRANCH  17  18
ENDBRANCH   4  17
TORSDOF 13
ENDMDL
MODEL 7
REMARK VINA RESULT:      -6.8      2.007      3.548
REMARK  Name = 
REMARK  17 active torsions:
REMARK  status: ('A' for Active; 'I' for Inactive)
REMARK    1  A    between atoms: C_1  and  C_2
REMARK    2  A    between atoms: C_2  and  C_3
REMARK    3  A    between atoms: C_4  and  C_5
REMARK    4  A    between atoms: C_5  and  C_6
REMARK    5  A    between atoms: C_6  and  C_7
REMARK    6  A    between atoms: C_7  and  C_8
REMARK    7  A    between atoms: C_9  and  C_10
REMARK    8  A    between atoms: C_13  and  C_14
REMARK    9  A    between atoms: C_14  and  O_15
REMARK   10  A    between atoms: O_15  and  C_16
REMARK   11  A    between atoms: C_16  and  P_17
REMARK   12  A    between atoms: P_17  and  O_19
REMARK   13  A    between atoms: P_17  and  C_20
REMARK   14  A    between atoms: C_20  and  P_21
REMARK   15  A    between atoms: P_21  and  O_23
REMARK   16  A    between atoms: P_21  and  O_24
REMARK   17  A    between atoms: C_25  and  C_26
REMARK                            x       y       z     vdW  Elec       q    Type
REMARK                         _______ _______ _______ _____ _____    ______ ____
ROOT
ATOM      1  C   UNL     1       3.424   6.219  17.932  0.00  0.00    +0.000 A 
ATOM      2  C   UNL     1       2.988   7.538  17.938  0.00  0.00    +0.000 A 
ATOM      3  C   UNL     1       2.229   8.002  19.007  0.00  0.00    +0.000 A 
ATOM      4  C   UNL     1       1.877   7.156  20.083  0.00  0.00    +0.000 A 
ATOM      5  C   UNL     1       2.336   5.820  20.085  0.00  0.00    +0.000 A 
ATOM      6  C   UNL     1       2.055   4.798  21.152  0.00  0.00    +0.000 C 
ATOM      7  C   UNL     1       3.105   5.374  18.998  0.00  0.00    +0.000 A 
ENDROOT
BRANCH   1  10
ATOM      8  C   UNL     1       4.624   4.446  16.617  0.00  0.00    +0.000 C 
ATOM      9  C   UNL     1       3.962   3.284  17.312  0.00  0.00    +0.000 C 
ATOM     10  C   UNL     1       4.311   5.727  16.886  0.00  0.00    +0.000 C 
BRANCH   8  11
ATOM     11  C   UNL     1       5.682   4.089  15.580  0.00  0.00    +0.000 C 
BRANCH  11  12
ATOM     12  C   UNL     1       7.066   4.697  15.864  0.00  0.00    +0.000 C 
BRANCH  12  16
ATOM     13  C   UNL     1       7.870   5.662  19.543  0.00  0.00    +0.000 C 
ATOM     14  C   UNL     1       7.621   5.790  18.067  0.00  0.00    +0.000 C 
ATOM     15  C   UNL     1       7.542   7.183  17.500  0.00  0.00    +0.000 C 
ATOM     16  C   UNL     1       7.463   4.685  17.311  0.00  0.00    +0.000 C 
ENDBRANCH  12  16
ENDBRANCH  11  12
ENDBRANCH   8  11
ENDBRANCH   1  10
BRANCH   4  17
ATOM     17  C   UNL     1       0.902   7.726  21.094  0.00  0.00    +0.000 C 
BRANCH  17  18
ATOM     18  O   UNL     1       1.476   8.868  21.775  0.00  0.00    +0.000 OA
BRANCH  18  19
ATOM     19  C   UNL     1       0.462   9.851  21.986  0.00  0.00    +0.000 C 
BRANCH  19  20
ATOM     20  P   UNL     1       0.666  11.312  20.904  0.00  0.00    +0.000 P 
ATOM     21  O   UNL     1      -0.495  10.813  20.029  0.00  0.00    +0.000 OA
BRANCH  20  22
ATOM     22  O   UNL     1       0.001  12.311  22.066  0.00  0.00    +0.000 OA
ATOM     23  H   UNL     1       0.530  13.133  22.198  0.00  0.00    +0.000 HD
ENDBRANCH  20  22
BRANCH  20  24
ATOM     24  C   UNL     1       0.871  12.775  19.822  0.00  0.00    +0.000 C 
BRANCH  24  25
ATOM     25  P   UNL     1      -0.404  13.870  19.275  0.00  0.00    +0.000 P 
ATOM     26  O   UNL     1      -1.447  14.227  20.281  0.00  0.00    +0.000 OA
BRANCH  25  27
ATOM     27  O   UNL     1       0.344  15.131  18.638  0.00  0.00    +0.000 OA
ATOM     28  H   UNL     1       1.258  15.244  18.996  0.00  0.00    +0.000 HD
ENDBRANCH  25  27
BRANCH  25  29
ATOM     29  O   UNL     1      -1.029  13.202  17.959  0.00  0.00    +0.000 OA
ATOM     30  H   UNL     1      -1.845  13.681  17.718  0.00  0.00    +0.000 HD
ENDBRANCH  25  29
ENDBRANCH  24  25
ENDBRANCH  20  24
ENDBRANCH  19  20
ENDBRANCH  18  19
ENDBRANCH  17  18
ENDBRANCH   4  17
TORSDOF 13
ENDMDL
MODEL 8
REMARK VINA RESULT:      -6.8      2.903      4.948
REMARK  Name = 
REMARK  17 active torsions:
REMARK  status: ('A' for Active; 'I' for Inactive)
REMARK    1  A    between atoms: C_1  and  C_2
REMARK    2  A    between atoms: C_2  and  C_3
REMARK    3  A    between atoms: C_4  and  C_5
REMARK    4  A    between atoms: C_5  and  C_6
REMARK    5  A    between atoms: C_6  and  C_7
REMARK    6  A    between atoms: C_7  and  C_8
REMARK    7  A    between atoms: C_9  and  C_10
REMARK    8  A    between atoms: C_13  and  C_14
REMARK    9  A    between atoms: C_14  and  O_15
REMARK   10  A    between atoms: O_15  and  C_16
REMARK   11  A    between atoms: C_16  and  P_17
REMARK   12  A    between atoms: P_17  and  O_19
REMARK   13  A    between atoms: P_17  and  C_20
REMARK   14  A    between atoms: C_20  and  P_21
REMARK   15  A    between atoms: P_21  and  O_23
REMARK   16  A    between atoms: P_21  and  O_24
REMARK   17  A    between atoms: C_25  and  C_26
REMARK                            x       y       z     vdW  Elec       q    Type
REMARK                         _______ _______ _______ _____ _____    ______ ____
ROOT
ATOM      1  C   UNL     1       2.371   7.313  19.317  0.00  0.00    +0.000 A 
ATOM      2  C   UNL     1       2.198   8.172  18.239  0.00  0.00    +0.000 A 
ATOM      3  C   UNL     1       1.448   9.332  18.403  0.00  0.00    +0.000 A 
ATOM      4  C   UNL     1       0.842   9.650  19.640  0.00  0.00    +0.000 A 
ATOM      5  C   UNL     1       1.034   8.784  20.741  0.00  0.00    +0.000 A 
ATOM      6  C   UNL     1       0.464   8.980  22.119  0.00  0.00    +0.000 C 
ATOM      7  C   UNL     1       1.799   7.621  20.554  0.00  0.00    +0.000 A 
ENDROOT
BRANCH   1  10
ATOM      8  C   UNL     1       2.865   4.859  19.098  0.00  0.00    +0.000 C 
ATOM      9  C   UNL     1       1.428   4.442  18.915  0.00  0.00    +0.000 C 
ATOM     10  C   UNL     1       3.239   6.147  19.215  0.00  0.00    +0.000 C 
BRANCH   8  11
ATOM     11  C   UNL     1       3.886   3.729  19.146  0.00  0.00    +0.000 C 
BRANCH  11  12
ATOM     12  C   UNL     1       4.168   3.084  17.778  0.00  0.00    +0.000 C 
BRANCH  12  16
ATOM     13  C   UNL     1       5.623   5.521  15.122  0.00  0.00    +0.000 C 
ATOM     14  C   UNL     1       5.513   4.677  16.359  0.00  0.00    +0.000 C 
ATOM     15  C   UNL     1       6.745   4.542  17.215  0.00  0.00    +0.000 C 
ATOM     16  C   UNL     1       4.349   4.063  16.656  0.00  0.00    +0.000 C 
ENDBRANCH  12  16
ENDBRANCH  11  12
ENDBRANCH   8  11
ENDBRANCH   1  10
BRANCH   4  17
ATOM     17  C   UNL     1      -0.092  10.842  19.643  0.00  0.00    +0.000 C 
BRANCH  17  18
ATOM     18  O   UNL     1       0.575  12.018  20.161  0.00  0.00    +0.000 OA
BRANCH  18  19
ATOM     19  C   UNL     1      -0.400  12.998  20.517  0.00  0.00    +0.000 C 
BRANCH  19  20
ATOM     20  P   UNL     1      -1.505  12.432  21.861  0.00  0.00    +0.000 P 
ATOM     21  O   UNL     1      -0.334  12.536  22.852  0.00  0.00    +0.000 OA
BRANCH  20  22
ATOM     22  O   UNL     1      -2.290  13.906  21.886  0.00  0.00    +0.000 OA
ATOM     23  H   UNL     1      -3.234  13.830  21.610  0.00  0.00    +0.000 HD
ENDBRANCH  20  22
BRANCH  20  24
ATOM     24  C   UNL     1      -2.610  11.865  23.206  0.00  0.00    +0.000 C 
BRANCH  24  25
ATOM     25  P   UNL     1      -3.906  12.795  23.968  0.00  0.00    +0.000 P 
ATOM     26  O   UNL     1      -3.497  14.040  24.681  0.00  0.00    +0.000 OA
BRANCH  25  27
ATOM     27  O   UNL     1      -5.007  13.028  22.832  0.00  0.00    +0.000 OA
ATOM     28  H   UNL     1      -4.870  13.879  22.349  0.00  0.00    +0.000 HD
ENDBRANCH  25  27
BRANCH  25  29
ATOM     29  O   UNL     1      -4.683  11.771  24.926  0.00  0.00    +0.000 OA
ATOM     30  H   UNL     1      -5.498  12.199  25.253  0.00  0.00    +0.000 HD
ENDBRANCH  25  29
ENDBRANCH  24  25
ENDBRANCH  20  24
ENDBRANCH  19  20
ENDBRANCH  18  19
ENDBRANCH  17  18
ENDBRANCH   4  17
TORSDOF 13
ENDMDL
MODEL 9
REMARK VINA RESULT:      -6.8      0.872      1.324
REMARK  Name = 
REMARK  17 active torsions:
REMARK  status: ('A' for Active; 'I' for Inactive)
REMARK    1  A    between atoms: C_1  and  C_2
REMARK    2  A    between atoms: C_2  and  C_3
REMARK    3  A    between atoms: C_4  and  C_5
REMARK    4  A    between atoms: C_5  and  C_6
REMARK    5  A    between atoms: C_6  and  C_7
REMARK    6  A    between atoms: C_7  and  C_8
REMARK    7  A    between atoms: C_9  and  C_10
REMARK    8  A    between atoms: C_13  and  C_14
REMARK    9  A    between atoms: C_14  and  O_15
REMARK   10  A    between atoms: O_15  and  C_16
REMARK   11  A    between atoms: C_16  and  P_17
REMARK   12  A    between atoms: P_17  and  O_19
REMARK   13  A    between atoms: P_17  and  C_20
REMARK   14  A    between atoms: C_20  and  P_21
REMARK   15  A    between atoms: P_21  and  O_23
REMARK   16  A    between atoms: P_21  and  O_24
REMARK   17  A    between atoms: C_25  and  C_26
REMARK                            x       y       z     vdW  Elec       q    Type
REMARK                         _______ _______ _______ _____ _____    ______ ____
ROOT
ATOM      1  C   UNL     1       4.091   5.441  17.208  0.00  0.00    +0.000 A 
ATOM      2  C   UNL     1       3.846   6.798  17.375  0.00  0.00    +0.000 A 
ATOM      3  C   UNL     1       3.137   7.232  18.492  0.00  0.00    +0.000 A 
ATOM      4  C   UNL     1       2.646   6.320  19.453  0.00  0.00    +0.000 A 
ATOM      5  C   UNL     1       2.912   4.941  19.291  0.00  0.00    +0.000 A 
ATOM      6  C   UNL     1       2.466   3.848  20.222  0.00  0.00    +0.000 C 
ATOM      7  C   UNL     1       3.633   4.526  18.160  0.00  0.00    +0.000 A 
ENDROOT
BRANCH   1  10
ATOM      8  C   UNL     1       6.266   4.950  16.050  0.00  0.00    +0.000 C 
ATOM      9  C   UNL     1       7.137   5.335  17.219  0.00  0.00    +0.000 C 
ATOM     10  C   UNL     1       4.921   4.959  16.112  0.00  0.00    +0.000 C 
BRANCH   8  11
ATOM     11  C   UNL     1       6.999   4.546  14.777  0.00  0.00    +0.000 C 
BRANCH  11  12
ATOM     12  C   UNL     1       6.074   4.321  13.568  0.00  0.00    +0.000 C 
BRANCH  12  16
ATOM     13  C   UNL     1       6.028   1.404  10.998  0.00  0.00    +0.000 C 
ATOM     14  C   UNL     1       5.580   2.593  11.800  0.00  0.00    +0.000 C 
ATOM     15  C   UNL     1       4.268   3.226  11.418  0.00  0.00    +0.000 C 
ATOM     16  C   UNL     1       6.350   3.060  12.803  0.00  0.00    +0.000 C 
ENDBRANCH  12  16
ENDBRANCH  11  12
ENDBRANCH   8  11
ENDBRANCH   1  10
BRANCH   4  17
ATOM     17  C   UNL     1       1.741   6.895  20.523  0.00  0.00    +0.000 C 
BRANCH  17  18
ATOM     18  O   UNL     1       1.773   8.343  20.501  0.00  0.00    +0.000 OA
BRANCH  18  19
ATOM     19  C   UNL     1       1.016   8.850  21.600  0.00  0.00    +0.000 C 
BRANCH  19  20
ATOM     20  P   UNL     1       0.452  10.569  21.329  0.00  0.00    +0.000 P 
ATOM     21  O   UNL     1      -0.702  10.043  20.461  0.00  0.00    +0.000 OA
BRANCH  20  22
ATOM     22  O   UNL     1      -0.126  10.664  22.894  0.00  0.00    +0.000 OA
ATOM     23  H   UNL     1      -1.073  10.939  22.925  0.00  0.00    +0.000 HD
ENDBRANCH  20  22
BRANCH  20  24
ATOM     24  C   UNL     1      -0.111  12.290  21.060  0.00  0.00    +0.000 C 
BRANCH  24  25
ATOM     25  P   UNL     1      -0.233  13.130  19.509  0.00  0.00    +0.000 P 
ATOM     26  O   UNL     1       0.552  14.392  19.376  0.00  0.00    +0.000 OA
BRANCH  25  27
ATOM     27  O   UNL     1       0.099  12.037  18.390  0.00  0.00    +0.000 OA
ATOM     28  H   UNL     1       1.038  12.089  18.084  0.00  0.00    +0.000 HD
ENDBRANCH  25  27
BRANCH  25  29
ATOM     29  O   UNL     1      -1.798  13.355  19.247  0.00  0.00    +0.000 OA
ATOM     30  H   UNL     1      -1.995  14.309  19.308  0.00  0.00    +0.000 HD
ENDBRANCH  25  29
ENDBRANCH  24  25
ENDBRANCH  20  24
ENDBRANCH  19  20
ENDBRANCH  18  19
ENDBRANCH  17  18
ENDBRANCH   4  17
TORSDOF 13
ENDMDL
