MODEL 1
REMARK VINA RESULT:      -8.3      0.000      0.000
REMARK  Name = 
REMARK  6 active torsions:
REMARK  status: ('A' for Active; 'I' for Inactive)
REMARK    1  A    between atoms: C_6  and  C_7
REMARK    2  A    between atoms: C_6  and  C_8
REMARK    3  A    between atoms: C_8  and  O_9
REMARK    4  A    between atoms: C_14  and  C_15
REMARK    5  A    between atoms: C_16  and  C_17
REMARK    6  A    between atoms: C_18  and  C_19
REMARK                            x       y       z     vdW  Elec       q    Type
REMARK                         _______ _______ _______ _____ _____    ______ ____
ROOT
ATOM      1  C   UNL     1       1.115   3.909  20.031  0.00  0.00    +0.000 C 
ATOM      2  C   UNL     1       1.727   4.213  18.870  0.00  0.00    +0.000 C 
ATOM      3  C   UNL     1       2.064   3.116  17.884  0.00  0.00    +0.000 C 
ATOM      4  C   UNL     1       3.546   3.088  17.477  0.00  0.00    +0.000 C 
ATOM      5  C   UNL     1       4.098   4.475  17.092  0.00  0.00    +0.000 C 
ATOM      6  C   UNL     1       5.587   4.499  16.557  0.00  0.00    +0.000 C 
ATOM      7  C   UNL     1       5.838   3.373  15.525  0.00  0.00    +0.000 C 
ATOM      8  C   UNL     1       5.722   5.858  15.878  0.00  0.00    +0.000 C 
ATOM      9  O   UNL     1       6.180   5.987  14.742  0.00  0.00    +0.000 OA
ATOM     10  C   UNL     1       5.415   7.077  16.718  0.00  0.00    +0.000 C 
ATOM     11  C   UNL     1       4.234   6.958  17.680  0.00  0.00    +0.000 C 
ATOM     12  C   UNL     1       3.787   5.552  18.193  0.00  0.00    +0.000 C 
ATOM     13  C   UNL     1       4.446   5.203  19.565  0.00  0.00    +0.000 C 
ATOM     14  C   UNL     1       2.207   5.608  18.454  0.00  0.00    +0.000 C 
ENDROOT
BRANCH  14  15
ATOM     15  C   UNL     1       1.873   6.668  19.497  0.00  0.00    +0.000 C 
ATOM     16  C   UNL     1       1.529   7.957  19.332  0.00  0.00    +0.000 C 
BRANCH  16  17
ATOM     17  C   UNL     1       1.258   8.815  20.461  0.00  0.00    +0.000 C 
ATOM     18  C   UNL     1       1.197   8.501  21.756  0.00  0.00    +0.000 C 
ATOM     19  C   UNL     1       0.841   9.666  22.579  0.00  0.00    +0.000 C 
ATOM     20  O   UNL     1       0.770  10.740  21.649  0.00  0.00    +0.000 OA
ATOM     21  C   UNL     1       1.022  10.273  20.392  0.00  0.00    +0.000 C 
ATOM     22  O   UNL     1       1.053  10.952  19.385  0.00  0.00    +0.000 OA
ENDBRANCH  16  17
ENDBRANCH  14  15
BRANCH   6  23
ATOM     23  C   UNL     1       6.770   4.430  17.542  0.00  0.00    +0.000 C 
BRANCH  23  24
ATOM     24  O   UNL     1       8.015   4.447  16.858  0.00  0.00    +0.000 OA
ATOM     25  H   UNL     1       8.429   3.576  16.988  0.00  0.00    +0.000 HD
ENDBRANCH  23  24
ENDBRANCH   6  23
TORSDOF 4
ENDMDL
MODEL 2
REMARK VINA RESULT:      -8.0      2.564      4.292
REMARK  Name = 
REMARK  6 active torsions:
REMARK  status: ('A' for Active; 'I' for Inactive)
REMARK    1  A    between atoms: C_6  and  C_7
REMARK    2  A    between atoms: C_6  and  C_8
REMARK    3  A    between atoms: C_8  and  O_9
REMARK    4  A    between atoms: C_14  and  C_15
REMARK    5  A    between atoms: C_16  and  C_17
REMARK    6  A    between atoms: C_18  and  C_19
REMARK                            x       y       z     vdW  Elec       q    Type
REMARK                         _______ _______ _______ _____ _____    ______ ____
ROOT
ATOM      1  C   UNL     1       4.143   7.357  16.711  0.00  0.00    +0.000 C 
ATOM      2  C   UNL     1       4.243   6.576  17.805  0.00  0.00    +0.000 C 
ATOM      3  C   UNL     1       5.326   5.525  17.886  0.00  0.00    +0.000 C 
ATOM      4  C   UNL     1       4.795   4.113  18.180  0.00  0.00    +0.000 C 
ATOM      5  C   UNL     1       3.786   4.073  19.347  0.00  0.00    +0.000 C 
ATOM      6  C   UNL     1       3.284   2.635  19.773  0.00  0.00    +0.000 C 
ATOM      7  C   UNL     1       4.457   1.629  19.873  0.00  0.00    +0.000 C 
ATOM      8  C   UNL     1       2.668   2.844  21.153  0.00  0.00    +0.000 C 
ATOM      9  O   UNL     1       2.951   2.132  22.118  0.00  0.00    +0.000 OA
ATOM     10  C   UNL     1       1.565   3.872  21.261  0.00  0.00    +0.000 C 
ATOM     11  C   UNL     1       1.743   5.148  20.441  0.00  0.00    +0.000 C 
ATOM     12  C   UNL     1       2.641   5.133  19.163  0.00  0.00    +0.000 C 
ATOM     13  C   UNL     1       1.801   4.877  17.872  0.00  0.00    +0.000 C 
ATOM     14  C   UNL     1       3.283   6.591  19.000  0.00  0.00    +0.000 C 
ENDROOT
BRANCH  14  15
ATOM     15  C   UNL     1       2.192   7.645  18.852  0.00  0.00    +0.000 C 
ATOM     16  C   UNL     1       1.743   8.548  19.740  0.00  0.00    +0.000 C 
BRANCH  16  17
ATOM     17  C   UNL     1       0.679   9.466  19.410  0.00  0.00    +0.000 C 
ATOM     18  C   UNL     1       0.322   9.939  18.215  0.00  0.00    +0.000 C 
ATOM     19  C   UNL     1      -0.788  10.897  18.321  0.00  0.00    +0.000 C 
ATOM     20  O   UNL     1      -1.119  10.892  19.705  0.00  0.00    +0.000 OA
ATOM     21  C   UNL     1      -0.279  10.049  20.373  0.00  0.00    +0.000 C 
ATOM     22  O   UNL     1      -0.322   9.815  21.564  0.00  0.00    +0.000 OA
ENDBRANCH  16  17
ENDBRANCH  14  15
BRANCH   6  23
ATOM     23  C   UNL     1       2.191   1.918  18.958  0.00  0.00    +0.000 C 
BRANCH  23  24
ATOM     24  O   UNL     1       2.661   1.557  17.666  0.00  0.00    +0.000 OA
ATOM     25  H   UNL     1       2.274   0.691  17.448  0.00  0.00    +0.000 HD
ENDBRANCH  23  24
ENDBRANCH   6  23
TORSDOF 4
ENDMDL
MODEL 3
REMARK VINA RESULT:      -7.6      2.534      4.239
REMARK  Name = 
REMARK  6 active torsions:
REMARK  status: ('A' for Active; 'I' for Inactive)
REMARK    1  A    between atoms: C_6  and  C_7
REMARK    2  A    between atoms: C_6  and  C_8
REMARK    3  A    between atoms: C_8  and  O_9
REMARK    4  A    between atoms: C_14  and  C_15
REMARK    5  A    between atoms: C_16  and  C_17
REMARK    6  A    between atoms: C_18  and  C_19
REMARK                            x       y       z     vdW  Elec       q    Type
REMARK                         _______ _______ _______ _____ _____    ______ ____
ROOT
ATOM      1  C   UNL     1       4.156   7.403  16.640  0.00  0.00    +0.000 C 
ATOM      2  C   UNL     1       4.247   6.626  17.737  0.00  0.00    +0.000 C 
ATOM      3  C   UNL     1       5.304   5.548  17.813  0.00  0.00    +0.000 C 
ATOM      4  C   UNL     1       4.740   4.151  18.120  0.00  0.00    +0.000 C 
ATOM      5  C   UNL     1       3.743   4.143  19.297  0.00  0.00    +0.000 C 
ATOM      6  C   UNL     1       3.209   2.721  19.737  0.00  0.00    +0.000 C 
ATOM      7  C   UNL     1       4.356   1.686  19.831  0.00  0.00    +0.000 C 
ATOM      8  C   UNL     1       2.612   2.953  21.121  0.00  0.00    +0.000 C 
ATOM      9  O   UNL     1       2.886   2.240  22.088  0.00  0.00    +0.000 OA
ATOM     10  C   UNL     1       1.536   4.009  21.235  0.00  0.00    +0.000 C 
ATOM     11  C   UNL     1       1.739   5.276  20.406  0.00  0.00    +0.000 C 
ATOM     12  C   UNL     1       2.623   5.231  19.119  0.00  0.00    +0.000 C 
ATOM     13  C   UNL     1       1.763   4.990  17.838  0.00  0.00    +0.000 C 
ATOM     14  C   UNL     1       3.300   6.672  18.942  0.00  0.00    +0.000 C 
ENDROOT
BRANCH  14  15
ATOM     15  C   UNL     1       2.235   7.752  18.798  0.00  0.00    +0.000 C 
ATOM     16  C   UNL     1       1.872   8.720  19.656  0.00  0.00    +0.000 C 
BRANCH  16  17
ATOM     17  C   UNL     1       0.817   9.653  19.338  0.00  0.00    +0.000 C 
ATOM     18  C   UNL     1      -0.488   9.562  19.596  0.00  0.00    +0.000 C 
ATOM     19  C   UNL     1      -1.229  10.710  19.054  0.00  0.00    +0.000 C 
ATOM     20  O   UNL     1      -0.218  11.549  18.507  0.00  0.00    +0.000 OA
ATOM     21  C   UNL     1       1.002  10.959  18.668  0.00  0.00    +0.000 C 
ATOM     22  O   UNL     1       2.063  11.437  18.323  0.00  0.00    +0.000 OA
ENDBRANCH  16  17
ENDBRANCH  14  15
BRANCH   6  23
ATOM     23  C   UNL     1       2.090   2.027  18.936  0.00  0.00    +0.000 C 
BRANCH  23  24
ATOM     24  O   UNL     1       2.566   1.552  17.685  0.00  0.00    +0.000 OA
ATOM     25  H   UNL     1       1.936   1.848  17.004  0.00  0.00    +0.000 HD
ENDBRANCH  23  24
ENDBRANCH   6  23
TORSDOF 4
ENDMDL
MODEL 4
REMARK VINA RESULT:      -7.6      0.761      1.207
REMARK  Name = 
REMARK  6 active torsions:
REMARK  status: ('A' for Active; 'I' for Inactive)
REMARK    1  A    between atoms: C_6  and  C_7
REMARK    2  A    between atoms: C_6  and  C_8
REMARK    3  A    between atoms: C_8  and  O_9
REMARK    4  A    between atoms: C_14  and  C_15
REMARK    5  A    between atoms: C_16  and  C_17
REMARK    6  A    between atoms: C_18  and  C_19
REMARK                            x       y       z     vdW  Elec       q    Type
REMARK                         _______ _______ _______ _____ _____    ______ ____
ROOT
ATOM      1  C   UNL     1       1.126   4.469  19.972  0.00  0.00    +0.000 C 
ATOM      2  C   UNL     1       1.771   4.593  18.795  0.00  0.00    +0.000 C 
ATOM      3  C   UNL     1       2.085   3.362  17.975  0.00  0.00    +0.000 C 
ATOM      4  C   UNL     1       3.572   3.228  17.610  0.00  0.00    +0.000 C 
ATOM      5  C   UNL     1       4.183   4.532  17.055  0.00  0.00    +0.000 C 
ATOM      6  C   UNL     1       5.681   4.432  16.557  0.00  0.00    +0.000 C 
ATOM      7  C   UNL     1       5.910   3.170  15.692  0.00  0.00    +0.000 C 
ATOM      8  C   UNL     1       5.879   5.682  15.704  0.00  0.00    +0.000 C 
ATOM      9  O   UNL     1       6.363   5.640  14.572  0.00  0.00    +0.000 OA
ATOM     10  C   UNL     1       5.601   7.013  16.366  0.00  0.00    +0.000 C 
ATOM     11  C   UNL     1       4.399   7.065  17.307  0.00  0.00    +0.000 C 
ATOM     12  C   UNL     1       3.890   5.757  17.993  0.00  0.00    +0.000 C 
ATOM     13  C   UNL     1       4.510   5.575  19.415  0.00  0.00    +0.000 C 
ATOM     14  C   UNL     1       2.310   5.902  18.208  0.00  0.00    +0.000 C 
ENDROOT
BRANCH  14  15
ATOM     15  C   UNL     1       1.995   7.104  19.090  0.00  0.00    +0.000 C 
ATOM     16  C   UNL     1       1.425   8.278  18.770  0.00  0.00    +0.000 C 
BRANCH  16  17
ATOM     17  C   UNL     1       1.219   9.310  19.759  0.00  0.00    +0.000 C 
ATOM     18  C   UNL     1       1.052  10.621  19.580  0.00  0.00    +0.000 C 
ATOM     19  C   UNL     1       0.924  11.331  20.860  0.00  0.00    +0.000 C 
ATOM     20  O   UNL     1       0.954  10.296  21.836  0.00  0.00    +0.000 OA
ATOM     21  C   UNL     1       1.116   9.090  21.218  0.00  0.00    +0.000 C 
ATOM     22  O   UNL     1       1.159   8.014  21.780  0.00  0.00    +0.000 OA
ENDBRANCH  16  17
ENDBRANCH  14  15
BRANCH   6  23
ATOM     23  C   UNL     1       6.842   4.457  17.570  0.00  0.00    +0.000 C 
BRANCH  23  24
ATOM     24  O   UNL     1       8.101   4.382  16.916  0.00  0.00    +0.000 OA
ATOM     25  H   UNL     1       8.277   5.255  16.523  0.00  0.00    +0.000 HD
ENDBRANCH  23  24
ENDBRANCH   6  23
TORSDOF 4
ENDMDL
MODEL 5
REMARK VINA RESULT:      -7.1      1.063      1.220
REMARK  Name = 
REMARK  6 active torsions:
REMARK  status: ('A' for Active; 'I' for Inactive)
REMARK    1  A    between atoms: C_6  and  C_7
REMARK    2  A    between atoms: C_6  and  C_8
REMARK    3  A    between atoms: C_8  and  O_9
REMARK    4  A    between atoms: C_14  and  C_15
REMARK    5  A    between atoms: C_16  and  C_17
REMARK    6  A    between atoms: C_18  and  C_19
REMARK                            x       y       z     vdW  Elec       q    Type
REMARK                         _______ _______ _______ _____ _____    ______ ____
ROOT
ATOM      1  C   UNL     1       1.459   5.059  20.410  0.00  0.00    +0.000 C 
ATOM      2  C   UNL     1       1.944   4.942  19.158  0.00  0.00    +0.000 C 
ATOM      3  C   UNL     1       2.191   3.571  18.570  0.00  0.00    +0.000 C 
ATOM      4  C   UNL     1       3.623   3.373  18.048  0.00  0.00    +0.000 C 
ATOM      5  C   UNL     1       4.117   4.538  17.166  0.00  0.00    +0.000 C 
ATOM      6  C   UNL     1       5.542   4.346  16.507  0.00  0.00    +0.000 C 
ATOM      7  C   UNL     1       5.699   2.935  15.893  0.00  0.00    +0.000 C 
ATOM      8  C   UNL     1       5.590   5.396  15.401  0.00  0.00    +0.000 C 
ATOM      9  O   UNL     1       5.927   5.126  14.247  0.00  0.00    +0.000 OA
ATOM     10  C   UNL     1       5.356   6.833  15.810  0.00  0.00    +0.000 C 
ATOM     11  C   UNL     1       4.282   7.070  16.869  0.00  0.00    +0.000 C 
ATOM     12  C   UNL     1       3.906   5.928  17.867  0.00  0.00    +0.000 C 
ATOM     13  C   UNL     1       4.707   6.044  19.202  0.00  0.00    +0.000 C 
ATOM     14  C   UNL     1       2.362   6.106  18.252  0.00  0.00    +0.000 C 
ENDROOT
BRANCH  14  15
ATOM     15  C   UNL     1       2.123   7.461  18.906  0.00  0.00    +0.000 C 
ATOM     16  C   UNL     1       1.364   8.491  18.496  0.00  0.00    +0.000 C 
BRANCH  16  17
ATOM     17  C   UNL     1       1.276   9.713  19.260  0.00  0.00    +0.000 C 
ATOM     18  C   UNL     1       0.752   9.908  20.471  0.00  0.00    +0.000 C 
ATOM     19  C   UNL     1       0.817  11.322  20.868  0.00  0.00    +0.000 C 
ATOM     20  O   UNL     1       1.510  11.952  19.797  0.00  0.00    +0.000 OA
ATOM     21  C   UNL     1       1.804  11.028  18.837  0.00  0.00    +0.000 C 
ATOM     22  O   UNL     1       2.410  11.254  17.809  0.00  0.00    +0.000 OA
ENDBRANCH  16  17
ENDBRANCH  14  15
BRANCH   6  23
ATOM     23  C   UNL     1       6.820   4.584  17.333  0.00  0.00    +0.000 C 
BRANCH  23  24
ATOM     24  O   UNL     1       7.985   4.478  16.526  0.00  0.00    +0.000 OA
ATOM     25  H   UNL     1       7.695   4.475  15.597  0.00  0.00    +0.000 HD
ENDBRANCH  23  24
ENDBRANCH   6  23
TORSDOF 4
ENDMDL
MODEL 6
REMARK VINA RESULT:      -7.1      2.475      4.197
REMARK  Name = 
REMARK  6 active torsions:
REMARK  status: ('A' for Active; 'I' for Inactive)
REMARK    1  A    between atoms: C_6  and  C_7
REMARK    2  A    between atoms: C_6  and  C_8
REMARK    3  A    between atoms: C_8  and  O_9
REMARK    4  A    between atoms: C_14  and  C_15
REMARK    5  A    between atoms: C_16  and  C_17
REMARK    6  A    between atoms: C_18  and  C_19
REMARK                            x       y       z     vdW  Elec       q    Type
REMARK                         _______ _______ _______ _____ _____    ______ ____
ROOT
ATOM      1  C   UNL     1       3.108   7.987  17.211  0.00  0.00    +0.000 C 
ATOM      2  C   UNL     1       3.516   7.035  18.073  0.00  0.00    +0.000 C 
ATOM      3  C   UNL     1       4.575   6.040  17.654  0.00  0.00    +0.000 C 
ATOM      4  C   UNL     1       4.147   4.574  17.829  0.00  0.00    +0.000 C 
ATOM      5  C   UNL     1       3.517   4.285  19.207  0.00  0.00    +0.000 C 
ATOM      6  C   UNL     1       3.155   2.772  19.494  0.00  0.00    +0.000 C 
ATOM      7  C   UNL     1       4.304   1.823  19.075  0.00  0.00    +0.000 C 
ATOM      8  C   UNL     1       2.963   2.709  21.006  0.00  0.00    +0.000 C 
ATOM      9  O   UNL     1       3.510   1.857  21.707  0.00  0.00    +0.000 OA
ATOM     10  C   UNL     1       1.940   3.648  21.605  0.00  0.00    +0.000 C 
ATOM     11  C   UNL     1       1.878   5.054  21.010  0.00  0.00    +0.000 C 
ATOM     12  C   UNL     1       2.370   5.303  19.549  0.00  0.00    +0.000 C 
ATOM     13  C   UNL     1       1.193   5.233  18.525  0.00  0.00    +0.000 C 
ATOM     14  C   UNL     1       2.941   6.797  19.475  0.00  0.00    +0.000 C 
ENDROOT
BRANCH  14  15
ATOM     15  C   UNL     1       1.857   7.806  19.833  0.00  0.00    +0.000 C 
ATOM     16  C   UNL     1       1.766   8.630  20.891  0.00  0.00    +0.000 C 
BRANCH  16  17
ATOM     17  C   UNL     1       0.638   9.515  21.061  0.00  0.00    +0.000 C 
ATOM     18  C   UNL     1      -0.158  10.045  20.132  0.00  0.00    +0.000 C 
ATOM     19  C   UNL     1      -1.161  10.941  20.725  0.00  0.00    +0.000 C 
ATOM     20  O   UNL     1      -0.937  10.835  22.126  0.00  0.00    +0.000 OA
ATOM     21  C   UNL     1       0.111   9.992  22.358  0.00  0.00    +0.000 C 
ATOM     22  O   UNL     1       0.533   9.683  23.454  0.00  0.00    +0.000 OA
ENDBRANCH  16  17
ENDBRANCH  14  15
BRANCH   6  23
ATOM     23  C   UNL     1       1.872   2.153  18.907  0.00  0.00    +0.000 C 
BRANCH  23  24
ATOM     24  O   UNL     1       2.044   1.800  17.542  0.00  0.00    +0.000 OA
ATOM     25  H   UNL     1       1.180   1.899  17.105  0.00  0.00    +0.000 HD
ENDBRANCH  23  24
ENDBRANCH   6  23
TORSDOF 4
ENDMDL
MODEL 7
REMARK VINA RESULT:      -7.0      3.372      7.461
REMARK  Name = 
REMARK  6 active torsions:
REMARK  status: ('A' for Active; 'I' for Inactive)
REMARK    1  A    between atoms: C_6  and  C_7
REMARK    2  A    between atoms: C_6  and  C_8
REMARK    3  A    between atoms: C_8  and  O_9
REMARK    4  A    between atoms: C_14  and  C_15
REMARK    5  A    between atoms: C_16  and  C_17
REMARK    6  A    between atoms: C_18  and  C_19
REMARK                            x       y       z     vdW  Elec       q    Type
REMARK                         _______ _______ _______ _____ _____    ______ ____
ROOT
ATOM      1  C   UNL     1       5.917   7.052  17.153  0.00  0.00    +0.000 C 
ATOM      2  C   UNL     1       4.715   6.497  17.403  0.00  0.00    +0.000 C 
ATOM      3  C   UNL     1       3.853   7.034  18.523  0.00  0.00    +0.000 C 
ATOM      4  C   UNL     1       3.418   5.961  19.534  0.00  0.00    +0.000 C 
ATOM      5  C   UNL     1       2.866   4.684  18.868  0.00  0.00    +0.000 C 
ATOM      6  C   UNL     1       2.298   3.584  19.853  0.00  0.00    +0.000 C 
ATOM      7  C   UNL     1       1.395   4.209  20.944  0.00  0.00    +0.000 C 
ATOM      8  C   UNL     1       1.467   2.670  18.959  0.00  0.00    +0.000 C 
ATOM      9  O   UNL     1       0.313   2.342  19.240  0.00  0.00    +0.000 OA
ATOM     10  C   UNL     1       2.170   2.045  17.775  0.00  0.00    +0.000 C 
ATOM     11  C   UNL     1       3.165   2.933  17.031  0.00  0.00    +0.000 C 
ATOM     12  C   UNL     1       3.844   4.130  17.770  0.00  0.00    +0.000 C 
ATOM     13  C   UNL     1       5.232   3.728  18.363  0.00  0.00    +0.000 C 
ATOM     14  C   UNL     1       4.133   5.273  16.685  0.00  0.00    +0.000 C 
ENDROOT
BRANCH  14  15
ATOM     15  C   UNL     1       5.056   4.753  15.590  0.00  0.00    +0.000 C 
ATOM     16  C   UNL     1       4.924   4.816  14.254  0.00  0.00    +0.000 C 
BRANCH  16  17
ATOM     17  C   UNL     1       5.914   4.246  13.371  0.00  0.00    +0.000 C 
ATOM     18  C   UNL     1       5.771   3.278  12.465  0.00  0.00    +0.000 C 
ATOM     19  C   UNL     1       7.046   2.956  11.810  0.00  0.00    +0.000 C 
ATOM     20  O   UNL     1       7.966   3.892  12.361  0.00  0.00    +0.000 OA
ATOM     21  C   UNL     1       7.327   4.675  13.277  0.00  0.00    +0.000 C 
ATOM     22  O   UNL     1       7.839   5.580  13.905  0.00  0.00    +0.000 OA
ENDBRANCH  16  17
ENDBRANCH  14  15
BRANCH   6  23
ATOM     23  C   UNL     1       3.258   2.638  20.601  0.00  0.00    +0.000 C 
BRANCH  23  24
ATOM     24  O   UNL     1       2.850   2.446  21.948  0.00  0.00    +0.000 OA
ATOM     25  H   UNL     1       3.202   3.190  22.467  0.00  0.00    +0.000 HD
ENDBRANCH  23  24
ENDBRANCH   6  23
TORSDOF 4
ENDMDL
MODEL 8
REMARK VINA RESULT:      -7.0      1.384      1.830
REMARK  Name = 
REMARK  6 active torsions:
REMARK  status: ('A' for Active; 'I' for Inactive)
REMARK    1  A    between atoms: C_6  and  C_7
REMARK    2  A    between atoms: C_6  and  C_8
REMARK    3  A    between atoms: C_8  and  O_9
REMARK    4  A    between atoms: C_14  and  C_15
REMARK    5  A    between atoms: C_16  and  C_17
REMARK    6  A    between atoms: C_18  and  C_19
REMARK                            x       y       z     vdW  Elec       q    Type
REMARK                         _______ _______ _______ _____ _____    ______ ____
ROOT
ATOM      1  C   UNL     1       1.708   5.696  20.483  0.00  0.00    +0.000 C 
ATOM      2  C   UNL     1       2.106   5.355  19.242  0.00  0.00    +0.000 C 
ATOM      3  C   UNL     1       2.298   3.898  18.885  0.00  0.00    +0.000 C 
ATOM      4  C   UNL     1       3.689   3.582  18.313  0.00  0.00    +0.000 C 
ATOM      5  C   UNL     1       4.133   4.567  17.212  0.00  0.00    +0.000 C 
ATOM      6  C   UNL     1       5.507   4.234  16.504  0.00  0.00    +0.000 C 
ATOM      7  C   UNL     1       5.609   2.734  16.135  0.00  0.00    +0.000 C 
ATOM      8  C   UNL     1       5.491   5.075  15.232  0.00  0.00    +0.000 C 
ATOM      9  O   UNL     1       5.745   4.604  14.123  0.00  0.00    +0.000 OA
ATOM     10  C   UNL     1       5.300   6.566  15.400  0.00  0.00    +0.000 C 
ATOM     11  C   UNL     1       4.303   7.006  16.471  0.00  0.00    +0.000 C 
ATOM     12  C   UNL     1       3.985   6.061  17.673  0.00  0.00    +0.000 C 
ATOM     13  C   UNL     1       4.876   6.388  18.913  0.00  0.00    +0.000 C 
ATOM     14  C   UNL     1       2.472   6.336  18.123  0.00  0.00    +0.000 C 
ENDROOT
BRANCH  14  15
ATOM     15  C   UNL     1       2.293   7.788  18.546  0.00  0.00    +0.000 C 
ATOM     16  C   UNL     1       1.546   8.759  17.992  0.00  0.00    +0.000 C 
BRANCH  16  17
ATOM     17  C   UNL     1       1.516  10.094  18.542  0.00  0.00    +0.000 C 
ATOM     18  C   UNL     1       2.172  11.182  18.135  0.00  0.00    +0.000 C 
ATOM     19  C   UNL     1       1.901  12.335  19.005  0.00  0.00    +0.000 C 
ATOM     20  O   UNL     1       0.946  11.847  19.941  0.00  0.00    +0.000 OA
ATOM     21  C   UNL     1       0.689  10.531  19.687  0.00  0.00    +0.000 C 
ATOM     22  O   UNL     1      -0.098   9.839  20.301  0.00  0.00    +0.000 OA
ENDBRANCH  16  17
ENDBRANCH  14  15
BRANCH   6  23
ATOM     23  C   UNL     1       6.842   4.583  17.190  0.00  0.00    +0.000 C 
BRANCH  23  24
ATOM     24  O   UNL     1       7.931   4.492  16.282  0.00  0.00    +0.000 OA
ATOM     25  H   UNL     1       8.542   3.819  16.629  0.00  0.00    +0.000 HD
ENDBRANCH  23  24
ENDBRANCH   6  23
TORSDOF 4
ENDMDL
MODEL 9
REMARK VINA RESULT:      -6.8      2.484      4.011
REMARK  Name = 
REMARK  6 active torsions:
REMARK  status: ('A' for Active; 'I' for Inactive)
REMARK    1  A    between atoms: C_6  and  C_7
REMARK    2  A    between atoms: C_6  and  C_8
REMARK    3  A    between atoms: C_8  and  O_9
REMARK    4  A    between atoms: C_14  and  C_15
REMARK    5  A    between atoms: C_16  and  C_17
REMARK    6  A    between atoms: C_18  and  C_19
REMARK                            x       y       z     vdW  Elec       q    Type
REMARK                         _______ _______ _______ _____ _____    ______ ____
ROOT
ATOM      1  C   UNL     1       2.414   8.166  17.589  0.00  0.00    +0.000 C 
ATOM      2  C   UNL     1       3.035   7.185  18.273  0.00  0.00    +0.000 C 
ATOM      3  C   UNL     1       4.048   6.305  17.577  0.00  0.00    +0.000 C 
ATOM      4  C   UNL     1       3.748   4.802  17.701  0.00  0.00    +0.000 C 
ATOM      5  C   UNL     1       3.414   4.365  19.142  0.00  0.00    +0.000 C 
ATOM      6  C   UNL     1       3.203   2.813  19.359  0.00  0.00    +0.000 C 
ATOM      7  C   UNL     1       4.302   1.985  18.651  0.00  0.00    +0.000 C 
ATOM      8  C   UNL     1       3.311   2.624  20.869  0.00  0.00    +0.000 C 
ATOM      9  O   UNL     1       4.031   1.764  21.378  0.00  0.00    +0.000 OA
ATOM     10  C   UNL     1       2.370   3.438  21.729  0.00  0.00    +0.000 C 
ATOM     11  C   UNL     1       2.114   4.875  21.282  0.00  0.00    +0.000 C 
ATOM     12  C   UNL     1       2.298   5.268  19.781  0.00  0.00    +0.000 C 
ATOM     13  C   UNL     1       0.951   5.188  18.995  0.00  0.00    +0.000 C 
ATOM     14  C   UNL     1       2.757   6.802  19.731  0.00  0.00    +0.000 C 
ENDROOT
BRANCH  14  15
ATOM     15  C   UNL     1       1.705   7.698  20.373  0.00  0.00    +0.000 C 
ATOM     16  C   UNL     1       1.849   8.671  21.289  0.00  0.00    +0.000 C 
BRANCH  16  17
ATOM     17  C   UNL     1       0.714   9.410  21.789  0.00  0.00    +0.000 C 
ATOM     18  C   UNL     1       0.166   9.382  23.004  0.00  0.00    +0.000 C 
ATOM     19  C   UNL     1      -1.016  10.252  23.086  0.00  0.00    +0.000 C 
ATOM     20  O   UNL     1      -1.078  10.874  21.807  0.00  0.00    +0.000 OA
ATOM     21  C   UNL     1      -0.065  10.407  21.022  0.00  0.00    +0.000 C 
ATOM     22  O   UNL     1       0.160  10.762  19.883  0.00  0.00    +0.000 OA
ENDBRANCH  16  17
ENDBRANCH  14  15
BRANCH   6  23
ATOM     23  C   UNL     1       1.869   2.147  18.972  0.00  0.00    +0.000 C 
BRANCH  23  24
ATOM     24  O   UNL     1       1.842   1.801  17.595  0.00  0.00    +0.000 OA
ATOM     25  H   UNL     1       1.178   2.370  17.166  0.00  0.00    +0.000 HD
ENDBRANCH  23  24
ENDBRANCH   6  23
TORSDOF 4
ENDMDL
