MODEL 1
REMARK VINA RESULT:      -7.3      0.000      0.000
REMARK  Name = 
REMARK  9 active torsions:
REMARK  status: ('A' for Active; 'I' for Inactive)
REMARK    1  A    between atoms: C_1  and  O_2
REMARK    2  A    between atoms: O_2  and  C_3
REMARK    3  A    between atoms: C_7  and  C_8
REMARK    4  A    between atoms: C_12  and  C_13
REMARK    5  A    between atoms: N_15  and  C_16
REMARK    6  A    between atoms: C_24  and  O_25
REMARK    7  A    between atoms: O_25  and  C_26
REMARK    8  A    between atoms: C_27  and  O_28
REMARK    9  A    between atoms: O_28  and  C_29
REMARK                            x       y       z     vdW  Elec       q    Type
REMARK                         _______ _______ _______ _____ _____    ______ ____
ROOT
ATOM      1  C   UNL     1      -0.599  12.995  19.685  0.00  0.00    +0.000 A 
ATOM      2  N   UNL     1      -0.349  14.203  19.108  0.00  0.00    +0.000 NA
ATOM      3  C   UNL     1       0.068  15.137  19.967  0.00  0.00    +0.000 A 
ATOM      4  C   UNL     1       0.002  15.037  21.346  0.00  0.00    +0.000 A 
ATOM      5  C   UNL     1       1.064  15.916  21.731  0.00  0.00    +0.000 A 
ATOM      6  C   UNL     1       1.934  15.870  22.941  0.00  0.00    +0.000 C 
ATOM      7  N   UNL     1       1.385  16.788  20.758  0.00  0.00    +0.000 NA
ATOM      8  N   UNL     1       0.663  16.363  19.683  0.00  0.00    +0.000 N 
ATOM      9  C   UNL     1      -0.574  13.817  21.826  0.00  0.00    +0.000 A 
ATOM     10  C   UNL     1      -1.757  13.576  22.578  0.00  0.00    +0.000 A 
ATOM     11  C   UNL     1      -2.059  12.263  22.974  0.00  0.00    +0.000 A 
ATOM     12  C   UNL     1      -1.046  11.324  22.856  0.00  0.00    +0.000 A 
ATOM     13  C   UNL     1      -0.145  11.551  21.822  0.00  0.00    +0.000 A 
ATOM     14  C   UNL     1      -0.251  12.738  21.056  0.00  0.00    +0.000 A 
ENDROOT
BRANCH   1  19
ATOM     15  C   UNL     1      -2.581  10.733  17.244  0.00  0.00    +0.000 A 
ATOM     16  C   UNL     1      -3.894  10.891  17.743  0.00  0.00    +0.000 A 
ATOM     17  C   UNL     1      -4.112  11.715  18.828  0.00  0.00    +0.000 A 
ATOM     18  C   UNL     1      -3.036  12.379  19.402  0.00  0.00    +0.000 A 
ATOM     19  C   UNL     1      -1.695  12.274  18.926  0.00  0.00    +0.000 A 
ATOM     20  C   UNL     1      -1.505  11.403  17.842  0.00  0.00    +0.000 A 
BRANCH  15  22
ATOM     21  C   UNL     1      -3.130  10.290  14.984  0.00  0.00    +0.000 C 
ATOM     22  O   UNL     1      -2.533   9.856  16.193  0.00  0.00    +0.000 OA
ENDBRANCH  15  22
ENDBRANCH   1  19
BRANCH   8  23
ATOM     23  C   UNL     1       0.610  17.098  18.464  0.00  0.00    +0.000 A 
ATOM     24  C   UNL     1       1.775  17.261  17.688  0.00  0.00    +0.000 A 
ATOM     25  C   UNL     1       1.736  18.023  16.517  0.00  0.00    +0.000 A 
ATOM     26  C   UNL     1       0.556  18.631  16.110  0.00  0.00    +0.000 A 
ATOM     27  C   UNL     1      -0.602  18.467  16.879  0.00  0.00    +0.000 A 
ATOM     28  C   UNL     1      -0.568  17.694  18.039  0.00  0.00    +0.000 A 
ENDBRANCH   8  23
BRANCH  11  29
ATOM     29  O   UNL     1      -3.264  11.834  23.436  0.00  0.00    +0.000 OA
ATOM     30  C   UNL     1      -3.981  12.721  24.284  0.00  0.00    +0.000 C 
ENDBRANCH  11  29
BRANCH  12  31
ATOM     31  O   UNL     1      -0.896  10.160  23.549  0.00  0.00    +0.000 OA
ATOM     32  C   UNL     1       0.265   9.367  23.276  0.00  0.00    +0.000 C 
ENDBRANCH  12  31
TORSDOF 5
ENDMDL
MODEL 2
REMARK VINA RESULT:      -7.2      2.317      3.304
REMARK  Name = 
REMARK  9 active torsions:
REMARK  status: ('A' for Active; 'I' for Inactive)
REMARK    1  A    between atoms: C_1  and  O_2
REMARK    2  A    between atoms: O_2  and  C_3
REMARK    3  A    between atoms: C_7  and  C_8
REMARK    4  A    between atoms: C_12  and  C_13
REMARK    5  A    between atoms: N_15  and  C_16
REMARK    6  A    between atoms: C_24  and  O_25
REMARK    7  A    between atoms: O_25  and  C_26
REMARK    8  A    between atoms: C_27  and  O_28
REMARK    9  A    between atoms: O_28  and  C_29
REMARK                            x       y       z     vdW  Elec       q    Type
REMARK                         _______ _______ _______ _____ _____    ______ ____
ROOT
ATOM      1  C   UNL     1      -0.477  12.147  18.321  0.00  0.00    +0.000 A 
ATOM      2  N   UNL     1      -0.650  13.495  18.423  0.00  0.00    +0.000 NA
ATOM      3  C   UNL     1       0.274  14.103  19.172  0.00  0.00    +0.000 A 
ATOM      4  C   UNL     1       1.167  13.461  20.013  0.00  0.00    +0.000 A 
ATOM      5  C   UNL     1       2.234  14.414  20.052  0.00  0.00    +0.000 A 
ATOM      6  C   UNL     1       3.694  14.188  20.249  0.00  0.00    +0.000 C 
ATOM      7  N   UNL     1       1.831  15.648  19.698  0.00  0.00    +0.000 NA
ATOM      8  N   UNL     1       0.555  15.464  19.256  0.00  0.00    +0.000 N 
ATOM      9  C   UNL     1       1.035  12.035  20.042  0.00  0.00    +0.000 A 
ATOM     10  C   UNL     1       0.681  11.152  21.099  0.00  0.00    +0.000 A 
ATOM     11  C   UNL     1       0.687   9.767  20.863  0.00  0.00    +0.000 A 
ATOM     12  C   UNL     1       1.312   9.332  19.705  0.00  0.00    +0.000 A 
ATOM     13  C   UNL     1       1.268  10.221  18.638  0.00  0.00    +0.000 A 
ATOM     14  C   UNL     1       0.706  11.507  18.827  0.00  0.00    +0.000 A 
ENDROOT
BRANCH   1  19
ATOM     15  C   UNL     1      -4.232  11.210  18.477  0.00  0.00    +0.000 A 
ATOM     16  C   UNL     1      -4.273  10.127  17.569  0.00  0.00    +0.000 A 
ATOM     17  C   UNL     1      -3.112   9.721  16.945  0.00  0.00    +0.000 A 
ATOM     18  C   UNL     1      -1.923  10.382  17.230  0.00  0.00    +0.000 A 
ATOM     19  C   UNL     1      -1.820  11.464  18.153  0.00  0.00    +0.000 A 
ATOM     20  C   UNL     1      -3.026  11.872  18.744  0.00  0.00    +0.000 A 
BRANCH  15  22
ATOM     21  C   UNL     1      -6.567  11.318  18.099  0.00  0.00    +0.000 C 
ATOM     22  O   UNL     1      -5.472  11.507  18.978  0.00  0.00    +0.000 OA
ENDBRANCH  15  22
ENDBRANCH   1  19
BRANCH   8  23
ATOM     23  C   UNL     1      -0.294  16.554  18.907  0.00  0.00    +0.000 A 
ATOM     24  C   UNL     1      -1.477  16.786  19.636  0.00  0.00    +0.000 A 
ATOM     25  C   UNL     1      -2.337  17.824  19.265  0.00  0.00    +0.000 A 
ATOM     26  C   UNL     1      -2.039  18.630  18.174  0.00  0.00    +0.000 A 
ATOM     27  C   UNL     1      -0.862  18.401  17.451  0.00  0.00    +0.000 A 
ATOM     28  C   UNL     1       0.003  17.376  17.830  0.00  0.00    +0.000 A 
ENDBRANCH   8  23
BRANCH  11  29
ATOM     29  O   UNL     1       0.112   8.828  21.661  0.00  0.00    +0.000 OA
ATOM     30  C   UNL     1      -0.466   9.281  22.877  0.00  0.00    +0.000 C 
ENDBRANCH  11  29
BRANCH  12  31
ATOM     31  O   UNL     1       1.856   8.108  19.455  0.00  0.00    +0.000 OA
ATOM     32  C   UNL     1       2.573   7.936  18.227  0.00  0.00    +0.000 C 
ENDBRANCH  12  31
TORSDOF 5
ENDMDL
MODEL 3
REMARK VINA RESULT:      -7.1      1.786      2.527
REMARK  Name = 
REMARK  9 active torsions:
REMARK  status: ('A' for Active; 'I' for Inactive)
REMARK    1  A    between atoms: C_1  and  O_2
REMARK    2  A    between atoms: O_2  and  C_3
REMARK    3  A    between atoms: C_7  and  C_8
REMARK    4  A    between atoms: C_12  and  C_13
REMARK    5  A    between atoms: N_15  and  C_16
REMARK    6  A    between atoms: C_24  and  O_25
REMARK    7  A    between atoms: O_25  and  C_26
REMARK    8  A    between atoms: C_27  and  O_28
REMARK    9  A    between atoms: O_28  and  C_29
REMARK                            x       y       z     vdW  Elec       q    Type
REMARK                         _______ _______ _______ _____ _____    ______ ____
ROOT
ATOM      1  C   UNL     1      -1.123  13.543  20.293  0.00  0.00    +0.000 A 
ATOM      2  N   UNL     1      -0.685  14.587  19.535  0.00  0.00    +0.000 NA
ATOM      3  C   UNL     1      -1.152  15.775  19.929  0.00  0.00    +0.000 A 
ATOM      4  C   UNL     1      -2.193  15.965  20.820  0.00  0.00    +0.000 A 
ATOM      5  C   UNL     1      -1.874  17.263  21.333  0.00  0.00    +0.000 A 
ATOM      6  C   UNL     1      -2.171  17.847  22.672  0.00  0.00    +0.000 C 
ATOM      7  N   UNL     1      -1.056  17.950  20.515  0.00  0.00    +0.000 NA
ATOM      8  N   UNL     1      -0.699  17.041  19.565  0.00  0.00    +0.000 N 
ATOM      9  C   UNL     1      -2.777  14.757  21.319  0.00  0.00    +0.000 A 
ATOM     10  C   UNL     1      -4.090  14.227  21.177  0.00  0.00    +0.000 A 
ATOM     11  C   UNL     1      -4.417  13.029  21.833  0.00  0.00    +0.000 A 
ATOM     12  C   UNL     1      -3.534  12.586  22.806  0.00  0.00    +0.000 A 
ATOM     13  C   UNL     1      -2.202  12.926  22.597  0.00  0.00    +0.000 A 
ATOM     14  C   UNL     1      -1.862  13.763  21.506  0.00  0.00    +0.000 A 
ENDROOT
BRANCH   1  19
ATOM     15  C   UNL     1      -2.230  10.799  17.793  0.00  0.00    +0.000 A 
ATOM     16  C   UNL     1      -1.101   9.949  17.816  0.00  0.00    +0.000 A 
ATOM     17  C   UNL     1      -0.031  10.264  18.627  0.00  0.00    +0.000 A 
ATOM     18  C   UNL     1      -0.090  11.408  19.413  0.00  0.00    +0.000 A 
ATOM     19  C   UNL     1      -1.212  12.289  19.446  0.00  0.00    +0.000 A 
ATOM     20  C   UNL     1      -2.268  11.956  18.585  0.00  0.00    +0.000 A 
BRANCH  15  22
ATOM     21  C   UNL     1      -3.038  10.791  15.567  0.00  0.00    +0.000 C 
ATOM     22  O   UNL     1      -3.183  10.364  16.911  0.00  0.00    +0.000 OA
ENDBRANCH  15  22
ENDBRANCH   1  19
BRANCH   8  23
ATOM     23  C   UNL     1       0.065  17.399  18.418  0.00  0.00    +0.000 A 
ATOM     24  C   UNL     1       1.439  17.090  18.363  0.00  0.00    +0.000 A 
ATOM     25  C   UNL     1       2.202  17.484  17.260  0.00  0.00    +0.000 A 
ATOM     26  C   UNL     1       1.618  18.186  16.213  0.00  0.00    +0.000 A 
ATOM     27  C   UNL     1       0.253  18.489  16.266  0.00  0.00    +0.000 A 
ATOM     28  C   UNL     1      -0.512  18.084  17.359  0.00  0.00    +0.000 A 
ENDBRANCH   8  23
BRANCH  11  29
ATOM     29  O   UNL     1      -5.508  12.260  21.575  0.00  0.00    +0.000 OA
ATOM     30  C   UNL     1      -6.776  12.807  21.911  0.00  0.00    +0.000 C 
ENDBRANCH  11  29
BRANCH  12  31
ATOM     31  O   UNL     1      -3.795  11.771  23.866  0.00  0.00    +0.000 OA
ATOM     32  C   UNL     1      -4.560  12.312  24.950  0.00  0.00    +0.000 C 
ENDBRANCH  12  31
TORSDOF 5
ENDMDL
MODEL 4
REMARK VINA RESULT:      -6.7      1.076      1.690
REMARK  Name = 
REMARK  9 active torsions:
REMARK  status: ('A' for Active; 'I' for Inactive)
REMARK    1  A    between atoms: C_1  and  O_2
REMARK    2  A    between atoms: O_2  and  C_3
REMARK    3  A    between atoms: C_7  and  C_8
REMARK    4  A    between atoms: C_12  and  C_13
REMARK    5  A    between atoms: N_15  and  C_16
REMARK    6  A    between atoms: C_24  and  O_25
REMARK    7  A    between atoms: O_25  and  C_26
REMARK    8  A    between atoms: C_27  and  O_28
REMARK    9  A    between atoms: O_28  and  C_29
REMARK                            x       y       z     vdW  Elec       q    Type
REMARK                         _______ _______ _______ _____ _____    ______ ____
ROOT
ATOM      1  C   UNL     1      -0.380  12.789  19.424  0.00  0.00    +0.000 A 
ATOM      2  N   UNL     1      -0.149  14.020  18.889  0.00  0.00    +0.000 NA
ATOM      3  C   UNL     1       0.456  14.868  19.724  0.00  0.00    +0.000 A 
ATOM      4  C   UNL     1       0.602  14.675  21.087  0.00  0.00    +0.000 A 
ATOM      5  C   UNL     1       1.765  15.468  21.348  0.00  0.00    +0.000 A 
ATOM      6  C   UNL     1       2.810  15.292  22.396  0.00  0.00    +0.000 C 
ATOM      7  N   UNL     1       1.982  16.389  20.392  0.00  0.00    +0.000 NA
ATOM      8  N   UNL     1       1.074  16.079  19.423  0.00  0.00    +0.000 N 
ATOM      9  C   UNL     1       0.034  13.456  21.579  0.00  0.00    +0.000 A 
ATOM     10  C   UNL     1      -1.029  13.224  22.496  0.00  0.00    +0.000 A 
ATOM     11  C   UNL     1      -1.346  11.904  22.854  0.00  0.00    +0.000 A 
ATOM     12  C   UNL     1      -0.424  10.925  22.517  0.00  0.00    +0.000 A 
ATOM     13  C   UNL     1       0.315  11.177  21.367  0.00  0.00    +0.000 A 
ATOM     14  C   UNL     1       0.163  12.418  20.702  0.00  0.00    +0.000 A 
ENDROOT
BRANCH   1  19
ATOM     15  C   UNL     1      -4.039  11.912  18.503  0.00  0.00    +0.000 A 
ATOM     16  C   UNL     1      -3.835  11.042  17.407  0.00  0.00    +0.000 A 
ATOM     17  C   UNL     1      -2.549  10.752  17.002  0.00  0.00    +0.000 A 
ATOM     18  C   UNL     1      -1.480  11.316  17.685  0.00  0.00    +0.000 A 
ATOM     19  C   UNL     1      -1.626  12.182  18.809  0.00  0.00    +0.000 A 
ATOM     20  C   UNL     1      -2.948  12.481  19.175  0.00  0.00    +0.000 A 
BRANCH  15  22
ATOM     21  C   UNL     1      -5.803  11.910  20.083  0.00  0.00    +0.000 C 
ATOM     22  O   UNL     1      -5.369  12.123  18.751  0.00  0.00    +0.000 OA
ENDBRANCH  15  22
ENDBRANCH   1  19
BRANCH   8  23
ATOM     23  C   UNL     1       0.875  16.900  18.276  0.00  0.00    +0.000 A 
ATOM     24  C   UNL     1       1.941  17.132  17.383  0.00  0.00    +0.000 A 
ATOM     25  C   UNL     1       1.762  17.977  16.284  0.00  0.00    +0.000 A 
ATOM     26  C   UNL     1       0.540  18.598  16.064  0.00  0.00    +0.000 A 
ATOM     27  C   UNL     1      -0.519  18.364  16.949  0.00  0.00    +0.000 A 
ATOM     28  C   UNL     1      -0.347  17.510  18.037  0.00  0.00    +0.000 A 
ENDBRANCH   8  23
BRANCH  11  29
ATOM     29  O   UNL     1      -2.487  11.508  23.478  0.00  0.00    +0.000 OA
ATOM     30  C   UNL     1      -3.424  12.522  23.814  0.00  0.00    +0.000 C 
ENDBRANCH  11  29
BRANCH  12  31
ATOM     31  O   UNL     1      -0.240   9.709  23.104  0.00  0.00    +0.000 OA
ATOM     32  C   UNL     1      -0.379   8.545  22.282  0.00  0.00    +0.000 C 
ENDBRANCH  12  31
TORSDOF 5
ENDMDL
MODEL 5
REMARK VINA RESULT:      -6.5      2.070      3.037
REMARK  Name = 
REMARK  9 active torsions:
REMARK  status: ('A' for Active; 'I' for Inactive)
REMARK    1  A    between atoms: C_1  and  O_2
REMARK    2  A    between atoms: O_2  and  C_3
REMARK    3  A    between atoms: C_7  and  C_8
REMARK    4  A    between atoms: C_12  and  C_13
REMARK    5  A    between atoms: N_15  and  C_16
REMARK    6  A    between atoms: C_24  and  O_25
REMARK    7  A    between atoms: O_25  and  C_26
REMARK    8  A    between atoms: C_27  and  O_28
REMARK    9  A    between atoms: O_28  and  C_29
REMARK                            x       y       z     vdW  Elec       q    Type
REMARK                         _______ _______ _______ _____ _____    ______ ____
ROOT
ATOM      1  C   UNL     1      -1.373  12.661  20.351  0.00  0.00    +0.000 A 
ATOM      2  N   UNL     1      -0.332  13.370  19.833  0.00  0.00    +0.000 NA
ATOM      3  C   UNL     1      -0.147  14.560  20.412  0.00  0.00    +0.000 A 
ATOM      4  C   UNL     1      -1.051  15.185  21.253  0.00  0.00    +0.000 A 
ATOM      5  C   UNL     1      -0.173  16.016  22.021  0.00  0.00    +0.000 A 
ATOM      6  C   UNL     1      -0.320  16.499  23.423  0.00  0.00    +0.000 C 
ATOM      7  N   UNL     1       1.001  16.229  21.401  0.00  0.00    +0.000 NA
ATOM      8  N   UNL     1       0.962  15.397  20.323  0.00  0.00    +0.000 N 
ATOM      9  C   UNL     1      -2.261  14.451  21.477  0.00  0.00    +0.000 A 
ATOM     10  C   UNL     1      -3.611  14.758  21.153  0.00  0.00    +0.000 A 
ATOM     11  C   UNL     1      -4.626  13.872  21.549  0.00  0.00    +0.000 A 
ATOM     12  C   UNL     1      -4.283  12.901  22.477  0.00  0.00    +0.000 A 
ATOM     13  C   UNL     1      -2.963  12.470  22.423  0.00  0.00    +0.000 A 
ATOM     14  C   UNL     1      -2.061  13.103  21.534  0.00  0.00    +0.000 A 
ENDROOT
BRANCH   1  19
ATOM     15  C   UNL     1      -3.734  11.076  17.721  0.00  0.00    +0.000 A 
ATOM     16  C   UNL     1      -2.878  10.109  17.145  0.00  0.00    +0.000 A 
ATOM     17  C   UNL     1      -1.587   9.981  17.614  0.00  0.00    +0.000 A 
ATOM     18  C   UNL     1      -1.158  10.802  18.649  0.00  0.00    +0.000 A 
ATOM     19  C   UNL     1      -1.983  11.778  19.281  0.00  0.00    +0.000 A 
ATOM     20  C   UNL     1      -3.280  11.904  18.757  0.00  0.00    +0.000 A 
BRANCH  15  22
ATOM     21  C   UNL     1      -5.848  12.125  17.529  0.00  0.00    +0.000 C 
ATOM     22  O   UNL     1      -4.963  11.098  17.118  0.00  0.00    +0.000 OA
ENDBRANCH  15  22
ENDBRANCH   1  19
BRANCH   8  23
ATOM     23  C   UNL     1       1.969  15.408  19.316  0.00  0.00    +0.000 A 
ATOM     24  C   UNL     1       2.936  14.383  19.275  0.00  0.00    +0.000 A 
ATOM     25  C   UNL     1       3.954  14.418  18.318  0.00  0.00    +0.000 A 
ATOM     26  C   UNL     1       4.028  15.462  17.405  0.00  0.00    +0.000 A 
ATOM     27  C   UNL     1       3.067  16.478  17.444  0.00  0.00    +0.000 A 
ATOM     28  C   UNL     1       2.041  16.436  18.387  0.00  0.00    +0.000 A 
ENDBRANCH   8  23
BRANCH  11  29
ATOM     29  O   UNL     1      -5.903  13.873  21.080  0.00  0.00    +0.000 OA
ATOM     30  C   UNL     1      -6.802  14.809  21.661  0.00  0.00    +0.000 C 
ENDBRANCH  11  29
BRANCH  12  31
ATOM     31  O   UNL     1      -5.103  12.245  23.346  0.00  0.00    +0.000 OA
ATOM     32  C   UNL     1      -4.765  12.283  24.737  0.00  0.00    +0.000 C 
ENDBRANCH  12  31
TORSDOF 5
ENDMDL
MODEL 6
REMARK VINA RESULT:      -6.5      3.129      6.565
REMARK  Name = 
REMARK  9 active torsions:
REMARK  status: ('A' for Active; 'I' for Inactive)
REMARK    1  A    between atoms: C_1  and  O_2
REMARK    2  A    between atoms: O_2  and  C_3
REMARK    3  A    between atoms: C_7  and  C_8
REMARK    4  A    between atoms: C_12  and  C_13
REMARK    5  A    between atoms: N_15  and  C_16
REMARK    6  A    between atoms: C_24  and  O_25
REMARK    7  A    between atoms: O_25  and  C_26
REMARK    8  A    between atoms: C_27  and  O_28
REMARK    9  A    between atoms: O_28  and  C_29
REMARK                            x       y       z     vdW  Elec       q    Type
REMARK                         _______ _______ _______ _____ _____    ______ ____
ROOT
ATOM      1  C   UNL     1      -0.250  14.584  20.023  0.00  0.00    +0.000 A 
ATOM      2  N   UNL     1      -0.922  13.658  19.284  0.00  0.00    +0.000 NA
ATOM      3  C   UNL     1      -0.519  12.402  19.495  0.00  0.00    +0.000 A 
ATOM      4  C   UNL     1       0.638  12.039  20.162  0.00  0.00    +0.000 A 
ATOM      5  C   UNL     1       0.281  10.732  20.627  0.00  0.00    +0.000 A 
ATOM      6  C   UNL     1       0.748  10.004  21.840  0.00  0.00    +0.000 C 
ATOM      7  N   UNL     1      -0.735  10.199  19.924  0.00  0.00    +0.000 NA
ATOM      8  N   UNL     1      -1.157  11.221  19.128  0.00  0.00    +0.000 N 
ATOM      9  C   UNL     1       1.424  13.140  20.633  0.00  0.00    +0.000 A 
ATOM     10  C   UNL     1       2.738  13.562  20.291  0.00  0.00    +0.000 A 
ATOM     11  C   UNL     1       3.299  14.660  20.963  0.00  0.00    +0.000 A 
ATOM     12  C   UNL     1       2.652  15.088  22.113  0.00  0.00    +0.000 A 
ATOM     13  C   UNL     1       1.277  14.888  22.128  0.00  0.00    +0.000 A 
ATOM     14  C   UNL     1       0.664  14.189  21.060  0.00  0.00    +0.000 A 
ENDROOT
BRANCH   1  19
ATOM     15  C   UNL     1       0.828  17.536  17.759  0.00  0.00    +0.000 A 
ATOM     16  C   UNL     1      -0.331  18.345  17.808  0.00  0.00    +0.000 A 
ATOM     17  C   UNL     1      -1.410  17.938  18.563  0.00  0.00    +0.000 A 
ATOM     18  C   UNL     1      -1.332  16.742  19.267  0.00  0.00    +0.000 A 
ATOM     19  C   UNL     1      -0.183  15.899  19.271  0.00  0.00    +0.000 A 
ATOM     20  C   UNL     1       0.885  16.327  18.467  0.00  0.00    +0.000 A 
BRANCH  15  22
ATOM     21  C   UNL     1       2.875  17.215  16.612  0.00  0.00    +0.000 C 
ATOM     22  O   UNL     1       1.789  18.064  16.938  0.00  0.00    +0.000 OA
ENDBRANCH  15  22
ENDBRANCH   1  19
BRANCH   8  23
ATOM     23  C   UNL     1      -2.145  11.039  18.117  0.00  0.00    +0.000 A 
ATOM     24  C   UNL     1      -1.852  10.266  16.976  0.00  0.00    +0.000 A 
ATOM     25  C   UNL     1      -2.802  10.128  15.961  0.00  0.00    +0.000 A 
ATOM     26  C   UNL     1      -4.038  10.752  16.061  0.00  0.00    +0.000 A 
ATOM     27  C   UNL     1      -4.330  11.517  17.196  0.00  0.00    +0.000 A 
ATOM     28  C   UNL     1      -3.390  11.644  18.217  0.00  0.00    +0.000 A 
ENDBRANCH   8  23
BRANCH  11  29
ATOM     29  O   UNL     1       4.401  15.350  20.566  0.00  0.00    +0.000 OA
ATOM     30  C   UNL     1       4.728  15.303  19.184  0.00  0.00    +0.000 C 
ENDBRANCH  11  29
BRANCH  12  31
ATOM     31  O   UNL     1       3.180  15.775  23.164  0.00  0.00    +0.000 OA
ATOM     32  C   UNL     1       2.920  17.182  23.238  0.00  0.00    +0.000 C 
ENDBRANCH  12  31
TORSDOF 5
ENDMDL
MODEL 7
REMARK VINA RESULT:      -6.5      3.585      6.515
REMARK  Name = 
REMARK  9 active torsions:
REMARK  status: ('A' for Active; 'I' for Inactive)
REMARK    1  A    between atoms: C_1  and  O_2
REMARK    2  A    between atoms: O_2  and  C_3
REMARK    3  A    between atoms: C_7  and  C_8
REMARK    4  A    between atoms: C_12  and  C_13
REMARK    5  A    between atoms: N_15  and  C_16
REMARK    6  A    between atoms: C_24  and  O_25
REMARK    7  A    between atoms: O_25  and  C_26
REMARK    8  A    between atoms: C_27  and  O_28
REMARK    9  A    between atoms: O_28  and  C_29
REMARK                            x       y       z     vdW  Elec       q    Type
REMARK                         _______ _______ _______ _____ _____    ______ ____
ROOT
ATOM      1  C   UNL     1      -1.503  12.503  20.693  0.00  0.00    +0.000 A 
ATOM      2  N   UNL     1      -2.763  12.540  21.209  0.00  0.00    +0.000 NA
ATOM      3  C   UNL     1      -3.215  13.775  21.444  0.00  0.00    +0.000 A 
ATOM      4  C   UNL     1      -2.437  14.919  21.453  0.00  0.00    +0.000 A 
ATOM      5  C   UNL     1      -3.416  15.913  21.133  0.00  0.00    +0.000 A 
ATOM      6  C   UNL     1      -3.243  17.212  20.423  0.00  0.00    +0.000 C 
ATOM      7  N   UNL     1      -4.670  15.497  21.387  0.00  0.00    +0.000 NA
ATOM      8  N   UNL     1      -4.523  14.179  21.698  0.00  0.00    +0.000 N 
ATOM      9  C   UNL     1      -1.047  14.696  21.190  0.00  0.00    +0.000 A 
ATOM     10  C   UNL     1       0.102  14.903  22.002  0.00  0.00    +0.000 A 
ATOM     11  C   UNL     1       1.374  14.652  21.463  0.00  0.00    +0.000 A 
ATOM     12  C   UNL     1       1.451  14.492  20.088  0.00  0.00    +0.000 A 
ATOM     13  C   UNL     1       0.320  13.948  19.490  0.00  0.00    +0.000 A 
ATOM     14  C   UNL     1      -0.833  13.705  20.277  0.00  0.00    +0.000 A 
ENDROOT
BRANCH   1  19
ATOM     15  C   UNL     1       0.662   9.294  20.832  0.00  0.00    +0.000 A 
ATOM     16  C   UNL     1       0.569   8.971  22.205  0.00  0.00    +0.000 A 
ATOM     17  C   UNL     1      -0.182   9.771  23.040  0.00  0.00    +0.000 A 
ATOM     18  C   UNL     1      -0.839  10.874  22.511  0.00  0.00    +0.000 A 
ATOM     19  C   UNL     1      -0.800  11.234  21.132  0.00  0.00    +0.000 A 
ATOM     20  C   UNL     1       0.000  10.418  20.317  0.00  0.00    +0.000 A 
BRANCH  15  22
ATOM     21  C   UNL     1       1.692   7.163  20.761  0.00  0.00    +0.000 C 
ATOM     22  O   UNL     1       1.473   8.424  20.153  0.00  0.00    +0.000 OA
ENDBRANCH  15  22
ENDBRANCH   1  19
BRANCH   8  23
ATOM     23  C   UNL     1      -5.607  13.382  22.166  0.00  0.00    +0.000 A 
ATOM     24  C   UNL     1      -6.472  12.757  21.245  0.00  0.00    +0.000 A 
ATOM     25  C   UNL     1      -7.565  12.016  21.702  0.00  0.00    +0.000 A 
ATOM     26  C   UNL     1      -7.814  11.892  23.063  0.00  0.00    +0.000 A 
ATOM     27  C   UNL     1      -6.954  12.510  23.978  0.00  0.00    +0.000 A 
ATOM     28  C   UNL     1      -5.854  13.237  23.524  0.00  0.00    +0.000 A 
ENDBRANCH   8  23
BRANCH  11  29
ATOM     29  O   UNL     1       2.524  14.528  22.177  0.00  0.00    +0.000 OA
ATOM     30  C   UNL     1       3.205  15.729  22.516  0.00  0.00    +0.000 C 
ENDBRANCH  11  29
BRANCH  12  31
ATOM     31  O   UNL     1       2.529  14.693  19.280  0.00  0.00    +0.000 OA
ATOM     32  C   UNL     1       2.945  13.608  18.442  0.00  0.00    +0.000 C 
ENDBRANCH  12  31
TORSDOF 5
ENDMDL
MODEL 8
REMARK VINA RESULT:      -6.4      2.304      5.215
REMARK  Name = 
REMARK  9 active torsions:
REMARK  status: ('A' for Active; 'I' for Inactive)
REMARK    1  A    between atoms: C_1  and  O_2
REMARK    2  A    between atoms: O_2  and  C_3
REMARK    3  A    between atoms: C_7  and  C_8
REMARK    4  A    between atoms: C_12  and  C_13
REMARK    5  A    between atoms: N_15  and  C_16
REMARK    6  A    between atoms: C_24  and  O_25
REMARK    7  A    between atoms: O_25  and  C_26
REMARK    8  A    between atoms: C_27  and  O_28
REMARK    9  A    between atoms: O_28  and  C_29
REMARK                            x       y       z     vdW  Elec       q    Type
REMARK                         _______ _______ _______ _____ _____    ______ ____
ROOT
ATOM      1  C   UNL     1      -0.116  12.471  20.909  0.00  0.00    +0.000 A 
ATOM      2  N   UNL     1       1.053  13.160  21.030  0.00  0.00    +0.000 NA
ATOM      3  C   UNL     1       1.155  14.202  20.201  0.00  0.00    +0.000 A 
ATOM      4  C   UNL     1       0.328  14.441  19.117  0.00  0.00    +0.000 A 
ATOM      5  C   UNL     1       0.449  15.862  18.994  0.00  0.00    +0.000 A 
ATOM      6  C   UNL     1      -0.539  16.851  18.476  0.00  0.00    +0.000 C 
ATOM      7  N   UNL     1       1.560  16.334  19.589  0.00  0.00    +0.000 NA
ATOM      8  N   UNL     1       2.065  15.255  20.250  0.00  0.00    +0.000 N 
ATOM      9  C   UNL     1      -0.692  13.456  18.919  0.00  0.00    +0.000 A 
ATOM     10  C   UNL     1      -0.922  12.553  17.845  0.00  0.00    +0.000 A 
ATOM     11  C   UNL     1      -2.053  11.721  17.881  0.00  0.00    +0.000 A 
ATOM     12  C   UNL     1      -3.028  12.030  18.818  0.00  0.00    +0.000 A 
ATOM     13  C   UNL     1      -2.561  12.625  19.985  0.00  0.00    +0.000 A 
ATOM     14  C   UNL     1      -1.190  12.965  20.091  0.00  0.00    +0.000 A 
ENDROOT
BRANCH   1  19
ATOM     15  C   UNL     1       1.062   8.781  20.930  0.00  0.00    +0.000 A 
ATOM     16  C   UNL     1       0.528   8.339  22.163  0.00  0.00    +0.000 A 
ATOM     17  C   UNL     1      -0.195   9.218  22.942  0.00  0.00    +0.000 A 
ATOM     18  C   UNL     1      -0.391  10.518  22.494  0.00  0.00    +0.000 A 
ATOM     19  C   UNL     1       0.105  11.011  21.250  0.00  0.00    +0.000 A 
ATOM     20  C   UNL     1       0.864  10.100  20.499  0.00  0.00    +0.000 A 
BRANCH  15  22
ATOM     21  C   UNL     1       2.116   8.036  18.945  0.00  0.00    +0.000 C 
ATOM     22  O   UNL     1       1.781   7.800  20.301  0.00  0.00    +0.000 OA
ENDBRANCH  15  22
ENDBRANCH   1  19
BRANCH   8  23
ATOM     23  C   UNL     1       3.326  15.289  20.910  0.00  0.00    +0.000 A 
ATOM     24  C   UNL     1       4.507  15.027  20.186  0.00  0.00    +0.000 A 
ATOM     25  C   UNL     1       5.741  15.011  20.842  0.00  0.00    +0.000 A 
ATOM     26  C   UNL     1       5.818  15.246  22.208  0.00  0.00    +0.000 A 
ATOM     27  C   UNL     1       4.645  15.509  22.926  0.00  0.00    +0.000 A 
ATOM     28  C   UNL     1       3.415  15.540  22.272  0.00  0.00    +0.000 A 
ENDBRANCH   8  23
BRANCH  11  29
ATOM     29  O   UNL     1      -2.258  10.630  17.096  0.00  0.00    +0.000 OA
ATOM     30  C   UNL     1      -2.732  10.867  15.777  0.00  0.00    +0.000 C 
ENDBRANCH  11  29
BRANCH  12  31
ATOM     31  O   UNL     1      -4.354  11.720  18.782  0.00  0.00    +0.000 OA
ATOM     32  C   UNL     1      -5.200  12.295  19.784  0.00  0.00    +0.000 C 
ENDBRANCH  12  31
TORSDOF 5
ENDMDL
MODEL 9
REMARK VINA RESULT:      -6.4      1.979      2.810
REMARK  Name = 
REMARK  9 active torsions:
REMARK  status: ('A' for Active; 'I' for Inactive)
REMARK    1  A    between atoms: C_1  and  O_2
REMARK    2  A    between atoms: O_2  and  C_3
REMARK    3  A    between atoms: C_7  and  C_8
REMARK    4  A    between atoms: C_12  and  C_13
REMARK    5  A    between atoms: N_15  and  C_16
REMARK    6  A    between atoms: C_24  and  O_25
REMARK    7  A    between atoms: O_25  and  C_26
REMARK    8  A    between atoms: C_27  and  O_28
REMARK    9  A    between atoms: O_28  and  C_29
REMARK                            x       y       z     vdW  Elec       q    Type
REMARK                         _______ _______ _______ _____ _____    ______ ____
ROOT
ATOM      1  C   UNL     1      -1.568  13.340  20.377  0.00  0.00    +0.000 A 
ATOM      2  N   UNL     1      -0.789  14.254  19.735  0.00  0.00    +0.000 NA
ATOM      3  C   UNL     1      -0.943  15.504  20.180  0.00  0.00    +0.000 A 
ATOM      4  C   UNL     1      -1.969  15.935  21.002  0.00  0.00    +0.000 A 
ATOM      5  C   UNL     1      -1.352  17.063  21.634  0.00  0.00    +0.000 A 
ATOM      6  C   UNL     1      -1.600  17.637  22.986  0.00  0.00    +0.000 C 
ATOM      7  N   UNL     1      -0.303  17.531  20.933  0.00  0.00    +0.000 NA
ATOM      8  N   UNL     1      -0.125  16.607  19.948  0.00  0.00    +0.000 N 
ATOM      9  C   UNL     1      -2.909  14.917  21.364  0.00  0.00    +0.000 A 
ATOM     10  C   UNL     1      -4.298  14.788  21.084  0.00  0.00    +0.000 A 
ATOM     11  C   UNL     1      -5.004  13.700  21.622  0.00  0.00    +0.000 A 
ATOM     12  C   UNL     1      -4.374  12.977  22.623  0.00  0.00    +0.000 A 
ATOM     13  C   UNL     1      -2.987  12.937  22.541  0.00  0.00    +0.000 A 
ATOM     14  C   UNL     1      -2.327  13.697  21.545  0.00  0.00    +0.000 A 
ENDROOT
BRANCH   1  19
ATOM     15  C   UNL     1      -3.380  10.966  17.910  0.00  0.00    +0.000 A 
ATOM     16  C   UNL     1      -2.325  10.091  17.562  0.00  0.00    +0.000 A 
ATOM     17  C   UNL     1      -1.079  10.273  18.125  0.00  0.00    +0.000 A 
ATOM     18  C   UNL     1      -0.890  11.308  19.031  0.00  0.00    +0.000 A 
ATOM     19  C   UNL     1      -1.921  12.206  19.435  0.00  0.00    +0.000 A 
ATOM     20  C   UNL     1      -3.167  12.013  18.818  0.00  0.00    +0.000 A 
BRANCH  15  22
ATOM     21  C   UNL     1      -5.446  11.741  17.053  0.00  0.00    +0.000 C 
ATOM     22  O   UNL     1      -4.535  10.672  17.236  0.00  0.00    +0.000 OA
ENDBRANCH  15  22
ENDBRANCH   1  19
BRANCH   8  23
ATOM     23  C   UNL     1       0.812  16.792  18.891  0.00  0.00    +0.000 A 
ATOM     24  C   UNL     1       2.012  16.052  18.877  0.00  0.00    +0.000 A 
ATOM     25  C   UNL     1       2.955  16.268  17.869  0.00  0.00    +0.000 A 
ATOM     26  C   UNL     1       2.725  17.213  16.877  0.00  0.00    +0.000 A 
ATOM     27  C   UNL     1       1.532  17.945  16.890  0.00  0.00    +0.000 A 
ATOM     28  C   UNL     1       0.584  17.720  17.886  0.00  0.00    +0.000 A 
ENDBRANCH   8  23
BRANCH  11  29
ATOM     29  O   UNL     1      -6.237  13.284  21.225  0.00  0.00    +0.000 OA
ATOM     30  C   UNL     1      -7.342  14.094  21.604  0.00  0.00    +0.000 C 
ENDBRANCH  11  29
BRANCH  12  31
ATOM     31  O   UNL     1      -4.948  12.216  23.596  0.00  0.00    +0.000 OA
ATOM     32  C   UNL     1      -4.473  12.381  24.937  0.00  0.00    +0.000 C 
ENDBRANCH  12  31
TORSDOF 5
ENDMDL
