MODEL 1
REMARK VINA RESULT:      -9.7      0.000      0.000
REMARK  Name = 
REMARK  6 active torsions:
REMARK  status: ('A' for Active; 'I' for Inactive)
REMARK    1  A    between atoms: C_1  and  C_2
REMARK    2  A    between atoms: C_2  and  C_3
REMARK    3  A    between atoms: C_2  and  N_4
REMARK    4  A    between atoms: C_2  and  C_5
REMARK    5  A    between atoms: C_8  and  C_9
REMARK    6  A    between atoms: C_18  and  C_19
REMARK                            x       y       z     vdW  Elec       q    Type
REMARK                         _______ _______ _______ _____ _____    ______ ____
ROOT
ATOM      1  C   UNL     1       3.431   6.721  18.335  0.00  0.00    +0.000 A 
ATOM      2  N   UNL     1       4.004   6.656  17.118  0.00  0.00    +0.000 NA
ATOM      3  C   UNL     1       5.119   5.877  17.096  0.00  0.00    +0.000 A 
ATOM      4  C   UNL     1       5.462   5.006  16.063  0.00  0.00    +0.000 A 
ATOM      5  C   UNL     1       6.624   4.238  16.141  0.00  0.00    +0.000 A 
ATOM      6  C   UNL     1       7.572   4.569  17.101  0.00  0.00    +0.000 A 
ATOM      7  C   UNL     1       7.167   5.379  18.151  0.00  0.00    +0.000 A 
ATOM      8  C   UNL     1       5.808   5.641  18.260  0.00  0.00    +0.000 A 
ATOM      9  N   UNL     1       5.045   5.409  19.369  0.00  0.00    +0.000 NA
ATOM     10  C   UNL     1       3.732   5.706  19.214  0.00  0.00    +0.000 A 
ENDROOT
BRANCH   1  14
ATOM     11  C   UNL     1       0.655   9.882  19.301  0.00  0.00    +0.000 A 
ATOM     12  C   UNL     1       1.061   8.948  20.276  0.00  0.00    +0.000 A 
ATOM     13  C   UNL     1       1.931   7.894  19.974  0.00  0.00    +0.000 A 
ATOM     14  C   UNL     1       2.449   7.758  18.685  0.00  0.00    +0.000 A 
ATOM     15  C   UNL     1       2.056   8.705  17.712  0.00  0.00    +0.000 A 
ATOM     16  C   UNL     1       1.189   9.754  18.016  0.00  0.00    +0.000 A 
BRANCH  11  18
ATOM     17  C   UNL     1      -1.637  10.807  18.771  0.00  0.00    +0.000 C 
ATOM     18  C   UNL     1      -0.381  10.955  19.645  0.00  0.00    +0.000 C 
ATOM     19  C   UNL     1       0.257  12.343  19.442  0.00  0.00    +0.000 C 
BRANCH  18  20
ATOM     20  N   UNL     1      -0.827  10.885  21.050  0.00  0.00    +0.000 NA
ATOM     21  H   UNL     1      -1.644  11.481  21.174  0.00  0.00    +0.000 HD
ATOM     22  H   UNL     1      -0.104  11.288  21.645  0.00  0.00    +0.000 HD
ENDBRANCH  18  20
ENDBRANCH  11  18
ENDBRANCH   1  14
BRANCH  10  23
ATOM     23  C   UNL     1       2.685   4.604  19.333  0.00  0.00    +0.000 A 
ATOM     24  C   UNL     1       2.107   3.958  18.237  0.00  0.00    +0.000 A 
ATOM     25  C   UNL     1       1.123   2.964  18.414  0.00  0.00    +0.000 A 
ATOM     26  C   UNL     1       0.681   2.601  19.679  0.00  0.00    +0.000 A 
ATOM     27  C   UNL     1       1.182   3.255  20.795  0.00  0.00    +0.000 A 
ATOM     28  C   UNL     1       2.141   4.255  20.609  0.00  0.00    +0.000 A 
ENDBRANCH  10  23
TORSDOF 4
ENDMDL
MODEL 2
REMARK VINA RESULT:      -9.7      0.577      1.269
REMARK  Name = 
REMARK  6 active torsions:
REMARK  status: ('A' for Active; 'I' for Inactive)
REMARK    1  A    between atoms: C_1  and  C_2
REMARK    2  A    between atoms: C_2  and  C_3
REMARK    3  A    between atoms: C_2  and  N_4
REMARK    4  A    between atoms: C_2  and  C_5
REMARK    5  A    between atoms: C_8  and  C_9
REMARK    6  A    between atoms: C_18  and  C_19
REMARK                            x       y       z     vdW  Elec       q    Type
REMARK                         _______ _______ _______ _____ _____    ______ ____
ROOT
ATOM      1  C   UNL     1       3.375   6.744  18.376  0.00  0.00    +0.000 A 
ATOM      2  N   UNL     1       3.941   6.660  17.156  0.00  0.00    +0.000 NA
ATOM      3  C   UNL     1       5.052   5.875  17.138  0.00  0.00    +0.000 A 
ATOM      4  C   UNL     1       5.384   4.989  16.115  0.00  0.00    +0.000 A 
ATOM      5  C   UNL     1       6.542   4.215  16.196  0.00  0.00    +0.000 A 
ATOM      6  C   UNL     1       7.497   4.553  17.148  0.00  0.00    +0.000 A 
ATOM      7  C   UNL     1       7.102   5.378  18.189  0.00  0.00    +0.000 A 
ATOM      8  C   UNL     1       5.746   5.649  18.302  0.00  0.00    +0.000 A 
ATOM      9  N   UNL     1       4.987   5.435  19.417  0.00  0.00    +0.000 NA
ATOM     10  C   UNL     1       3.675   5.738  19.265  0.00  0.00    +0.000 A 
ENDROOT
BRANCH   1  14
ATOM     11  C   UNL     1       0.622   9.933  19.315  0.00  0.00    +0.000 A 
ATOM     12  C   UNL     1       1.032   9.013  20.302  0.00  0.00    +0.000 A 
ATOM     13  C   UNL     1       1.895   7.950  20.009  0.00  0.00    +0.000 A 
ATOM     14  C   UNL     1       2.401   7.791  18.718  0.00  0.00    +0.000 A 
ATOM     15  C   UNL     1       2.004   8.724  17.733  0.00  0.00    +0.000 A 
ATOM     16  C   UNL     1       1.144   9.782  18.027  0.00  0.00    +0.000 A 
BRANCH  11  18
ATOM     17  C   UNL     1      -0.762  10.991  21.146  0.00  0.00    +0.000 C 
ATOM     18  C   UNL     1      -0.406  11.017  19.651  0.00  0.00    +0.000 C 
ATOM     19  C   UNL     1      -1.664  10.789  18.793  0.00  0.00    +0.000 C 
BRANCH  18  20
ATOM     20  N   UNL     1       0.084  12.376  19.352  0.00  0.00    +0.000 NA
ATOM     21  H   UNL     1       0.381  12.825  20.217  0.00  0.00    +0.000 HD
ATOM     22  H   UNL     1      -0.695  12.938  19.008  0.00  0.00    +0.000 HD
ENDBRANCH  18  20
ENDBRANCH  11  18
ENDBRANCH   1  14
BRANCH  10  23
ATOM     23  C   UNL     1       2.622   4.644  19.404  0.00  0.00    +0.000 A 
ATOM     24  C   UNL     1       2.014   4.298  20.614  0.00  0.00    +0.000 A 
ATOM     25  C   UNL     1       1.064   3.258  20.680  0.00  0.00    +0.000 A 
ATOM     26  C   UNL     1       0.710   2.530  19.552  0.00  0.00    +0.000 A 
ATOM     27  C   UNL     1       1.329   2.797  18.340  0.00  0.00    +0.000 A 
ATOM     28  C   UNL     1       2.285   3.815  18.288  0.00  0.00    +0.000 A 
ENDBRANCH  10  23
TORSDOF 4
ENDMDL
MODEL 3
REMARK VINA RESULT:      -9.6      0.560      1.272
REMARK  Name = 
REMARK  6 active torsions:
REMARK  status: ('A' for Active; 'I' for Inactive)
REMARK    1  A    between atoms: C_1  and  C_2
REMARK    2  A    between atoms: C_2  and  C_3
REMARK    3  A    between atoms: C_2  and  N_4
REMARK    4  A    between atoms: C_2  and  C_5
REMARK    5  A    between atoms: C_8  and  C_9
REMARK    6  A    between atoms: C_18  and  C_19
REMARK                            x       y       z     vdW  Elec       q    Type
REMARK                         _______ _______ _______ _____ _____    ______ ____
ROOT
ATOM      1  C   UNL     1       3.484   6.787  18.294  0.00  0.00    +0.000 A 
ATOM      2  N   UNL     1       4.061   6.713  17.079  0.00  0.00    +0.000 NA
ATOM      3  C   UNL     1       5.158   5.908  17.059  0.00  0.00    +0.000 A 
ATOM      4  C   UNL     1       5.485   5.033  16.024  0.00  0.00    +0.000 A 
ATOM      5  C   UNL     1       6.628   4.238  16.105  0.00  0.00    +0.000 A 
ATOM      6  C   UNL     1       7.579   4.542  17.072  0.00  0.00    +0.000 A 
ATOM      7  C   UNL     1       7.188   5.357  18.123  0.00  0.00    +0.000 A 
ATOM      8  C   UNL     1       5.836   5.651  18.226  0.00  0.00    +0.000 A 
ATOM      9  N   UNL     1       5.061   5.433  19.330  0.00  0.00    +0.000 NA
ATOM     10  C   UNL     1       3.757   5.762  19.170  0.00  0.00    +0.000 A 
ENDROOT
BRANCH   1  14
ATOM     11  C   UNL     1       0.569   9.777  19.385  0.00  0.00    +0.000 A 
ATOM     12  C   UNL     1       1.060   9.688  18.066  0.00  0.00    +0.000 A 
ATOM     13  C   UNL     1       2.032   8.750  17.701  0.00  0.00    +0.000 A 
ATOM     14  C   UNL     1       2.526   7.846  18.643  0.00  0.00    +0.000 A 
ATOM     15  C   UNL     1       2.020   7.924  19.961  0.00  0.00    +0.000 A 
ATOM     16  C   UNL     1       1.052   8.859  20.322  0.00  0.00    +0.000 A 
BRANCH  11  18
ATOM     17  C   UNL     1      -0.757  10.822  21.266  0.00  0.00    +0.000 C 
ATOM     18  C   UNL     1      -0.415  10.886  19.769  0.00  0.00    +0.000 C 
ATOM     19  C   UNL     1      -1.689  10.735  18.917  0.00  0.00    +0.000 C 
BRANCH  18  20
ATOM     20  N   UNL     1       0.122  12.235  19.512  0.00  0.00    +0.000 NA
ATOM     21  H   UNL     1      -0.526  12.931  19.877  0.00  0.00    +0.000 HD
ATOM     22  H   UNL     1       0.149  12.392  18.504  0.00  0.00    +0.000 HD
ENDBRANCH  18  20
ENDBRANCH  11  18
ENDBRANCH   1  14
BRANCH  10  23
ATOM     23  C   UNL     1       2.683   4.685  19.279  0.00  0.00    +0.000 A 
ATOM     24  C   UNL     1       2.114   4.039  18.179  0.00  0.00    +0.000 A 
ATOM     25  C   UNL     1       1.105   3.068  18.346  0.00  0.00    +0.000 A 
ATOM     26  C   UNL     1       0.628   2.731  19.606  0.00  0.00    +0.000 A 
ATOM     27  C   UNL     1       1.121   3.387  20.724  0.00  0.00    +0.000 A 
ATOM     28  C   UNL     1       2.105   4.363  20.547  0.00  0.00    +0.000 A 
ENDBRANCH  10  23
TORSDOF 4
ENDMDL
MODEL 4
REMARK VINA RESULT:      -9.2      1.757      4.187
REMARK  Name = 
REMARK  6 active torsions:
REMARK  status: ('A' for Active; 'I' for Inactive)
REMARK    1  A    between atoms: C_1  and  C_2
REMARK    2  A    between atoms: C_2  and  C_3
REMARK    3  A    between atoms: C_2  and  N_4
REMARK    4  A    between atoms: C_2  and  C_5
REMARK    5  A    between atoms: C_8  and  C_9
REMARK    6  A    between atoms: C_18  and  C_19
REMARK                            x       y       z     vdW  Elec       q    Type
REMARK                         _______ _______ _______ _____ _____    ______ ____
ROOT
ATOM      1  C   UNL     1       3.103   5.915  18.803  0.00  0.00    +0.000 A 
ATOM      2  N   UNL     1       2.882   4.989  19.756  0.00  0.00    +0.000 NA
ATOM      3  C   UNL     1       3.208   3.729  19.359  0.00  0.00    +0.000 A 
ATOM      4  C   UNL     1       3.832   2.777  20.163  0.00  0.00    +0.000 A 
ATOM      5  C   UNL     1       4.138   1.513  19.658  0.00  0.00    +0.000 A 
ATOM      6  C   UNL     1       3.551   1.121  18.460  0.00  0.00    +0.000 A 
ATOM      7  C   UNL     1       3.008   2.111  17.656  0.00  0.00    +0.000 A 
ATOM      8  C   UNL     1       3.256   3.427  18.019  0.00  0.00    +0.000 A 
ATOM      9  N   UNL     1       3.815   4.378  17.214  0.00  0.00    +0.000 NA
ATOM     10  C   UNL     1       3.997   5.579  17.812  0.00  0.00    +0.000 A 
ENDROOT
BRANCH   1  14
ATOM     11  C   UNL     1       1.219   9.791  19.042  0.00  0.00    +0.000 A 
ATOM     12  C   UNL     1       1.800   9.338  17.840  0.00  0.00    +0.000 A 
ATOM     13  C   UNL     1       2.448   8.100  17.752  0.00  0.00    +0.000 A 
ATOM     14  C   UNL     1       2.510   7.258  18.863  0.00  0.00    +0.000 A 
ATOM     15  C   UNL     1       1.911   7.705  20.064  0.00  0.00    +0.000 A 
ATOM     16  C   UNL     1       1.266   8.938  20.149  0.00  0.00    +0.000 A 
BRANCH  11  18
ATOM     17  C   UNL     1       0.727  11.757  20.552  0.00  0.00    +0.000 C 
ATOM     18  C   UNL     1       0.614  11.194  19.126  0.00  0.00    +0.000 C 
ATOM     19  C   UNL     1      -0.861  11.126  18.688  0.00  0.00    +0.000 C 
BRANCH  18  20
ATOM     20  N   UNL     1       1.287  12.157  18.233  0.00  0.00    +0.000 NA
ATOM     21  H   UNL     1       2.060  12.595  18.731  0.00  0.00    +0.000 HD
ATOM     22  H   UNL     1       0.638  12.914  18.017  0.00  0.00    +0.000 HD
ENDBRANCH  18  20
ENDBRANCH  11  18
ENDBRANCH   1  14
BRANCH  10  23
ATOM     23  C   UNL     1       5.405   6.140  17.977  0.00  0.00    +0.000 A 
ATOM     24  C   UNL     1       5.926   7.177  17.198  0.00  0.00    +0.000 A 
ATOM     25  C   UNL     1       7.247   7.634  17.383  0.00  0.00    +0.000 A 
ATOM     26  C   UNL     1       8.083   7.062  18.333  0.00  0.00    +0.000 A 
ATOM     27  C   UNL     1       7.631   5.992  19.090  0.00  0.00    +0.000 A 
ATOM     28  C   UNL     1       6.328   5.531  18.885  0.00  0.00    +0.000 A 
ENDBRANCH  10  23
TORSDOF 4
ENDMDL
MODEL 5
REMARK VINA RESULT:      -8.8      1.697      4.355
REMARK  Name = 
REMARK  6 active torsions:
REMARK  status: ('A' for Active; 'I' for Inactive)
REMARK    1  A    between atoms: C_1  and  C_2
REMARK    2  A    between atoms: C_2  and  C_3
REMARK    3  A    between atoms: C_2  and  N_4
REMARK    4  A    between atoms: C_2  and  C_5
REMARK    5  A    between atoms: C_8  and  C_9
REMARK    6  A    between atoms: C_18  and  C_19
REMARK                            x       y       z     vdW  Elec       q    Type
REMARK                         _______ _______ _______ _____ _____    ______ ____
ROOT
ATOM      1  C   UNL     1       2.213   6.596  19.184  0.00  0.00    +0.000 A 
ATOM      2  N   UNL     1       1.875   5.896  20.284  0.00  0.00    +0.000 NA
ATOM      3  C   UNL     1       1.833   4.554  20.069  0.00  0.00    +0.000 A 
ATOM      4  C   UNL     1       2.286   3.588  20.966  0.00  0.00    +0.000 A 
ATOM      5  C   UNL     1       2.211   2.233  20.645  0.00  0.00    +0.000 A 
ATOM      6  C   UNL     1       1.418   1.850  19.570  0.00  0.00    +0.000 A 
ATOM      7  C   UNL     1       1.053   2.831  18.661  0.00  0.00    +0.000 A 
ATOM      8  C   UNL     1       1.657   4.073  18.793  0.00  0.00    +0.000 A 
ATOM      9  N   UNL     1       2.343   4.728  17.810  0.00  0.00    +0.000 NA
ATOM     10  C   UNL     1       2.882   5.909  18.198  0.00  0.00    +0.000 A 
ENDROOT
BRANCH   1  14
ATOM     11  C   UNL     1       1.372  10.821  18.909  0.00  0.00    +0.000 A 
ATOM     12  C   UNL     1       1.949  10.123  17.828  0.00  0.00    +0.000 A 
ATOM     13  C   UNL     1       2.263   8.761  17.911  0.00  0.00    +0.000 A 
ATOM     14  C   UNL     1       1.981   8.043  19.074  0.00  0.00    +0.000 A 
ATOM     15  C   UNL     1       1.386   8.740  20.151  0.00  0.00    +0.000 A 
ATOM     16  C   UNL     1       1.074  10.096  20.067  0.00  0.00    +0.000 A 
BRANCH  11  18
ATOM     17  C   UNL     1       2.348  13.032  18.170  0.00  0.00    +0.000 C 
ATOM     18  C   UNL     1       1.143  12.332  18.817  0.00  0.00    +0.000 C 
ATOM     19  C   UNL     1       0.895  12.883  20.234  0.00  0.00    +0.000 C 
BRANCH  18  20
ATOM     20  N   UNL     1      -0.039  12.678  18.004  0.00  0.00    +0.000 NA
ATOM     21  H   UNL     1      -0.880  12.346  18.474  0.00  0.00    +0.000 HD
ATOM     22  H   UNL     1       0.003  12.161  17.126  0.00  0.00    +0.000 HD
ENDBRANCH  18  20
ENDBRANCH  11  18
ENDBRANCH   1  14
BRANCH  10  23
ATOM     23  C   UNL     1       4.394   6.099  18.171  0.00  0.00    +0.000 A 
ATOM     24  C   UNL     1       5.068   6.845  17.199  0.00  0.00    +0.000 A 
ATOM     25  C   UNL     1       6.473   6.961  17.215  0.00  0.00    +0.000 A 
ATOM     26  C   UNL     1       7.239   6.328  18.185  0.00  0.00    +0.000 A 
ATOM     27  C   UNL     1       6.621   5.530  19.135  0.00  0.00    +0.000 A 
ATOM     28  C   UNL     1       5.230   5.402  19.099  0.00  0.00    +0.000 A 
ENDBRANCH  10  23
TORSDOF 4
ENDMDL
MODEL 6
REMARK VINA RESULT:      -8.7      1.702      4.185
REMARK  Name = 
REMARK  6 active torsions:
REMARK  status: ('A' for Active; 'I' for Inactive)
REMARK    1  A    between atoms: C_1  and  C_2
REMARK    2  A    between atoms: C_2  and  C_3
REMARK    3  A    between atoms: C_2  and  N_4
REMARK    4  A    between atoms: C_2  and  C_5
REMARK    5  A    between atoms: C_8  and  C_9
REMARK    6  A    between atoms: C_18  and  C_19
REMARK                            x       y       z     vdW  Elec       q    Type
REMARK                         _______ _______ _______ _____ _____    ______ ____
ROOT
ATOM      1  C   UNL     1       3.187   5.804  18.847  0.00  0.00    +0.000 A 
ATOM      2  N   UNL     1       2.974   4.871  19.795  0.00  0.00    +0.000 NA
ATOM      3  C   UNL     1       3.297   3.614  19.386  0.00  0.00    +0.000 A 
ATOM      4  C   UNL     1       3.928   2.656  20.178  0.00  0.00    +0.000 A 
ATOM      5  C   UNL     1       4.229   1.396  19.660  0.00  0.00    +0.000 A 
ATOM      6  C   UNL     1       3.632   1.012  18.465  0.00  0.00    +0.000 A 
ATOM      7  C   UNL     1       3.082   2.008  17.673  0.00  0.00    +0.000 A 
ATOM      8  C   UNL     1       3.333   3.322  18.044  0.00  0.00    +0.000 A 
ATOM      9  N   UNL     1       3.885   4.279  17.241  0.00  0.00    +0.000 NA
ATOM     10  C   UNL     1       4.073   5.476  17.847  0.00  0.00    +0.000 A 
ENDROOT
BRANCH   1  14
ATOM     11  C   UNL     1       1.304   9.677  19.128  0.00  0.00    +0.000 A 
ATOM     12  C   UNL     1       1.899   9.244  17.925  0.00  0.00    +0.000 A 
ATOM     13  C   UNL     1       2.547   8.008  17.825  0.00  0.00    +0.000 A 
ATOM     14  C   UNL     1       2.594   7.147  18.923  0.00  0.00    +0.000 A 
ATOM     15  C   UNL     1       1.981   7.574  20.123  0.00  0.00    +0.000 A 
ATOM     16  C   UNL     1       1.337   8.806  20.221  0.00  0.00    +0.000 A 
BRANCH  11  18
ATOM     17  C   UNL     1      -0.648  11.151  18.491  0.00  0.00    +0.000 C 
ATOM     18  C   UNL     1       0.699  11.080  19.228  0.00  0.00    +0.000 C 
ATOM     19  C   UNL     1       1.695  12.093  18.630  0.00  0.00    +0.000 C 
BRANCH  18  20
ATOM     20  N   UNL     1       0.446  11.491  20.622  0.00  0.00    +0.000 NA
ATOM     21  H   UNL     1      -0.549  11.675  20.743  0.00  0.00    +0.000 HD
ATOM     22  H   UNL     1       0.910  12.384  20.791  0.00  0.00    +0.000 HD
ENDBRANCH  18  20
ENDBRANCH  11  18
ENDBRANCH   1  14
BRANCH  10  23
ATOM     23  C   UNL     1       5.482   6.036  18.003  0.00  0.00    +0.000 A 
ATOM     24  C   UNL     1       6.411   5.556  18.930  0.00  0.00    +0.000 A 
ATOM     25  C   UNL     1       7.692   6.134  19.044  0.00  0.00    +0.000 A 
ATOM     26  C   UNL     1       8.072   7.210  18.252  0.00  0.00    +0.000 A 
ATOM     27  C   UNL     1       7.164   7.759  17.359  0.00  0.00    +0.000 A 
ATOM     28  C   UNL     1       5.890   7.193  17.268  0.00  0.00    +0.000 A 
ENDBRANCH  10  23
TORSDOF 4
ENDMDL
MODEL 7
REMARK VINA RESULT:      -8.6      1.872      4.189
REMARK  Name = 
REMARK  6 active torsions:
REMARK  status: ('A' for Active; 'I' for Inactive)
REMARK    1  A    between atoms: C_1  and  C_2
REMARK    2  A    between atoms: C_2  and  C_3
REMARK    3  A    between atoms: C_2  and  N_4
REMARK    4  A    between atoms: C_2  and  C_5
REMARK    5  A    between atoms: C_8  and  C_9
REMARK    6  A    between atoms: C_18  and  C_19
REMARK                            x       y       z     vdW  Elec       q    Type
REMARK                         _______ _______ _______ _____ _____    ______ ____
ROOT
ATOM      1  C   UNL     1       3.172   5.715  18.858  0.00  0.00    +0.000 A 
ATOM      2  N   UNL     1       3.001   4.791  19.823  0.00  0.00    +0.000 NA
ATOM      3  C   UNL     1       3.356   3.538  19.430  0.00  0.00    +0.000 A 
ATOM      4  C   UNL     1       4.028   2.613  20.228  0.00  0.00    +0.000 A 
ATOM      5  C   UNL     1       4.360   1.355  19.726  0.00  0.00    +0.000 A 
ATOM      6  C   UNL     1       3.759   0.934  18.546  0.00  0.00    +0.000 A 
ATOM      7  C   UNL     1       3.167   1.899  17.746  0.00  0.00    +0.000 A 
ATOM      8  C   UNL     1       3.383   3.226  18.092  0.00  0.00    +0.000 A 
ATOM      9  N   UNL     1       3.894   4.186  17.266  0.00  0.00    +0.000 NA
ATOM     10  C   UNL     1       4.052   5.398  17.849  0.00  0.00    +0.000 A 
ENDROOT
BRANCH   1  14
ATOM     11  C   UNL     1       1.455   9.673  18.978  0.00  0.00    +0.000 A 
ATOM     12  C   UNL     1       1.466   8.851  20.123  0.00  0.00    +0.000 A 
ATOM     13  C   UNL     1       1.984   7.551  20.095  0.00  0.00    +0.000 A 
ATOM     14  C   UNL     1       2.539   7.040  18.920  0.00  0.00    +0.000 A 
ATOM     15  C   UNL     1       2.543   7.872  17.777  0.00  0.00    +0.000 A 
ATOM     16  C   UNL     1       2.026   9.166  17.807  0.00  0.00    +0.000 A 
BRANCH  11  18
ATOM     17  C   UNL     1       0.789  11.618  20.449  0.00  0.00    +0.000 C 
ATOM     18  C   UNL     1       0.782  11.048  19.022  0.00  0.00    +0.000 C 
ATOM     19  C   UNL     1      -0.662  10.910  18.503  0.00  0.00    +0.000 C 
BRANCH  18  20
ATOM     20  N   UNL     1       1.459  12.039  18.163  0.00  0.00    +0.000 NA
ATOM     21  H   UNL     1       0.822  12.810  17.972  0.00  0.00    +0.000 HD
ATOM     22  H   UNL     1       1.650  11.612  17.257  0.00  0.00    +0.000 HD
ENDBRANCH  18  20
ENDBRANCH  11  18
ENDBRANCH   1  14
BRANCH  10  23
ATOM     23  C   UNL     1       5.446   6.003  17.977  0.00  0.00    +0.000 A 
ATOM     24  C   UNL     1       6.395   5.582  18.912  0.00  0.00    +0.000 A 
ATOM     25  C   UNL     1       7.659   6.200  18.997  0.00  0.00    +0.000 A 
ATOM     26  C   UNL     1       8.002   7.259  18.166  0.00  0.00    +0.000 A 
ATOM     27  C   UNL     1       7.073   7.751  17.262  0.00  0.00    +0.000 A 
ATOM     28  C   UNL     1       5.815   7.146  17.200  0.00  0.00    +0.000 A 
ENDBRANCH  10  23
TORSDOF 4
ENDMDL
MODEL 8
REMARK VINA RESULT:      -8.2      1.825      4.430
REMARK  Name = 
REMARK  6 active torsions:
REMARK  status: ('A' for Active; 'I' for Inactive)
REMARK    1  A    between atoms: C_1  and  C_2
REMARK    2  A    between atoms: C_2  and  C_3
REMARK    3  A    between atoms: C_2  and  N_4
REMARK    4  A    between atoms: C_2  and  C_5
REMARK    5  A    between atoms: C_8  and  C_9
REMARK    6  A    between atoms: C_18  and  C_19
REMARK                            x       y       z     vdW  Elec       q    Type
REMARK                         _______ _______ _______ _____ _____    ______ ____
ROOT
ATOM      1  C   UNL     1       2.105   6.501  19.269  0.00  0.00    +0.000 A 
ATOM      2  N   UNL     1       1.772   5.812  20.378  0.00  0.00    +0.000 NA
ATOM      3  C   UNL     1       1.705   4.470  20.171  0.00  0.00    +0.000 A 
ATOM      4  C   UNL     1       2.156   3.502  21.067  0.00  0.00    +0.000 A 
ATOM      5  C   UNL     1       2.056   2.146  20.755  0.00  0.00    +0.000 A 
ATOM      6  C   UNL     1       1.241   1.771  19.693  0.00  0.00    +0.000 A 
ATOM      7  C   UNL     1       0.877   2.752  18.785  0.00  0.00    +0.000 A 
ATOM      8  C   UNL     1       1.503   3.985  18.901  0.00  0.00    +0.000 A 
ATOM      9  N   UNL     1       2.184   4.623  17.904  0.00  0.00    +0.000 NA
ATOM     10  C   UNL     1       2.747   5.798  18.276  0.00  0.00    +0.000 A 
ENDROOT
BRANCH   1  14
ATOM     11  C   UNL     1       1.646  10.775  18.877  0.00  0.00    +0.000 A 
ATOM     12  C   UNL     1       1.334  10.118  20.085  0.00  0.00    +0.000 A 
ATOM     13  C   UNL     1       1.440   8.729  20.220  0.00  0.00    +0.000 A 
ATOM     14  C   UNL     1       1.894   7.951  19.154  0.00  0.00    +0.000 A 
ATOM     15  C   UNL     1       2.225   8.612  17.949  0.00  0.00    +0.000 A 
ATOM     16  C   UNL     1       2.118   9.996  17.817  0.00  0.00    +0.000 A 
BRANCH  11  18
ATOM     17  C   UNL     1       1.902  13.032  19.986  0.00  0.00    +0.000 C 
ATOM     18  C   UNL     1       1.415  12.282  18.736  0.00  0.00    +0.000 C 
ATOM     19  C   UNL     1      -0.088  12.533  18.508  0.00  0.00    +0.000 C 
BRANCH  18  20
ATOM     20  N   UNL     1       2.132  12.861  17.584  0.00  0.00    +0.000 NA
ATOM     21  H   UNL     1       2.611  12.118  17.078  0.00  0.00    +0.000 HD
ATOM     22  H   UNL     1       2.870  13.474  17.931  0.00  0.00    +0.000 HD
ENDBRANCH  18  20
ENDBRANCH  11  18
ENDBRANCH   1  14
BRANCH  10  23
ATOM     23  C   UNL     1       4.262   5.964  18.226  0.00  0.00    +0.000 A 
ATOM     24  C   UNL     1       5.136   5.419  19.170  0.00  0.00    +0.000 A 
ATOM     25  C   UNL     1       6.528   5.630  19.081  0.00  0.00    +0.000 A 
ATOM     26  C   UNL     1       7.078   6.399  18.064  0.00  0.00    +0.000 A 
ATOM     27  C   UNL     1       6.247   7.009  17.138  0.00  0.00    +0.000 A 
ATOM     28  C   UNL     1       4.867   6.812  17.246  0.00  0.00    +0.000 A 
ENDBRANCH  10  23
TORSDOF 4
ENDMDL
MODEL 9
REMARK VINA RESULT:      -8.1      1.958      8.214
REMARK  Name = 
REMARK  6 active torsions:
REMARK  status: ('A' for Active; 'I' for Inactive)
REMARK    1  A    between atoms: C_1  and  C_2
REMARK    2  A    between atoms: C_2  and  C_3
REMARK    3  A    between atoms: C_2  and  N_4
REMARK    4  A    between atoms: C_2  and  C_5
REMARK    5  A    between atoms: C_8  and  C_9
REMARK    6  A    between atoms: C_18  and  C_19
REMARK                            x       y       z     vdW  Elec       q    Type
REMARK                         _______ _______ _______ _____ _____    ______ ____
ROOT
ATOM      1  C   UNL     1       0.435  10.315  20.257  0.00  0.00    +0.000 A 
ATOM      2  N   UNL     1       0.102  10.393  21.560  0.00  0.00    +0.000 NA
ATOM      3  C   UNL     1      -0.256  11.648  21.943  0.00  0.00    +0.000 A 
ATOM      4  C   UNL     1      -1.300  11.947  22.817  0.00  0.00    +0.000 A 
ATOM      5  C   UNL     1      -1.597  13.271  23.138  0.00  0.00    +0.000 A 
ATOM      6  C   UNL     1      -0.667  14.254  22.820  0.00  0.00    +0.000 A 
ATOM      7  C   UNL     1       0.310  13.936  21.890  0.00  0.00    +0.000 A 
ATOM      8  C   UNL     1       0.173  12.731  21.214  0.00  0.00    +0.000 A 
ATOM      9  N   UNL     1       0.147  12.584  19.857  0.00  0.00    +0.000 NA
ATOM     10  C   UNL     1      -0.043  11.311  19.437  0.00  0.00    +0.000 A 
ENDROOT
BRANCH   1  14
ATOM     11  C   UNL     1       2.724   6.968  18.776  0.00  0.00    +0.000 A 
ATOM     12  C   UNL     1       2.520   8.116  17.983  0.00  0.00    +0.000 A 
ATOM     13  C   UNL     1       1.750   9.196  18.431  0.00  0.00    +0.000 A 
ATOM     14  C   UNL     1       1.181   9.174  19.706  0.00  0.00    +0.000 A 
ATOM     15  C   UNL     1       1.402   8.030  20.507  0.00  0.00    +0.000 A 
ATOM     16  C   UNL     1       2.168   6.956  20.059  0.00  0.00    +0.000 A 
BRANCH  11  18
ATOM     17  C   UNL     1       4.365   6.182  17.022  0.00  0.00    +0.000 C 
ATOM     18  C   UNL     1       3.482   5.765  18.209  0.00  0.00    +0.000 C 
ATOM     19  C   UNL     1       2.461   4.697  17.773  0.00  0.00    +0.000 C 
BRANCH  18  20
ATOM     20  N   UNL     1       4.372   5.135  19.203  0.00  0.00    +0.000 NA
ATOM     21  H   UNL     1       4.638   5.826  19.903  0.00  0.00    +0.000 HD
ATOM     22  H   UNL     1       5.241   4.866  18.742  0.00  0.00    +0.000 HD
ENDBRANCH  18  20
ENDBRANCH  11  18
ENDBRANCH   1  14
BRANCH  10  23
ATOM     23  C   UNL     1      -1.283  10.956  18.624  0.00  0.00    +0.000 A 
ATOM     24  C   UNL     1      -1.273  10.091  17.527  0.00  0.00    +0.000 A 
ATOM     25  C   UNL     1      -2.451   9.823  16.799  0.00  0.00    +0.000 A 
ATOM     26  C   UNL     1      -3.658  10.421  17.134  0.00  0.00    +0.000 A 
ATOM     27  C   UNL     1      -3.707  11.333  18.178  0.00  0.00    +0.000 A 
ATOM     28  C   UNL     1      -2.530  11.608  18.880  0.00  0.00    +0.000 A 
ENDBRANCH  10  23
TORSDOF 4
ENDMDL
