MODEL 1
REMARK VINA RESULT:      -7.2      0.000      0.000
REMARK  Name = 
REMARK  5 active torsions:
REMARK  status: ('A' for Active; 'I' for Inactive)
REMARK    1  A    between atoms: C_1  and  C_2
REMARK    2  A    between atoms: C_2  and  C_3
REMARK    3  A    between atoms: C_2  and  C_4
REMARK    4  A    between atoms: C_4  and  O_5
REMARK    5  A    between atoms: O_5  and  N_6
REMARK                            x       y       z     vdW  Elec       q    Type
REMARK                         _______ _______ _______ _____ _____    ______ ____
ROOT
ATOM      1  N   UNL     1      -6.612  13.007  20.451  0.00  0.00    +0.000 NA
ATOM      2  C   UNL     1      -5.310  12.909  20.518  0.00  0.00    +0.000 C 
ATOM      3  C   UNL     1      -4.571  12.348  19.276  0.00  0.00    +0.000 C 
ATOM      4  O   UNL     1      -5.234  11.894  18.346  0.00  0.00    +0.000 OA
ATOM      5  N   UNL     1      -3.192  12.311  19.362  0.00  0.00    +0.000 N 
ATOM      6  C   UNL     1      -2.331  11.423  18.698  0.00  0.00    +0.000 A 
ATOM      7  C   UNL     1      -2.632  10.516  17.697  0.00  0.00    +0.000 A 
ATOM      8  C   UNL     1      -1.612   9.683  17.227  0.00  0.00    +0.000 A 
ATOM      9  C   UNL     1      -0.319   9.757  17.764  0.00  0.00    +0.000 A 
ATOM     10  C   UNL     1      -0.024  10.677  18.771  0.00  0.00    +0.000 A 
ATOM     11  C   UNL     1      -1.039  11.507  19.231  0.00  0.00    +0.000 A 
ATOM     12  C   UNL     1      -0.933  12.631  20.236  0.00  0.00    +0.000 C 
ATOM     13  C   UNL     1      -0.122  13.795  19.602  0.00  0.00    +0.000 C 
ATOM     14  C   UNL     1       1.070  13.981  20.529  0.00  0.00    +0.000 C 
ATOM     15  N   UNL     1       0.589  13.554  21.846  0.00  0.00    +0.000 NA
ATOM     16  C   UNL     1      -0.169  14.598  22.558  0.00  0.00    +0.000 C 
ATOM     17  C   UNL     1      -1.630  14.330  22.875  0.00  0.00    +0.000 C 
ATOM     18  C   UNL     1      -2.501  15.348  23.016  0.00  0.00    +0.000 C 
ATOM     19  C   UNL     1      -3.977  15.156  23.145  0.00  0.00    +0.000 C 
ATOM     20  O   UNL     1      -4.452  14.683  21.889  0.00  0.00    +0.000 OA
ATOM     21  C   UNL     1      -4.483  13.257  21.776  0.00  0.00    +0.000 C 
ATOM     22  C   UNL     1      -3.090  12.607  21.725  0.00  0.00    +0.000 C 
ATOM     23  C   UNL     1      -2.441  13.010  20.405  0.00  0.00    +0.000 C 
ATOM     24  C   UNL     1      -2.139  12.899  22.895  0.00  0.00    +0.000 C 
ATOM     25  C   UNL     1      -0.983  11.917  22.756  0.00  0.00    +0.000 C 
ATOM     26  C   UNL     1      -0.158  12.317  21.546  0.00  0.00    +0.000 C 
ENDROOT
BRANCH   1  27
ATOM     27  O   UNL     1      -7.150  13.460  21.660  0.00  0.00    +0.000 OA
BRANCH  27  28
ATOM     28  C   UNL     1      -7.657  12.345  22.396  0.00  0.00    +0.000 C 
BRANCH  28  30
ATOM     29  C   UNL     1      -6.130  12.338  24.412  0.00  0.00    +0.000 C 
ATOM     30  C   UNL     1      -7.542  12.631  23.900  0.00  0.00    +0.000 C 
ATOM     31  C   UNL     1      -7.916  14.081  24.214  0.00  0.00    +0.000 C 
ENDBRANCH  28  30
ENDBRANCH  27  28
ENDBRANCH   1  27
TORSDOF 3
ENDMDL
MODEL 2
REMARK VINA RESULT:      -7.1      2.426      6.152
REMARK  Name = 
REMARK  5 active torsions:
REMARK  status: ('A' for Active; 'I' for Inactive)
REMARK    1  A    between atoms: C_1  and  C_2
REMARK    2  A    between atoms: C_2  and  C_3
REMARK    3  A    between atoms: C_2  and  C_4
REMARK    4  A    between atoms: C_4  and  O_5
REMARK    5  A    between atoms: O_5  and  N_6
REMARK                            x       y       z     vdW  Elec       q    Type
REMARK                         _______ _______ _______ _____ _____    ______ ____
ROOT
ATOM      1  N   UNL     1      -0.928  10.182  17.920  0.00  0.00    +0.000 NA
ATOM      2  C   UNL     1      -1.740  10.957  18.590  0.00  0.00    +0.000 C 
ATOM      3  C   UNL     1      -3.212  11.036  18.109  0.00  0.00    +0.000 C 
ATOM      4  O   UNL     1      -3.521  10.488  17.054  0.00  0.00    +0.000 OA
ATOM      5  N   UNL     1      -4.054  11.821  18.876  0.00  0.00    +0.000 N 
ATOM      6  C   UNL     1      -5.206  12.492  18.438  0.00  0.00    +0.000 A 
ATOM      7  C   UNL     1      -5.853  12.393  17.218  0.00  0.00    +0.000 A 
ATOM      8  C   UNL     1      -6.958  13.216  16.984  0.00  0.00    +0.000 A 
ATOM      9  C   UNL     1      -7.395  14.128  17.956  0.00  0.00    +0.000 A 
ATOM     10  C   UNL     1      -6.738  14.220  19.184  0.00  0.00    +0.000 A 
ATOM     11  C   UNL     1      -5.644  13.395  19.415  0.00  0.00    +0.000 A 
ATOM     12  C   UNL     1      -4.844  13.253  20.689  0.00  0.00    +0.000 C 
ATOM     13  C   UNL     1      -5.730  12.559  21.761  0.00  0.00    +0.000 C 
ATOM     14  C   UNL     1      -5.796  13.557  22.908  0.00  0.00    +0.000 C 
ATOM     15  N   UNL     1      -4.539  14.306  22.825  0.00  0.00    +0.000 NA
ATOM     16  C   UNL     1      -3.402  13.610  23.452  0.00  0.00    +0.000 C 
ATOM     17  C   UNL     1      -2.236  13.203  22.568  0.00  0.00    +0.000 C 
ATOM     18  C   UNL     1      -1.455  12.156  22.898  0.00  0.00    +0.000 C 
ATOM     19  C   UNL     1      -0.413  11.589  21.991  0.00  0.00    +0.000 C 
ATOM     20  O   UNL     1      -1.091  10.974  20.901  0.00  0.00    +0.000 OA
ATOM     21  C   UNL     1      -1.303  11.840  19.781  0.00  0.00    +0.000 C 
ATOM     22  C   UNL     1      -2.320  12.962  20.048  0.00  0.00    +0.000 C 
ATOM     23  C   UNL     1      -3.692  12.314  20.204  0.00  0.00    +0.000 C 
ATOM     24  C   UNL     1      -2.036  13.897  21.232  0.00  0.00    +0.000 C 
ATOM     25  C   UNL     1      -2.998  15.068  21.087  0.00  0.00    +0.000 C 
ATOM     26  C   UNL     1      -4.403  14.574  21.380  0.00  0.00    +0.000 C 
ENDROOT
BRANCH   1  27
ATOM     27  O   UNL     1       0.376  10.262  18.418  0.00  0.00    +0.000 OA
BRANCH  27  28
ATOM     28  C   UNL     1       1.184   9.268  17.783  0.00  0.00    +0.000 C 
BRANCH  28  30
ATOM     29  C   UNL     1       1.371   8.515  20.190  0.00  0.00    +0.000 C 
ATOM     30  C   UNL     1       2.073   8.587  18.833  0.00  0.00    +0.000 C 
ATOM     31  C   UNL     1       2.476   7.181  18.383  0.00  0.00    +0.000 C 
ENDBRANCH  28  30
ENDBRANCH  27  28
ENDBRANCH   1  27
TORSDOF 3
ENDMDL
MODEL 3
REMARK VINA RESULT:      -7.1      7.146     10.277
REMARK  Name = 
REMARK  5 active torsions:
REMARK  status: ('A' for Active; 'I' for Inactive)
REMARK    1  A    between atoms: C_1  and  C_2
REMARK    2  A    between atoms: C_2  and  C_3
REMARK    3  A    between atoms: C_2  and  C_4
REMARK    4  A    between atoms: C_4  and  O_5
REMARK    5  A    between atoms: O_5  and  N_6
REMARK                            x       y       z     vdW  Elec       q    Type
REMARK                         _______ _______ _______ _____ _____    ______ ____
ROOT
ATOM      1  N   UNL     1       2.266   9.141  18.138  0.00  0.00    +0.000 NA
ATOM      2  C   UNL     1       2.604   7.879  18.128  0.00  0.00    +0.000 C 
ATOM      3  C   UNL     1       3.881   7.487  17.341  0.00  0.00    +0.000 C 
ATOM      4  O   UNL     1       4.439   8.340  16.653  0.00  0.00    +0.000 OA
ATOM      5  N   UNL     1       4.238   6.153  17.399  0.00  0.00    +0.000 N 
ATOM      6  C   UNL     1       4.955   5.432  16.431  0.00  0.00    +0.000 A 
ATOM      7  C   UNL     1       5.606   5.908  15.306  0.00  0.00    +0.000 A 
ATOM      8  C   UNL     1       6.205   4.984  14.445  0.00  0.00    +0.000 A 
ATOM      9  C   UNL     1       6.139   3.608  14.708  0.00  0.00    +0.000 A 
ATOM     10  C   UNL     1       5.483   3.137  15.846  0.00  0.00    +0.000 A 
ATOM     11  C   UNL     1       4.895   4.059  16.703  0.00  0.00    +0.000 A 
ATOM     12  C   UNL     1       4.220   3.793  18.029  0.00  0.00    +0.000 C 
ATOM     13  C   UNL     1       5.298   3.361  19.061  0.00  0.00    +0.000 C 
ATOM     14  C   UNL     1       4.861   1.976  19.516  0.00  0.00    +0.000 C 
ATOM     15  N   UNL     1       3.402   1.980  19.372  0.00  0.00    +0.000 NA
ATOM     16  C   UNL     1       2.705   2.609  20.507  0.00  0.00    +0.000 C 
ATOM     17  C   UNL     1       1.888   3.861  20.240  0.00  0.00    +0.000 C 
ATOM     18  C   UNL     1       1.678   4.766  21.216  0.00  0.00    +0.000 C 
ATOM     19  C   UNL     1       1.045   6.099  20.979  0.00  0.00    +0.000 C 
ATOM     20  O   UNL     1       1.961   6.870  20.209  0.00  0.00    +0.000 OA
ATOM     21  C   UNL     1       1.774   6.758  18.795  0.00  0.00    +0.000 C 
ATOM     22  C   UNL     1       2.142   5.378  18.227  0.00  0.00    +0.000 C 
ATOM     23  C   UNL     1       3.653   5.214  18.355  0.00  0.00    +0.000 C 
ATOM     24  C   UNL     1       1.422   4.160  18.826  0.00  0.00    +0.000 C 
ATOM     25  C   UNL     1       1.730   2.990  17.902  0.00  0.00    +0.000 C 
ATOM     26  C   UNL     1       3.195   2.625  18.061  0.00  0.00    +0.000 C 
ENDROOT
BRANCH   1  27
ATOM     27  O   UNL     1       1.062   9.339  18.823  0.00  0.00    +0.000 OA
BRANCH  27  28
ATOM     28  C   UNL     1       0.428  10.520  18.328  0.00  0.00    +0.000 C 
BRANCH  28  30
ATOM     29  C   UNL     1      -1.704  11.717  18.976  0.00  0.00    +0.000 C 
ATOM     30  C   UNL     1      -1.092  10.396  18.506  0.00  0.00    +0.000 C 
ATOM     31  C   UNL     1      -1.763   9.948  17.206  0.00  0.00    +0.000 C 
ENDBRANCH  28  30
ENDBRANCH  27  28
ENDBRANCH   1  27
TORSDOF 3
ENDMDL
MODEL 4
REMARK VINA RESULT:      -7.1      2.327      5.984
REMARK  Name = 
REMARK  5 active torsions:
REMARK  status: ('A' for Active; 'I' for Inactive)
REMARK    1  A    between atoms: C_1  and  C_2
REMARK    2  A    between atoms: C_2  and  C_3
REMARK    3  A    between atoms: C_2  and  C_4
REMARK    4  A    between atoms: C_4  and  O_5
REMARK    5  A    between atoms: O_5  and  N_6
REMARK                            x       y       z     vdW  Elec       q    Type
REMARK                         _______ _______ _______ _____ _____    ______ ____
ROOT
ATOM      1  N   UNL     1      -1.002  11.293  19.069  0.00  0.00    +0.000 NA
ATOM      2  C   UNL     1      -2.110  11.799  19.543  0.00  0.00    +0.000 C 
ATOM      3  C   UNL     1      -3.376  11.703  18.653  0.00  0.00    +0.000 C 
ATOM      4  O   UNL     1      -3.262  11.289  17.501  0.00  0.00    +0.000 OA
ATOM      5  N   UNL     1      -4.542  12.198  19.210  0.00  0.00    +0.000 N 
ATOM      6  C   UNL     1      -5.644  12.725  18.520  0.00  0.00    +0.000 A 
ATOM      7  C   UNL     1      -5.896  12.718  17.159  0.00  0.00    +0.000 A 
ATOM      8  C   UNL     1      -7.042  13.367  16.692  0.00  0.00    +0.000 A 
ATOM      9  C   UNL     1      -7.910  14.021  17.579  0.00  0.00    +0.000 A 
ATOM     10  C   UNL     1      -7.650  14.022  18.950  0.00  0.00    +0.000 A 
ATOM     11  C   UNL     1      -6.513  13.369  19.411  0.00  0.00    +0.000 A 
ATOM     12  C   UNL     1      -6.081  13.159  20.844  0.00  0.00    +0.000 C 
ATOM     13  C   UNL     1      -7.060  12.159  21.519  0.00  0.00    +0.000 C 
ATOM     14  C   UNL     1      -7.647  12.931  22.693  0.00  0.00    +0.000 C 
ATOM     15  N   UNL     1      -6.602  13.886  23.072  0.00  0.00    +0.000 NA
ATOM     16  C   UNL     1      -5.560  13.301  23.934  0.00  0.00    +0.000 C 
ATOM     17  C   UNL     1      -4.138  13.248  23.403  0.00  0.00    +0.000 C 
ATOM     18  C   UNL     1      -3.275  12.310  23.839  0.00  0.00    +0.000 C 
ATOM     19  C   UNL     1      -1.929  12.084  23.232  0.00  0.00    +0.000 C 
ATOM     20  O   UNL     1      -2.138  11.548  21.930  0.00  0.00    +0.000 OA
ATOM     21  C   UNL     1      -2.212  12.536  20.897  0.00  0.00    +0.000 C 
ATOM     22  C   UNL     1      -3.475  13.410  20.963  0.00  0.00    +0.000 C 
ATOM     23  C   UNL     1      -4.669  12.522  20.630  0.00  0.00    +0.000 C 
ATOM     24  C   UNL     1      -3.730  14.175  22.271  0.00  0.00    +0.000 C 
ATOM     25  C   UNL     1      -4.839  15.172  21.969  0.00  0.00    +0.000 C 
ATOM     26  C   UNL     1      -6.134  14.405  21.772  0.00  0.00    +0.000 C 
ENDROOT
BRANCH   1  27
ATOM     27  O   UNL     1       0.069  11.511  19.942  0.00  0.00    +0.000 OA
BRANCH  27  28
ATOM     28  C   UNL     1       1.016  10.450  19.800  0.00  0.00    +0.000 C 
BRANCH  28  30
ATOM     29  C   UNL     1       1.489   8.052  20.449  0.00  0.00    +0.000 C 
ATOM     30  C   UNL     1       0.603   9.274  20.697  0.00  0.00    +0.000 C 
ATOM     31  C   UNL     1       0.661   9.664  22.176  0.00  0.00    +0.000 C 
ENDBRANCH  28  30
ENDBRANCH  27  28
ENDBRANCH   1  27
TORSDOF 3
ENDMDL
MODEL 5
REMARK VINA RESULT:      -6.9      1.433      1.927
REMARK  Name = 
REMARK  5 active torsions:
REMARK  status: ('A' for Active; 'I' for Inactive)
REMARK    1  A    between atoms: C_1  and  C_2
REMARK    2  A    between atoms: C_2  and  C_3
REMARK    3  A    between atoms: C_2  and  C_4
REMARK    4  A    between atoms: C_4  and  O_5
REMARK    5  A    between atoms: O_5  and  N_6
REMARK                            x       y       z     vdW  Elec       q    Type
REMARK                         _______ _______ _______ _____ _____    ______ ____
ROOT
ATOM      1  N   UNL     1      -6.037  13.882  21.921  0.00  0.00    +0.000 NA
ATOM      2  C   UNL     1      -4.862  13.493  21.500  0.00  0.00    +0.000 C 
ATOM      3  C   UNL     1      -4.771  12.931  20.058  0.00  0.00    +0.000 C 
ATOM      4  O   UNL     1      -5.809  12.746  19.426  0.00  0.00    +0.000 OA
ATOM      5  N   UNL     1      -3.504  12.582  19.628  0.00  0.00    +0.000 N 
ATOM      6  C   UNL     1      -3.181  11.611  18.668  0.00  0.00    +0.000 A 
ATOM      7  C   UNL     1      -4.028  10.915  17.824  0.00  0.00    +0.000 A 
ATOM      8  C   UNL     1      -3.479   9.939  16.987  0.00  0.00    +0.000 A 
ATOM      9  C   UNL     1      -2.104   9.663  17.010  0.00  0.00    +0.000 A 
ATOM     10  C   UNL     1      -1.256  10.371  17.863  0.00  0.00    +0.000 A 
ATOM     11  C   UNL     1      -1.805  11.345  18.688  0.00  0.00    +0.000 A 
ATOM     12  C   UNL     1      -1.079  12.292  19.614  0.00  0.00    +0.000 C 
ATOM     13  C   UNL     1      -0.281  13.315  18.758  0.00  0.00    +0.000 C 
ATOM     14  C   UNL     1       1.167  13.125  19.184  0.00  0.00    +0.000 C 
ATOM     15  N   UNL     1       1.090  12.663  20.573  0.00  0.00    +0.000 NA
ATOM     16  C   UNL     1       0.914  13.758  21.544  0.00  0.00    +0.000 C 
ATOM     17  C   UNL     1      -0.360  13.783  22.370  0.00  0.00    +0.000 C 
ATOM     18  C   UNL     1      -0.845  14.944  22.852  0.00  0.00    +0.000 C 
ATOM     19  C   UNL     1      -2.179  15.068  23.511  0.00  0.00    +0.000 C 
ATOM     20  O   UNL     1      -3.167  14.861  22.507  0.00  0.00    +0.000 OA
ATOM     21  C   UNL     1      -3.587  13.500  22.373  0.00  0.00    +0.000 C 
ATOM     22  C   UNL     1      -2.508  12.570  21.793  0.00  0.00    +0.000 C 
ATOM     23  C   UNL     1      -2.287  12.972  20.339  0.00  0.00    +0.000 C 
ATOM     24  C   UNL     1      -1.166  12.506  22.537  0.00  0.00    +0.000 C 
ATOM     25  C   UNL     1      -0.415  11.318  21.953  0.00  0.00    +0.000 C 
ATOM     26  C   UNL     1       0.004  11.665  20.536  0.00  0.00    +0.000 C 
ENDROOT
BRANCH   1  27
ATOM     27  O   UNL     1      -5.986  14.297  23.256  0.00  0.00    +0.000 OA
BRANCH  27  28
ATOM     28  C   UNL     1      -7.068  15.194  23.512  0.00  0.00    +0.000 C 
BRANCH  28  30
ATOM     29  C   UNL     1      -5.315  16.675  24.574  0.00  0.00    +0.000 C 
ATOM     30  C   UNL     1      -6.526  16.625  23.640  0.00  0.00    +0.000 C 
ATOM     31  C   UNL     1      -6.147  17.194  22.271  0.00  0.00    +0.000 C 
ENDBRANCH  28  30
ENDBRANCH  27  28
ENDBRANCH   1  27
TORSDOF 3
ENDMDL
MODEL 6
REMARK VINA RESULT:      -6.9      2.381      7.311
REMARK  Name = 
REMARK  5 active torsions:
REMARK  status: ('A' for Active; 'I' for Inactive)
REMARK    1  A    between atoms: C_1  and  C_2
REMARK    2  A    between atoms: C_2  and  C_3
REMARK    3  A    between atoms: C_2  and  C_4
REMARK    4  A    between atoms: C_4  and  O_5
REMARK    5  A    between atoms: O_5  and  N_6
REMARK                            x       y       z     vdW  Elec       q    Type
REMARK                         _______ _______ _______ _____ _____    ______ ____
ROOT
ATOM      1  N   UNL     1      -0.124  11.091  19.386  0.00  0.00    +0.000 NA
ATOM      2  C   UNL     1      -1.397  11.373  19.476  0.00  0.00    +0.000 C 
ATOM      3  C   UNL     1      -1.864  12.183  20.712  0.00  0.00    +0.000 C 
ATOM      4  O   UNL     1      -1.060  12.405  21.615  0.00  0.00    +0.000 OA
ATOM      5  N   UNL     1      -3.208  12.510  20.745  0.00  0.00    +0.000 N 
ATOM      6  C   UNL     1      -3.991  12.733  21.888  0.00  0.00    +0.000 A 
ATOM      7  C   UNL     1      -3.583  12.845  23.206  0.00  0.00    +0.000 A 
ATOM      8  C   UNL     1      -4.561  13.003  24.193  0.00  0.00    +0.000 A 
ATOM      9  C   UNL     1      -5.922  13.036  23.857  0.00  0.00    +0.000 A 
ATOM     10  C   UNL     1      -6.324  12.923  22.526  0.00  0.00    +0.000 A 
ATOM     11  C   UNL     1      -5.349  12.773  21.548  0.00  0.00    +0.000 A 
ATOM     12  C   UNL     1      -5.539  12.727  20.049  0.00  0.00    +0.000 C 
ATOM     13  C   UNL     1      -5.968  14.137  19.557  0.00  0.00    +0.000 C 
ATOM     14  C   UNL     1      -7.317  13.916  18.889  0.00  0.00    +0.000 C 
ATOM     15  N   UNL     1      -7.268  12.536  18.395  0.00  0.00    +0.000 NA
ATOM     16  C   UNL     1      -6.570  12.403  17.104  0.00  0.00    +0.000 C 
ATOM     17  C   UNL     1      -5.301  11.570  17.060  0.00  0.00    +0.000 C 
ATOM     18  C   UNL     1      -4.351  11.811  16.135  0.00  0.00    +0.000 C 
ATOM     19  C   UNL     1      -3.007  11.159  16.146  0.00  0.00    +0.000 C 
ATOM     20  O   UNL     1      -2.300  11.668  17.272  0.00  0.00    +0.000 OA
ATOM     21  C   UNL     1      -2.461  10.891  18.463  0.00  0.00    +0.000 C 
ATOM     22  C   UNL     1      -3.875  10.959  19.063  0.00  0.00    +0.000 C 
ATOM     23  C   UNL     1      -4.087  12.377  19.584  0.00  0.00    +0.000 C 
ATOM     24  C   UNL     1      -5.041  10.547  18.153  0.00  0.00    +0.000 C 
ATOM     25  C   UNL     1      -6.257  10.411  19.059  0.00  0.00    +0.000 C 
ATOM     26  C   UNL     1      -6.667  11.797  19.522  0.00  0.00    +0.000 C 
ENDROOT
BRANCH   1  27
ATOM     27  O   UNL     1       0.143  10.300  18.264  0.00  0.00    +0.000 OA
BRANCH  27  28
ATOM     28  C   UNL     1       1.535   9.979  18.236  0.00  0.00    +0.000 C 
BRANCH  28  30
ATOM     29  C   UNL     1       2.976   7.957  17.754  0.00  0.00    +0.000 C 
ATOM     30  C   UNL     1       1.715   8.469  18.452  0.00  0.00    +0.000 C 
ATOM     31  C   UNL     1       1.774   8.131  19.943  0.00  0.00    +0.000 C 
ENDBRANCH  28  30
ENDBRANCH  27  28
ENDBRANCH   1  27
TORSDOF 3
ENDMDL
MODEL 7
REMARK VINA RESULT:      -6.8      2.184      6.013
REMARK  Name = 
REMARK  5 active torsions:
REMARK  status: ('A' for Active; 'I' for Inactive)
REMARK    1  A    between atoms: C_1  and  C_2
REMARK    2  A    between atoms: C_2  and  C_3
REMARK    3  A    between atoms: C_2  and  C_4
REMARK    4  A    between atoms: C_4  and  O_5
REMARK    5  A    between atoms: O_5  and  N_6
REMARK                            x       y       z     vdW  Elec       q    Type
REMARK                         _______ _______ _______ _____ _____    ______ ____
ROOT
ATOM      1  N   UNL     1      -0.917  11.279  18.858  0.00  0.00    +0.000 NA
ATOM      2  C   UNL     1      -2.006  11.773  19.386  0.00  0.00    +0.000 C 
ATOM      3  C   UNL     1      -3.312  11.665  18.558  0.00  0.00    +0.000 C 
ATOM      4  O   UNL     1      -3.250  11.254  17.401  0.00  0.00    +0.000 OA
ATOM      5  N   UNL     1      -4.454  12.147  19.171  0.00  0.00    +0.000 N 
ATOM      6  C   UNL     1      -5.595  12.664  18.537  0.00  0.00    +0.000 A 
ATOM      7  C   UNL     1      -5.912  12.656  17.190  0.00  0.00    +0.000 A 
ATOM      8  C   UNL     1      -7.086  13.294  16.780  0.00  0.00    +0.000 A 
ATOM      9  C   UNL     1      -7.917  13.937  17.709  0.00  0.00    +0.000 A 
ATOM     10  C   UNL     1      -7.590  13.939  19.066  0.00  0.00    +0.000 A 
ATOM     11  C   UNL     1      -6.426  13.298  19.470  0.00  0.00    +0.000 A 
ATOM     12  C   UNL     1      -5.923  13.090  20.880  0.00  0.00    +0.000 C 
ATOM     13  C   UNL     1      -6.857  12.079  21.600  0.00  0.00    +0.000 C 
ATOM     14  C   UNL     1      -7.395  12.842  22.802  0.00  0.00    +0.000 C 
ATOM     15  N   UNL     1      -6.342  13.808  23.132  0.00  0.00    +0.000 NA
ATOM     16  C   UNL     1      -5.254  13.233  23.942  0.00  0.00    +0.000 C 
ATOM     17  C   UNL     1      -3.859  13.195  23.342  0.00  0.00    +0.000 C 
ATOM     18  C   UNL     1      -2.967  12.265  23.734  0.00  0.00    +0.000 C 
ATOM     19  C   UNL     1      -1.649  12.054  23.062  0.00  0.00    +0.000 C 
ATOM     20  O   UNL     1      -1.915  11.519  21.770  0.00  0.00    +0.000 OA
ATOM     21  C   UNL     1      -2.050  12.507  20.745  0.00  0.00    +0.000 C 
ATOM     22  C   UNL     1      -3.317  13.368  20.873  0.00  0.00    +0.000 C 
ATOM     23  C   UNL     1      -4.517  12.467  20.597  0.00  0.00    +0.000 C 
ATOM     24  C   UNL     1      -3.516  14.128  22.193  0.00  0.00    +0.000 C 
ATOM     25  C   UNL     1      -4.649  15.114  21.947  0.00  0.00    +0.000 C 
ATOM     26  C   UNL     1      -5.943  14.334  21.812  0.00  0.00    +0.000 C 
ENDROOT
BRANCH   1  27
ATOM     27  O   UNL     1       0.193  11.507  19.678  0.00  0.00    +0.000 OA
BRANCH  27  28
ATOM     28  C   UNL     1       1.138  12.318  18.977  0.00  0.00    +0.000 C 
BRANCH  28  30
ATOM     29  C   UNL     1       2.782  14.009  19.890  0.00  0.00    +0.000 C 
ATOM     30  C   UNL     1       1.304  13.657  19.709  0.00  0.00    +0.000 C 
ATOM     31  C   UNL     1       0.590  14.785  18.962  0.00  0.00    +0.000 C 
ENDBRANCH  28  30
ENDBRANCH  27  28
ENDBRANCH   1  27
TORSDOF 3
ENDMDL
MODEL 8
REMARK VINA RESULT:      -6.7     11.240     12.535
REMARK  Name = 
REMARK  5 active torsions:
REMARK  status: ('A' for Active; 'I' for Inactive)
REMARK    1  A    between atoms: C_1  and  C_2
REMARK    2  A    between atoms: C_2  and  C_3
REMARK    3  A    between atoms: C_2  and  C_4
REMARK    4  A    between atoms: C_4  and  O_5
REMARK    5  A    between atoms: O_5  and  N_6
REMARK                            x       y       z     vdW  Elec       q    Type
REMARK                         _______ _______ _______ _____ _____    ______ ____
ROOT
ATOM      1  N   UNL     1       8.231  11.241  23.413  0.00  0.00    +0.000 NA
ATOM      2  C   UNL     1       8.592  12.199  22.601  0.00  0.00    +0.000 C 
ATOM      3  C   UNL     1       8.981  11.801  21.155  0.00  0.00    +0.000 C 
ATOM      4  O   UNL     1       9.069  10.608  20.871  0.00  0.00    +0.000 OA
ATOM      5  N   UNL     1       9.303  12.846  20.308  0.00  0.00    +0.000 N 
ATOM      6  C   UNL     1      10.161  12.795  19.199  0.00  0.00    +0.000 A 
ATOM      7  C   UNL     1      10.735  11.687  18.601  0.00  0.00    +0.000 A 
ATOM      8  C   UNL     1      11.616  11.889  17.534  0.00  0.00    +0.000 A 
ATOM      9  C   UNL     1      11.921  13.183  17.089  0.00  0.00    +0.000 A 
ATOM     10  C   UNL     1      11.336  14.295  17.696  0.00  0.00    +0.000 A 
ATOM     11  C   UNL     1      10.456  14.090  18.752  0.00  0.00    +0.000 A 
ATOM     12  C   UNL     1       9.639  15.123  19.492  0.00  0.00    +0.000 C 
ATOM     13  C   UNL     1       8.539  15.668  18.540  0.00  0.00    +0.000 C 
ATOM     14  C   UNL     1       8.809  17.164  18.459  0.00  0.00    +0.000 C 
ATOM     15  N   UNL     1       9.430  17.502  19.743  0.00  0.00    +0.000 NA
ATOM     16  C   UNL     1       8.454  17.702  20.829  0.00  0.00    +0.000 C 
ATOM     17  C   UNL     1       8.500  16.756  22.016  0.00  0.00    +0.000 C 
ATOM     18  C   UNL     1       7.394  16.514  22.747  0.00  0.00    +0.000 C 
ATOM     19  C   UNL     1       7.321  15.464  23.806  0.00  0.00    +0.000 C 
ATOM     20  O   UNL     1       7.388  14.200  23.153  0.00  0.00    +0.000 OA
ATOM     21  C   UNL     1       8.715  13.682  23.018  0.00  0.00    +0.000 C 
ATOM     22  C   UNL     1       9.591  14.470  22.030  0.00  0.00    +0.000 C 
ATOM     23  C   UNL     1       9.025  14.245  20.631  0.00  0.00    +0.000 C 
ATOM     24  C   UNL     1       9.770  15.971  22.296  0.00  0.00    +0.000 C 
ATOM     25  C   UNL     1      10.897  16.432  21.381  0.00  0.00    +0.000 C 
ATOM     26  C   UNL     1      10.393  16.403  19.949  0.00  0.00    +0.000 C 
ENDROOT
BRANCH   1  27
ATOM     27  O   UNL     1       7.978  11.733  24.698  0.00  0.00    +0.000 OA
BRANCH  27  28
ATOM     28  C   UNL     1       6.652  11.369  25.088  0.00  0.00    +0.000 C 
BRANCH  28  30
ATOM     29  C   UNL     1       6.288  10.805  27.527  0.00  0.00    +0.000 C 
ATOM     30  C   UNL     1       6.361  11.927  26.489  0.00  0.00    +0.000 C 
ATOM     31  C   UNL     1       7.422  12.948  26.905  0.00  0.00    +0.000 C 
ENDBRANCH  28  30
ENDBRANCH  27  28
ENDBRANCH   1  27
TORSDOF 3
ENDMDL
MODEL 9
REMARK VINA RESULT:      -6.7      8.785     11.816
REMARK  Name = 
REMARK  5 active torsions:
REMARK  status: ('A' for Active; 'I' for Inactive)
REMARK    1  A    between atoms: C_1  and  C_2
REMARK    2  A    between atoms: C_2  and  C_3
REMARK    3  A    between atoms: C_2  and  C_4
REMARK    4  A    between atoms: C_4  and  O_5
REMARK    5  A    between atoms: O_5  and  N_6
REMARK                            x       y       z     vdW  Elec       q    Type
REMARK                         _______ _______ _______ _____ _____    ______ ____
ROOT
ATOM      1  N   UNL     1       5.232  14.558  17.844  0.00  0.00    +0.000 NA
ATOM      2  C   UNL     1       6.382  14.725  18.443  0.00  0.00    +0.000 C 
ATOM      3  C   UNL     1       7.595  13.932  17.893  0.00  0.00    +0.000 C 
ATOM      4  O   UNL     1       7.406  13.087  17.021  0.00  0.00    +0.000 OA
ATOM      5  N   UNL     1       8.806  14.176  18.515  0.00  0.00    +0.000 N 
ATOM      6  C   UNL     1       9.890  13.292  18.620  0.00  0.00    +0.000 A 
ATOM      7  C   UNL     1      10.070  12.068  17.999  0.00  0.00    +0.000 A 
ATOM      8  C   UNL     1      11.214  11.327  18.310  0.00  0.00    +0.000 A 
ATOM      9  C   UNL     1      12.151  11.806  19.237  0.00  0.00    +0.000 A 
ATOM     10  C   UNL     1      11.963  13.042  19.858  0.00  0.00    +0.000 A 
ATOM     11  C   UNL     1      10.828  13.778  19.541  0.00  0.00    +0.000 A 
ATOM     12  C   UNL     1      10.464  15.168  20.010  0.00  0.00    +0.000 C 
ATOM     13  C   UNL     1      11.438  16.187  19.357  0.00  0.00    +0.000 C 
ATOM     14  C   UNL     1      12.114  16.879  20.532  0.00  0.00    +0.000 C 
ATOM     15  N   UNL     1      11.127  16.826  21.614  0.00  0.00    +0.000 NA
ATOM     16  C   UNL     1      10.110  17.889  21.530  0.00  0.00    +0.000 C 
ATOM     17  C   UNL     1       8.661  17.480  21.329  0.00  0.00    +0.000 C 
ATOM     18  C   UNL     1       7.788  18.312  20.730  0.00  0.00    +0.000 C 
ATOM     19  C   UNL     1       6.404  17.909  20.337  0.00  0.00    +0.000 C 
ATOM     20  O   UNL     1       6.524  16.973  19.270  0.00  0.00    +0.000 OA
ATOM     21  C   UNL     1       6.582  15.608  19.695  0.00  0.00    +0.000 C 
ATOM     22  C   UNL     1       7.879  15.242  20.436  0.00  0.00    +0.000 C 
ATOM     23  C   UNL     1       9.020  15.302  19.425  0.00  0.00    +0.000 C 
ATOM     24  C   UNL     1       8.229  16.066  21.683  0.00  0.00    +0.000 C 
ATOM     25  C   UNL     1       9.359  15.320  22.380  0.00  0.00    +0.000 C 
ATOM     26  C   UNL     1      10.611  15.445  21.532  0.00  0.00    +0.000 C 
ENDROOT
BRANCH   1  27
ATOM     27  O   UNL     1       4.217  15.275  18.485  0.00  0.00    +0.000 OA
BRANCH  27  28
ATOM     28  C   UNL     1       3.483  16.024  17.513  0.00  0.00    +0.000 C 
BRANCH  28  30
ATOM     29  C   UNL     1       2.605  17.253  19.542  0.00  0.00    +0.000 C 
ATOM     30  C   UNL     1       2.252  16.654  18.179  0.00  0.00    +0.000 C 
ATOM     31  C   UNL     1       1.634  17.732  17.284  0.00  0.00    +0.000 C 
ENDBRANCH  28  30
ENDBRANCH  27  28
ENDBRANCH   1  27
TORSDOF 3
ENDMDL
