MODEL 1
REMARK VINA RESULT:      -7.9      0.000      0.000
REMARK  Name = 
REMARK  6 active torsions:
REMARK  status: ('A' for Active; 'I' for Inactive)
REMARK    1  A    between atoms: C_1  and  C_2
REMARK    2  A    between atoms: C_4  and  C_5
REMARK    3  A    between atoms: C_6  and  C_7
REMARK    4  A    between atoms: C_11  and  O_12
REMARK    5  A    between atoms: O_12  and  C_13
REMARK    6  A    between atoms: C_21  and  O_22
REMARK                            x       y       z     vdW  Elec       q    Type
REMARK                         _______ _______ _______ _____ _____    ______ ____
ROOT
ATOM      1  C   UNL     1       2.284   6.354  19.874  0.00  0.00    +0.000 A 
ATOM      2  C   UNL     1       1.418   5.415  20.449  0.00  0.00    +0.000 A 
ATOM      3  C   UNL     1       1.794   4.115  20.719  0.00  0.00    +0.000 A 
ATOM      4  C   UNL     1       3.029   3.674  20.364  0.00  0.00    +0.000 A 
ATOM      5  C   UNL     1       3.945   4.556  19.743  0.00  0.00    +0.000 A 
ATOM      6  C   UNL     1       3.549   5.865  19.529  0.00  0.00    +0.000 A 
ENDROOT
BRANCH   1  12
ATOM      7  C   UNL     1       0.796  11.823  18.833  0.00  0.00    +0.000 C 
ATOM      8  C   UNL     1       1.146  10.407  19.177  0.00  0.00    +0.000 A 
ATOM      9  N   UNL     1       1.792   9.719  18.201  0.00  0.00    +0.000 NA
ATOM     10  C   UNL     1       2.145   8.431  18.430  0.00  0.00    +0.000 A 
ATOM     11  C   UNL     1       2.773   7.752  17.245  0.00  0.00    +0.000 C 
ATOM     12  C   UNL     1       1.904   7.765  19.653  0.00  0.00    +0.000 A 
ATOM     13  C   UNL     1       1.228   8.525  20.638  0.00  0.00    +0.000 A 
ATOM     14  C   UNL     1       0.836   9.843  20.401  0.00  0.00    +0.000 A 
ATOM     15 BR   UNL     1      -0.094  10.820  21.748  0.00  0.00    +0.000 Br
BRANCH  13  16
ATOM     16  O   UNL     1       0.914   8.018  21.881  0.00  0.00    +0.000 OA
ATOM     17  H   UNL     1       0.931   8.718  22.547  0.00  0.00    +0.000 HD
ENDBRANCH  13  16
ENDBRANCH   1  12
BRANCH   5  18
ATOM     18  O   UNL     1       5.171   4.028  19.379  0.00  0.00    +0.000 OA
BRANCH  18  19
ATOM     19  C   UNL     1       5.614   4.239  18.091  0.00  0.00    +0.000 A 
ATOM     20  C   UNL     1       4.790   3.990  16.999  0.00  0.00    +0.000 A 
ATOM     21  C   UNL     1       5.250   4.143  15.706  0.00  0.00    +0.000 A 
ATOM     22  C   UNL     1       6.542   4.622  15.496  0.00  0.00    +0.000 A 
ATOM     23 CL   UNL     1       7.102   4.843  13.885  0.00  0.00    +0.000 Cl
ATOM     24  C   UNL     1       7.372   4.921  16.575  0.00  0.00    +0.000 A 
ATOM     25  C   UNL     1       6.918   4.727  17.884  0.00  0.00    +0.000 A 
ENDBRANCH  18  19
ENDBRANCH   5  18
TORSDOF 4
ENDMDL
MODEL 2
REMARK VINA RESULT:      -7.8      2.710      3.604
REMARK  Name = 
REMARK  6 active torsions:
REMARK  status: ('A' for Active; 'I' for Inactive)
REMARK    1  A    between atoms: C_1  and  C_2
REMARK    2  A    between atoms: C_4  and  C_5
REMARK    3  A    between atoms: C_6  and  C_7
REMARK    4  A    between atoms: C_11  and  O_12
REMARK    5  A    between atoms: O_12  and  C_13
REMARK    6  A    between atoms: C_21  and  O_22
REMARK                            x       y       z     vdW  Elec       q    Type
REMARK                         _______ _______ _______ _____ _____    ______ ____
ROOT
ATOM      1  C   UNL     1       2.899   5.731  18.346  0.00  0.00    +0.000 A 
ATOM      2  C   UNL     1       2.248   4.655  17.730  0.00  0.00    +0.000 A 
ATOM      3  C   UNL     1       2.921   3.667  17.040  0.00  0.00    +0.000 A 
ATOM      4  C   UNL     1       4.267   3.746  16.875  0.00  0.00    +0.000 A 
ATOM      5  C   UNL     1       4.988   4.826  17.437  0.00  0.00    +0.000 A 
ATOM      6  C   UNL     1       4.285   5.775  18.161  0.00  0.00    +0.000 A 
ENDROOT
BRANCH   1  12
ATOM      7  C   UNL     1       0.166   9.611  21.617  0.00  0.00    +0.000 C 
ATOM      8  C   UNL     1       0.887   8.660  20.710  0.00  0.00    +0.000 A 
ATOM      9  N   UNL     1       1.070   7.411  21.210  0.00  0.00    +0.000 NA
ATOM     10  C   UNL     1       1.714   6.489  20.453  0.00  0.00    +0.000 A 
ATOM     11  C   UNL     1       1.931   5.175  21.150  0.00  0.00    +0.000 C 
ATOM     12  C   UNL     1       2.185   6.748  19.146  0.00  0.00    +0.000 A 
ATOM     13  C   UNL     1       1.971   8.065  18.671  0.00  0.00    +0.000 A 
ATOM     14  C   UNL     1       1.333   9.028  19.453  0.00  0.00    +0.000 A 
ATOM     15 BR   UNL     1       1.088  10.795  18.781  0.00  0.00    +0.000 Br
BRANCH  13  16
ATOM     16  O   UNL     1       2.375   8.478  17.419  0.00  0.00    +0.000 OA
ATOM     17  H   UNL     1       2.369   7.737  16.799  0.00  0.00    +0.000 HD
ENDBRANCH  13  16
ENDBRANCH   1  12
BRANCH   5  18
ATOM     18  O   UNL     1       6.350   4.859  17.199  0.00  0.00    +0.000 OA
BRANCH  18  19
ATOM     19  C   UNL     1       7.060   5.961  17.626  0.00  0.00    +0.000 A 
ATOM     20  C   UNL     1       7.824   5.915  18.787  0.00  0.00    +0.000 A 
ATOM     21  C   UNL     1       8.488   7.035  19.250  0.00  0.00    +0.000 A 
ATOM     22  C   UNL     1       8.445   8.209  18.502  0.00  0.00    +0.000 A 
ATOM     23 CL   UNL     1       9.299   9.592  19.064  0.00  0.00    +0.000 Cl
ATOM     24  C   UNL     1       7.722   8.267  17.312  0.00  0.00    +0.000 A 
ATOM     25  C   UNL     1       7.016   7.144  16.866  0.00  0.00    +0.000 A 
ENDBRANCH  18  19
ENDBRANCH   5  18
TORSDOF 4
ENDMDL
MODEL 3
REMARK VINA RESULT:      -7.6      2.770      4.445
REMARK  Name = 
REMARK  6 active torsions:
REMARK  status: ('A' for Active; 'I' for Inactive)
REMARK    1  A    between atoms: C_1  and  C_2
REMARK    2  A    between atoms: C_4  and  C_5
REMARK    3  A    between atoms: C_6  and  C_7
REMARK    4  A    between atoms: C_11  and  O_12
REMARK    5  A    between atoms: O_12  and  C_13
REMARK    6  A    between atoms: C_21  and  O_22
REMARK                            x       y       z     vdW  Elec       q    Type
REMARK                         _______ _______ _______ _____ _____    ______ ____
ROOT
ATOM      1  C   UNL     1       0.641   9.754  19.321  0.00  0.00    +0.000 A 
ATOM      2  C   UNL     1       1.343   9.776  18.109  0.00  0.00    +0.000 A 
ATOM      3  C   UNL     1       2.222   8.782  17.732  0.00  0.00    +0.000 A 
ATOM      4  C   UNL     1       2.494   7.756  18.579  0.00  0.00    +0.000 A 
ATOM      5  C   UNL     1       1.853   7.686  19.838  0.00  0.00    +0.000 A 
ATOM      6  C   UNL     1       0.943   8.678  20.163  0.00  0.00    +0.000 A 
ENDROOT
BRANCH   1  12
ATOM      7  C   UNL     1      -3.372  13.659  20.683  0.00  0.00    +0.000 C 
ATOM      8  C   UNL     1      -2.287  12.667  20.395  0.00  0.00    +0.000 A 
ATOM      9  N   UNL     1      -2.499  11.876  19.311  0.00  0.00    +0.000 NA
ATOM     10  C   UNL     1      -1.565  10.951  18.981  0.00  0.00    +0.000 A 
ATOM     11  C   UNL     1      -1.955  10.082  17.818  0.00  0.00    +0.000 C 
ATOM     12  C   UNL     1      -0.355  10.781  19.691  0.00  0.00    +0.000 A 
ATOM     13  C   UNL     1      -0.181  11.628  20.813  0.00  0.00    +0.000 A 
ATOM     14  C   UNL     1      -1.149  12.565  21.176  0.00  0.00    +0.000 A 
ATOM     15 BR   UNL     1      -0.884  13.667  22.708  0.00  0.00    +0.000 Br
BRANCH  13  16
ATOM     16  O   UNL     1       0.941  11.583  21.611  0.00  0.00    +0.000 OA
ATOM     17  H   UNL     1       1.001  12.376  22.159  0.00  0.00    +0.000 HD
ENDBRANCH  13  16
ENDBRANCH   1  12
BRANCH   5  18
ATOM     18  O   UNL     1       2.205   6.632  20.662  0.00  0.00    +0.000 OA
BRANCH  18  19
ATOM     19  C   UNL     1       2.494   5.418  20.079  0.00  0.00    +0.000 A 
ATOM     20  C   UNL     1       1.495   4.478  19.847  0.00  0.00    +0.000 A 
ATOM     21  C   UNL     1       1.790   3.237  19.318  0.00  0.00    +0.000 A 
ATOM     22  C   UNL     1       3.101   2.950  18.946  0.00  0.00    +0.000 A 
ATOM     23 CL   UNL     1       3.460   1.415  18.257  0.00  0.00    +0.000 Cl
ATOM     24  C   UNL     1       4.113   3.892  19.126  0.00  0.00    +0.000 A 
ATOM     25  C   UNL     1       3.819   5.134  19.701  0.00  0.00    +0.000 A 
ENDBRANCH  18  19
ENDBRANCH   5  18
TORSDOF 4
ENDMDL
MODEL 4
REMARK VINA RESULT:      -7.6      2.786      4.614
REMARK  Name = 
REMARK  6 active torsions:
REMARK  status: ('A' for Active; 'I' for Inactive)
REMARK    1  A    between atoms: C_1  and  C_2
REMARK    2  A    between atoms: C_4  and  C_5
REMARK    3  A    between atoms: C_6  and  C_7
REMARK    4  A    between atoms: C_11  and  O_12
REMARK    5  A    between atoms: O_12  and  C_13
REMARK    6  A    between atoms: C_21  and  O_22
REMARK                            x       y       z     vdW  Elec       q    Type
REMARK                         _______ _______ _______ _____ _____    ______ ____
ROOT
ATOM      1  C   UNL     1       0.748   9.887  19.324  0.00  0.00    +0.000 A 
ATOM      2  C   UNL     1       1.431   9.831  18.101  0.00  0.00    +0.000 A 
ATOM      3  C   UNL     1       2.223   8.763  17.733  0.00  0.00    +0.000 A 
ATOM      4  C   UNL     1       2.426   7.735  18.597  0.00  0.00    +0.000 A 
ATOM      5  C   UNL     1       1.800   7.741  19.866  0.00  0.00    +0.000 A 
ATOM      6  C   UNL     1       0.976   8.807  20.183  0.00  0.00    +0.000 A 
ENDROOT
BRANCH   1  12
ATOM      7  C   UNL     1      -2.926  14.111  20.692  0.00  0.00    +0.000 C 
ATOM      8  C   UNL     1      -1.919  13.043  20.392  0.00  0.00    +0.000 A 
ATOM      9  N   UNL     1      -2.312  12.119  19.479  0.00  0.00    +0.000 NA
ATOM     10  C   UNL     1      -1.459  11.118  19.150  0.00  0.00    +0.000 A 
ATOM     11  C   UNL     1      -2.042  10.111  18.197  0.00  0.00    +0.000 C 
ATOM     12  C   UNL     1      -0.158  10.997  19.686  0.00  0.00    +0.000 A 
ATOM     13  C   UNL     1       0.205  11.985  20.634  0.00  0.00    +0.000 A 
ATOM     14  C   UNL     1      -0.676  13.004  20.999  0.00  0.00    +0.000 A 
ATOM     15 BR   UNL     1      -0.154  14.298  22.298  0.00  0.00    +0.000 Br
BRANCH  13  16
ATOM     16  O   UNL     1       1.437  12.005  21.252  0.00  0.00    +0.000 OA
ATOM     17  H   UNL     1       1.672  12.905  21.512  0.00  0.00    +0.000 HD
ENDBRANCH  13  16
ENDBRANCH   1  12
BRANCH   5  18
ATOM     18  O   UNL     1       2.080   6.677  20.706  0.00  0.00    +0.000 OA
BRANCH  18  19
ATOM     19  C   UNL     1       2.396   5.463  20.137  0.00  0.00    +0.000 A 
ATOM     20  C   UNL     1       3.696   5.179  19.729  0.00  0.00    +0.000 A 
ATOM     21  C   UNL     1       4.004   3.987  19.104  0.00  0.00    +0.000 A 
ATOM     22  C   UNL     1       3.009   3.026  18.942  0.00  0.00    +0.000 A 
ATOM     23 CL   UNL     1       3.403   1.529  18.193  0.00  0.00    +0.000 Cl
ATOM     24  C   UNL     1       1.709   3.269  19.382  0.00  0.00    +0.000 A 
ATOM     25  C   UNL     1       1.389   4.494  19.979  0.00  0.00    +0.000 A 
ENDBRANCH  18  19
ENDBRANCH   5  18
TORSDOF 4
ENDMDL
MODEL 5
REMARK VINA RESULT:      -7.6      4.424      7.963
REMARK  Name = 
REMARK  6 active torsions:
REMARK  status: ('A' for Active; 'I' for Inactive)
REMARK    1  A    between atoms: C_1  and  C_2
REMARK    2  A    between atoms: C_4  and  C_5
REMARK    3  A    between atoms: C_6  and  C_7
REMARK    4  A    between atoms: C_11  and  O_12
REMARK    5  A    between atoms: O_12  and  C_13
REMARK    6  A    between atoms: C_21  and  O_22
REMARK                            x       y       z     vdW  Elec       q    Type
REMARK                         _______ _______ _______ _____ _____    ______ ____
ROOT
ATOM      1  C   UNL     1       1.930   7.557  19.627  0.00  0.00    +0.000 A 
ATOM      2  C   UNL     1       1.789   7.753  21.007  0.00  0.00    +0.000 A 
ATOM      3  C   UNL     1       1.146   8.848  21.547  0.00  0.00    +0.000 A 
ATOM      4  C   UNL     1       0.677   9.832  20.737  0.00  0.00    +0.000 A 
ATOM      5  C   UNL     1       0.818   9.722  19.333  0.00  0.00    +0.000 A 
ATOM      6  C   UNL     1       1.427   8.587  18.825  0.00  0.00    +0.000 A 
ENDROOT
BRANCH   1  12
ATOM      7  C   UNL     1       4.211   2.749  17.415  0.00  0.00    +0.000 C 
ATOM      8  C   UNL     1       3.662   4.042  17.936  0.00  0.00    +0.000 A 
ATOM      9  N   UNL     1       2.739   3.922  18.925  0.00  0.00    +0.000 NA
ATOM     10  C   UNL     1       2.192   5.043  19.452  0.00  0.00    +0.000 A 
ATOM     11  C   UNL     1       1.122   4.776  20.474  0.00  0.00    +0.000 C 
ATOM     12  C   UNL     1       2.553   6.348  19.049  0.00  0.00    +0.000 A 
ATOM     13  C   UNL     1       3.518   6.422  18.015  0.00  0.00    +0.000 A 
ATOM     14  C   UNL     1       4.067   5.271  17.447  0.00  0.00    +0.000 A 
ATOM     15 BR   UNL     1       5.346   5.417  16.040  0.00  0.00    +0.000 Br
BRANCH  13  16
ATOM     16  O   UNL     1       3.972   7.619  17.506  0.00  0.00    +0.000 OA
ATOM     17  H   UNL     1       4.133   7.546  16.556  0.00  0.00    +0.000 HD
ENDBRANCH  13  16
ENDBRANCH   1  12
BRANCH   5  18
ATOM     18  O   UNL     1       0.347  10.777  18.573  0.00  0.00    +0.000 OA
BRANCH  18  19
ATOM     19  C   UNL     1      -1.010  10.865  18.350  0.00  0.00    +0.000 A 
ATOM     20  C   UNL     1      -1.786  11.810  19.014  0.00  0.00    +0.000 A 
ATOM     21  C   UNL     1      -3.155  11.862  18.839  0.00  0.00    +0.000 A 
ATOM     22  C   UNL     1      -3.757  10.997  17.928  0.00  0.00    +0.000 A 
ATOM     23 CL   UNL     1      -5.458  11.085  17.687  0.00  0.00    +0.000 Cl
ATOM     24  C   UNL     1      -2.995  10.071  17.217  0.00  0.00    +0.000 A 
ATOM     25  C   UNL     1      -1.614   9.992  17.427  0.00  0.00    +0.000 A 
ENDBRANCH  18  19
ENDBRANCH   5  18
TORSDOF 4
ENDMDL
MODEL 6
REMARK VINA RESULT:      -7.5      4.438      7.838
REMARK  Name = 
REMARK  6 active torsions:
REMARK  status: ('A' for Active; 'I' for Inactive)
REMARK    1  A    between atoms: C_1  and  C_2
REMARK    2  A    between atoms: C_4  and  C_5
REMARK    3  A    between atoms: C_6  and  C_7
REMARK    4  A    between atoms: C_11  and  O_12
REMARK    5  A    between atoms: O_12  and  C_13
REMARK    6  A    between atoms: C_21  and  O_22
REMARK                            x       y       z     vdW  Elec       q    Type
REMARK                         _______ _______ _______ _____ _____    ______ ____
ROOT
ATOM      1  C   UNL     1       2.550   7.107  18.785  0.00  0.00    +0.000 A 
ATOM      2  C   UNL     1       2.214   6.931  20.134  0.00  0.00    +0.000 A 
ATOM      3  C   UNL     1       1.414   7.814  20.829  0.00  0.00    +0.000 A 
ATOM      4  C   UNL     1       0.968   8.948  20.229  0.00  0.00    +0.000 A 
ATOM      5  C   UNL     1       1.299   9.213  18.879  0.00  0.00    +0.000 A 
ATOM      6  C   UNL     1       2.067   8.283  18.200  0.00  0.00    +0.000 A 
ENDROOT
BRANCH   1  12
ATOM      7  C   UNL     1       5.503   3.198  15.751  0.00  0.00    +0.000 C 
ATOM      8  C   UNL     1       4.798   4.266  16.529  0.00  0.00    +0.000 A 
ATOM      9  N   UNL     1       3.549   3.943  16.953  0.00  0.00    +0.000 NA
ATOM     10  C   UNL     1       2.841   4.854  17.665  0.00  0.00    +0.000 A 
ATOM     11  C   UNL     1       1.444   4.412  17.999  0.00  0.00    +0.000 C 
ATOM     12  C   UNL     1       3.347   6.124  18.022  0.00  0.00    +0.000 A 
ATOM     13  C   UNL     1       4.653   6.414  17.556  0.00  0.00    +0.000 A 
ATOM     14  C   UNL     1       5.378   5.493  16.800  0.00  0.00    +0.000 A 
ATOM     15 BR   UNL     1       7.123   5.935  16.173  0.00  0.00    +0.000 Br
BRANCH  13  16
ATOM     16  O   UNL     1       5.285   7.610  17.815  0.00  0.00    +0.000 OA
ATOM     17  H   UNL     1       4.808   8.107  18.492  0.00  0.00    +0.000 HD
ENDBRANCH  13  16
ENDBRANCH   1  12
BRANCH   5  18
ATOM     18  O   UNL     1       0.839  10.404  18.345  0.00  0.00    +0.000 OA
BRANCH  18  19
ATOM     19  C   UNL     1      -0.522  10.585  18.233  0.00  0.00    +0.000 A 
ATOM     20  C   UNL     1      -1.169  11.606  18.920  0.00  0.00    +0.000 A 
ATOM     21  C   UNL     1      -2.541  11.753  18.858  0.00  0.00    +0.000 A 
ATOM     22  C   UNL     1      -3.279  10.905  18.035  0.00  0.00    +0.000 A 
ATOM     23 CL   UNL     1      -4.984  11.112  17.933  0.00  0.00    +0.000 Cl
ATOM     24  C   UNL     1      -2.649   9.902  17.301  0.00  0.00    +0.000 A 
ATOM     25  C   UNL     1      -1.263   9.728  17.398  0.00  0.00    +0.000 A 
ENDBRANCH  18  19
ENDBRANCH   5  18
TORSDOF 4
ENDMDL
MODEL 7
REMARK VINA RESULT:      -7.5      4.412      7.799
REMARK  Name = 
REMARK  6 active torsions:
REMARK  status: ('A' for Active; 'I' for Inactive)
REMARK    1  A    between atoms: C_1  and  C_2
REMARK    2  A    between atoms: C_4  and  C_5
REMARK    3  A    between atoms: C_6  and  C_7
REMARK    4  A    between atoms: C_11  and  O_12
REMARK    5  A    between atoms: O_12  and  C_13
REMARK    6  A    between atoms: C_21  and  O_22
REMARK                            x       y       z     vdW  Elec       q    Type
REMARK                         _______ _______ _______ _____ _____    ______ ____
ROOT
ATOM      1  C   UNL     1       2.584   7.026  18.813  0.00  0.00    +0.000 A 
ATOM      2  C   UNL     1       2.241   6.876  20.162  0.00  0.00    +0.000 A 
ATOM      3  C   UNL     1       1.458   7.786  20.843  0.00  0.00    +0.000 A 
ATOM      4  C   UNL     1       1.041   8.922  20.227  0.00  0.00    +0.000 A 
ATOM      5  C   UNL     1       1.381   9.162  18.875  0.00  0.00    +0.000 A 
ATOM      6  C   UNL     1       2.130   8.205  18.210  0.00  0.00    +0.000 A 
ENDROOT
BRANCH   1  12
ATOM      7  C   UNL     1       5.454   3.004  15.847  0.00  0.00    +0.000 C 
ATOM      8  C   UNL     1       4.770   4.101  16.604  0.00  0.00    +0.000 A 
ATOM      9  N   UNL     1       3.534   3.795  17.074  0.00  0.00    +0.000 NA
ATOM     10  C   UNL     1       2.846   4.732  17.771  0.00  0.00    +0.000 A 
ATOM     11  C   UNL     1       1.458   4.304  18.161  0.00  0.00    +0.000 C 
ATOM     12  C   UNL     1       3.360   6.015  18.065  0.00  0.00    +0.000 A 
ATOM     13  C   UNL     1       4.652   6.286  17.553  0.00  0.00    +0.000 A 
ATOM     14  C   UNL     1       5.357   5.337  16.812  0.00  0.00    +0.000 A 
ATOM     15 BR   UNL     1       7.083   5.755  16.120  0.00  0.00    +0.000 Br
BRANCH  13  16
ATOM     16  O   UNL     1       5.291   7.492  17.748  0.00  0.00    +0.000 OA
ATOM     17  H   UNL     1       5.964   7.412  18.436  0.00  0.00    +0.000 HD
ENDBRANCH  13  16
ENDBRANCH   1  12
BRANCH   5  18
ATOM     18  O   UNL     1       0.951  10.355  18.323  0.00  0.00    +0.000 OA
BRANCH  18  19
ATOM     19  C   UNL     1      -0.406  10.574  18.221  0.00  0.00    +0.000 A 
ATOM     20  C   UNL     1      -1.210   9.741  17.450  0.00  0.00    +0.000 A 
ATOM     21  C   UNL     1      -2.559   9.993  17.296  0.00  0.00    +0.000 A 
ATOM     22  C   UNL     1      -3.136  11.059  17.984  0.00  0.00    +0.000 A 
ATOM     23 CL   UNL     1      -4.823  11.350  17.817  0.00  0.00    +0.000 Cl
ATOM     24  C   UNL     1      -2.359  11.881  18.798  0.00  0.00    +0.000 A 
ATOM     25  C   UNL     1      -0.984  11.650  18.920  0.00  0.00    +0.000 A 
ENDBRANCH  18  19
ENDBRANCH   5  18
TORSDOF 4
ENDMDL
MODEL 8
REMARK VINA RESULT:      -7.3      3.379      5.017
REMARK  Name = 
REMARK  6 active torsions:
REMARK  status: ('A' for Active; 'I' for Inactive)
REMARK    1  A    between atoms: C_1  and  C_2
REMARK    2  A    between atoms: C_4  and  C_5
REMARK    3  A    between atoms: C_6  and  C_7
REMARK    4  A    between atoms: C_11  and  O_12
REMARK    5  A    between atoms: O_12  and  C_13
REMARK    6  A    between atoms: C_21  and  O_22
REMARK                            x       y       z     vdW  Elec       q    Type
REMARK                         _______ _______ _______ _____ _____    ______ ____
ROOT
ATOM      1  C   UNL     1       0.651  10.040  19.177  0.00  0.00    +0.000 A 
ATOM      2  C   UNL     1       1.335  10.228  17.968  0.00  0.00    +0.000 A 
ATOM      3  C   UNL     1       2.286   9.344  17.500  0.00  0.00    +0.000 A 
ATOM      4  C   UNL     1       2.647   8.271  18.249  0.00  0.00    +0.000 A 
ATOM      5  C   UNL     1       2.028   8.037  19.499  0.00  0.00    +0.000 A 
ATOM      6  C   UNL     1       1.046   8.920  19.917  0.00  0.00    +0.000 A 
ENDROOT
BRANCH   1  12
ATOM      7  C   UNL     1      -3.642  13.471  20.912  0.00  0.00    +0.000 C 
ATOM      8  C   UNL     1      -2.483  12.602  20.526  0.00  0.00    +0.000 A 
ATOM      9  N   UNL     1      -2.670  11.851  19.411  0.00  0.00    +0.000 NA
ATOM     10  C   UNL     1      -1.670  11.038  18.993  0.00  0.00    +0.000 A 
ATOM     11  C   UNL     1      -2.030  10.195  17.801  0.00  0.00    +0.000 C 
ATOM     12  C   UNL     1      -0.418  10.947  19.642  0.00  0.00    +0.000 A 
ATOM     13  C   UNL     1      -0.273  11.749  20.801  0.00  0.00    +0.000 A 
ATOM     14  C   UNL     1      -1.307  12.570  21.254  0.00  0.00    +0.000 A 
ATOM     15 BR   UNL     1      -1.076  13.613  22.833  0.00  0.00    +0.000 Br
BRANCH  13  16
ATOM     16  O   UNL     1       0.884  11.771  21.549  0.00  0.00    +0.000 OA
ATOM     17  H   UNL     1       0.706  11.494  22.458  0.00  0.00    +0.000 HD
ENDBRANCH  13  16
ENDBRANCH   1  12
BRANCH   5  18
ATOM     18  O   UNL     1       2.471   6.944  20.222  0.00  0.00    +0.000 OA
BRANCH  18  19
ATOM     19  C   UNL     1       2.058   5.691  19.826  0.00  0.00    +0.000 A 
ATOM     20  C   UNL     1       2.229   5.261  18.514  0.00  0.00    +0.000 A 
ATOM     21  C   UNL     1       1.763   4.029  18.099  0.00  0.00    +0.000 A 
ATOM     22  C   UNL     1       1.174   3.175  19.030  0.00  0.00    +0.000 A 
ATOM     23 CL   UNL     1       0.624   1.628  18.518  0.00  0.00    +0.000 Cl
ATOM     24  C   UNL     1       1.032   3.565  20.361  0.00  0.00    +0.000 A 
ATOM     25  C   UNL     1       1.468   4.831  20.770  0.00  0.00    +0.000 A 
ENDBRANCH  18  19
ENDBRANCH   5  18
TORSDOF 4
ENDMDL
MODEL 9
REMARK VINA RESULT:      -7.3      4.405      7.804
REMARK  Name = 
REMARK  6 active torsions:
REMARK  status: ('A' for Active; 'I' for Inactive)
REMARK    1  A    between atoms: C_1  and  C_2
REMARK    2  A    between atoms: C_4  and  C_5
REMARK    3  A    between atoms: C_6  and  C_7
REMARK    4  A    between atoms: C_11  and  O_12
REMARK    5  A    between atoms: O_12  and  C_13
REMARK    6  A    between atoms: C_21  and  O_22
REMARK                            x       y       z     vdW  Elec       q    Type
REMARK                         _______ _______ _______ _____ _____    ______ ____
ROOT
ATOM      1  C   UNL     1       2.278   7.408  18.933  0.00  0.00    +0.000 A 
ATOM      2  C   UNL     1       2.068   7.351  20.317  0.00  0.00    +0.000 A 
ATOM      3  C   UNL     1       1.318   8.286  21.000  0.00  0.00    +0.000 A 
ATOM      4  C   UNL     1       0.801   9.357  20.345  0.00  0.00    +0.000 A 
ATOM      5  C   UNL     1       1.005   9.502  18.952  0.00  0.00    +0.000 A 
ATOM      6  C   UNL     1       1.725   8.521  18.291  0.00  0.00    +0.000 A 
ENDROOT
BRANCH   1  12
ATOM      7  C   UNL     1       5.322   3.449  16.055  0.00  0.00    +0.000 C 
ATOM      8  C   UNL     1       4.482   4.418  16.830  0.00  0.00    +0.000 A 
ATOM      9  N   UNL     1       4.905   5.708  16.794  0.00  0.00    +0.000 NA
ATOM     10  C   UNL     1       4.201   6.649  17.469  0.00  0.00    +0.000 A 
ATOM     11  C   UNL     1       4.819   8.019  17.424  0.00  0.00    +0.000 C 
ATOM     12  C   UNL     1       3.020   6.367  18.191  0.00  0.00    +0.000 A 
ATOM     13  C   UNL     1       2.620   5.008  18.199  0.00  0.00    +0.000 A 
ATOM     14  C   UNL     1       3.353   4.028  17.529  0.00  0.00    +0.000 A 
ATOM     15 BR   UNL     1       2.791   2.208  17.588  0.00  0.00    +0.000 Br
BRANCH  13  16
ATOM     16  O   UNL     1       1.494   4.569  18.861  0.00  0.00    +0.000 OA
ATOM     17  H   UNL     1       1.693   3.782  19.385  0.00  0.00    +0.000 HD
ENDBRANCH  13  16
ENDBRANCH   1  12
BRANCH   5  18
ATOM     18  O   UNL     1       0.478  10.636  18.358  0.00  0.00    +0.000 OA
BRANCH  18  19
ATOM     19  C   UNL     1      -0.889  10.721  18.216  0.00  0.00    +0.000 A 
ATOM     20  C   UNL     1      -1.580   9.843  17.388  0.00  0.00    +0.000 A 
ATOM     21  C   UNL     1      -2.943   9.963  17.196  0.00  0.00    +0.000 A 
ATOM     22  C   UNL     1      -3.645  10.939  17.899  0.00  0.00    +0.000 A 
ATOM     23 CL   UNL     1      -5.347  11.066  17.684  0.00  0.00    +0.000 Cl
ATOM     24  C   UNL     1      -2.982  11.803  18.769  0.00  0.00    +0.000 A 
ATOM     25  C   UNL     1      -1.595  11.706  18.931  0.00  0.00    +0.000 A 
ENDBRANCH  18  19
ENDBRANCH   5  18
TORSDOF 4
ENDMDL
