MODEL 1
REMARK VINA RESULT:      -6.8      0.000      0.000
REMARK  Name = 
REMARK  10 active torsions:
REMARK  status: ('A' for Active; 'I' for Inactive)
REMARK    1  A    between atoms: C_1  and  C_2
REMARK    2  A    between atoms: C_2  and  C_3
REMARK    3  A    between atoms: C_3  and  C_4
REMARK    4  A    between atoms: C_4  and  N_5
REMARK    5  A    between atoms: N_5  and  C_6
REMARK    6  A    between atoms: N_5  and  C_9
REMARK    7  A    between atoms: C_6  and  C_7
REMARK    8  A    between atoms: C_7  and  C_8
REMARK    9  A    between atoms: C_14  and  O_15
REMARK   10  A    between atoms: C_16  and  O_17
REMARK                            x       y       z     vdW  Elec       q    Type
REMARK                         _______ _______ _______ _____ _____    ______ ____
ROOT
ATOM      1  C   UNL     1       5.229   5.095  17.183  0.00  0.00    +0.000 C 
ATOM      2  C   UNL     1       4.185   6.214  17.389  0.00  0.00    +0.000 C 
ATOM      3  C   UNL     1       2.813   5.621  17.748  0.00  0.00    +0.000 C 
ATOM      4  C   UNL     1       2.879   4.605  18.856  0.00  0.00    +0.000 A 
ATOM      5  C   UNL     1       1.696   4.221  19.505  0.00  0.00    +0.000 A 
ATOM      6  C   UNL     1       1.728   3.305  20.566  0.00  0.00    +0.000 A 
ATOM      7  C   UNL     1       2.957   2.762  20.979  0.00  0.00    +0.000 A 
ATOM      8  C   UNL     1       4.135   3.133  20.324  0.00  0.00    +0.000 A 
ATOM      9  C   UNL     1       4.104   4.037  19.253  0.00  0.00    +0.000 A 
ATOM     10  C   UNL     1       5.398   4.362  18.547  0.00  0.00    +0.000 C 
ENDROOT
BRANCH   6  11
ATOM     11  O   UNL     1       0.588   2.947  21.192  0.00  0.00    +0.000 OA
ATOM     12  H   UNL     1       0.105   3.553  21.770  0.00  0.00    +0.000 HD
ENDBRANCH   6  11
BRANCH   7  13
ATOM     13  O   UNL     1       3.030   1.880  21.999  0.00  0.00    +0.000 OA
ATOM     14  H   UNL     1       2.357   1.828  22.695  0.00  0.00    +0.000 HD
ENDBRANCH   7  13
BRANCH   1  15
ATOM     15  N   UNL     1       6.552   5.598  16.667  0.00  0.00    +0.000 NA
BRANCH  15  16
ATOM     16  C   UNL     1       7.623   5.454  17.696  0.00  0.00    +0.000 C 
BRANCH  16  17
ATOM     17  C   UNL     1       7.994   6.759  18.430  0.00  0.00    +0.000 C 
BRANCH  17  19
ATOM     18  C   UNL     1       8.349   9.270  18.088  0.00  0.00    +0.000 C 
ATOM     19  C   UNL     1       7.623   8.010  17.612  0.00  0.00    +0.000 C 
ENDBRANCH  17  19
ENDBRANCH  16  17
ENDBRANCH  15  16
BRANCH  15  20
ATOM     20  C   UNL     1       6.947   5.010  15.351  0.00  0.00    +0.000 C 
BRANCH  20  21
ATOM     21  C   UNL     1       5.840   4.166  14.681  0.00  0.00    +0.000 C 
ATOM     22  C   UNL     1       6.253   3.723  13.282  0.00  0.00    +0.000 C 
ENDBRANCH  20  21
ENDBRANCH  15  20
ENDBRANCH   1  15
TORSDOF 8
ENDMDL
MODEL 2
REMARK VINA RESULT:      -6.8      1.379      1.431
REMARK  Name = 
REMARK  10 active torsions:
REMARK  status: ('A' for Active; 'I' for Inactive)
REMARK    1  A    between atoms: C_1  and  C_2
REMARK    2  A    between atoms: C_2  and  C_3
REMARK    3  A    between atoms: C_3  and  C_4
REMARK    4  A    between atoms: C_4  and  N_5
REMARK    5  A    between atoms: N_5  and  C_6
REMARK    6  A    between atoms: N_5  and  C_9
REMARK    7  A    between atoms: C_6  and  C_7
REMARK    8  A    between atoms: C_7  and  C_8
REMARK    9  A    between atoms: C_14  and  O_15
REMARK   10  A    between atoms: C_16  and  O_17
REMARK                            x       y       z     vdW  Elec       q    Type
REMARK                         _______ _______ _______ _____ _____    ______ ____
ROOT
ATOM      1  C   UNL     1       5.017   5.650  16.624  0.00  0.00    +0.000 C 
ATOM      2  C   UNL     1       4.451   6.658  17.649  0.00  0.00    +0.000 C 
ATOM      3  C   UNL     1       2.965   6.377  17.925  0.00  0.00    +0.000 C 
ATOM      4  C   UNL     1       2.684   4.932  18.237  0.00  0.00    +0.000 A 
ATOM      5  C   UNL     1       1.455   4.583  18.819  0.00  0.00    +0.000 A 
ATOM      6  C   UNL     1       1.178   3.251  19.155  0.00  0.00    +0.000 A 
ATOM      7  C   UNL     1       2.137   2.255  18.902  0.00  0.00    +0.000 A 
ATOM      8  C   UNL     1       3.355   2.599  18.310  0.00  0.00    +0.000 A 
ATOM      9  C   UNL     1       3.630   3.929  17.959  0.00  0.00    +0.000 A 
ATOM     10  C   UNL     1       4.939   4.237  17.273  0.00  0.00    +0.000 C 
ENDROOT
BRANCH   6  11
ATOM     11  O   UNL     1      -0.002   2.923  19.723  0.00  0.00    +0.000 OA
ATOM     12  H   UNL     1      -0.423   3.477  20.393  0.00  0.00    +0.000 HD
ENDBRANCH   6  11
BRANCH   7  13
ATOM     13  O   UNL     1       1.908   0.962  19.215  0.00  0.00    +0.000 OA
ATOM     14  H   UNL     1       2.103   0.234  18.606  0.00  0.00    +0.000 HD
ENDBRANCH   7  13
BRANCH   1  15
ATOM     15  N   UNL     1       6.421   5.972  16.183  0.00  0.00    +0.000 NA
BRANCH  15  16
ATOM     16  C   UNL     1       7.243   6.474  17.323  0.00  0.00    +0.000 C 
BRANCH  16  17
ATOM     17  C   UNL     1       7.634   7.964  17.230  0.00  0.00    +0.000 C 
BRANCH  17  19
ATOM     18  C   UNL     1       8.839   9.905  18.383  0.00  0.00    +0.000 C 
ATOM     19  C   UNL     1       8.426   8.434  18.464  0.00  0.00    +0.000 C 
ENDBRANCH  17  19
ENDBRANCH  16  17
ENDBRANCH  15  16
BRANCH  15  20
ATOM     20  C   UNL     1       7.091   4.855  15.450  0.00  0.00    +0.000 C 
BRANCH  20  21
ATOM     21  C   UNL     1       6.963   4.943  13.913  0.00  0.00    +0.000 C 
ATOM     22  C   UNL     1       6.217   3.739  13.350  0.00  0.00    +0.000 C 
ENDBRANCH  20  21
ENDBRANCH  15  20
ENDBRANCH   1  15
TORSDOF 8
ENDMDL
MODEL 3
REMARK VINA RESULT:      -6.7      1.261      1.862
REMARK  Name = 
REMARK  10 active torsions:
REMARK  status: ('A' for Active; 'I' for Inactive)
REMARK    1  A    between atoms: C_1  and  C_2
REMARK    2  A    between atoms: C_2  and  C_3
REMARK    3  A    between atoms: C_3  and  C_4
REMARK    4  A    between atoms: C_4  and  N_5
REMARK    5  A    between atoms: N_5  and  C_6
REMARK    6  A    between atoms: N_5  and  C_9
REMARK    7  A    between atoms: C_6  and  C_7
REMARK    8  A    between atoms: C_7  and  C_8
REMARK    9  A    between atoms: C_14  and  O_15
REMARK   10  A    between atoms: C_16  and  O_17
REMARK                            x       y       z     vdW  Elec       q    Type
REMARK                         _______ _______ _______ _____ _____    ______ ____
ROOT
ATOM      1  C   UNL     1       5.164   5.458  17.236  0.00  0.00    +0.000 C 
ATOM      2  C   UNL     1       5.692   5.246  18.672  0.00  0.00    +0.000 C 
ATOM      3  C   UNL     1       4.537   5.265  19.686  0.00  0.00    +0.000 C 
ATOM      4  C   UNL     1       3.392   4.370  19.296  0.00  0.00    +0.000 A 
ATOM      5  C   UNL     1       2.426   4.034  20.256  0.00  0.00    +0.000 A 
ATOM      6  C   UNL     1       1.368   3.174  19.934  0.00  0.00    +0.000 A 
ATOM      7  C   UNL     1       1.271   2.646  18.635  0.00  0.00    +0.000 A 
ATOM      8  C   UNL     1       2.225   2.990  17.673  0.00  0.00    +0.000 A 
ATOM      9  C   UNL     1       3.276   3.863  17.988  0.00  0.00    +0.000 A 
ATOM     10  C   UNL     1       4.248   4.244  16.897  0.00  0.00    +0.000 C 
ENDROOT
BRANCH   6  11
ATOM     11  O   UNL     1       0.447   2.847  20.865  0.00  0.00    +0.000 OA
ATOM     12  H   UNL     1       0.675   2.353  21.664  0.00  0.00    +0.000 HD
ENDBRANCH   6  11
BRANCH   7  13
ATOM     13  O   UNL     1       0.269   1.811  18.287  0.00  0.00    +0.000 OA
ATOM     14  H   UNL     1      -0.383   2.032  17.605  0.00  0.00    +0.000 HD
ENDBRANCH   7  13
BRANCH   1  15
ATOM     15  N   UNL     1       6.259   5.617  16.213  0.00  0.00    +0.000 NA
BRANCH  15  16
ATOM     16  C   UNL     1       7.453   6.291  16.802  0.00  0.00    +0.000 C 
BRANCH  16  17
ATOM     17  C   UNL     1       7.206   7.734  17.289  0.00  0.00    +0.000 C 
BRANCH  17  19
ATOM     18  C   UNL     1       8.611   9.679  18.178  0.00  0.00    +0.000 C 
ATOM     19  C   UNL     1       8.267   8.193  18.305  0.00  0.00    +0.000 C 
ENDBRANCH  17  19
ENDBRANCH  16  17
ENDBRANCH  15  16
BRANCH  15  20
ATOM     20  C   UNL     1       6.613   4.347  15.511  0.00  0.00    +0.000 C 
BRANCH  20  21
ATOM     21  C   UNL     1       6.872   4.515  13.997  0.00  0.00    +0.000 C 
ATOM     22  C   UNL     1       5.792   3.825  13.171  0.00  0.00    +0.000 C 
ENDBRANCH  20  21
ENDBRANCH  15  20
ENDBRANCH   1  15
TORSDOF 8
ENDMDL
MODEL 4
REMARK VINA RESULT:      -6.6      1.650      1.875
REMARK  Name = 
REMARK  10 active torsions:
REMARK  status: ('A' for Active; 'I' for Inactive)
REMARK    1  A    between atoms: C_1  and  C_2
REMARK    2  A    between atoms: C_2  and  C_3
REMARK    3  A    between atoms: C_3  and  C_4
REMARK    4  A    between atoms: C_4  and  N_5
REMARK    5  A    between atoms: N_5  and  C_6
REMARK    6  A    between atoms: N_5  and  C_9
REMARK    7  A    between atoms: C_6  and  C_7
REMARK    8  A    between atoms: C_7  and  C_8
REMARK    9  A    between atoms: C_14  and  O_15
REMARK   10  A    between atoms: C_16  and  O_17
REMARK                            x       y       z     vdW  Elec       q    Type
REMARK                         _______ _______ _______ _____ _____    ______ ____
ROOT
ATOM      1  C   UNL     1       4.877   5.383  16.071  0.00  0.00    +0.000 C 
ATOM      2  C   UNL     1       4.750   6.396  17.230  0.00  0.00    +0.000 C 
ATOM      3  C   UNL     1       3.330   6.374  17.820  0.00  0.00    +0.000 C 
ATOM      4  C   UNL     1       2.843   4.985  18.137  0.00  0.00    +0.000 A 
ATOM      5  C   UNL     1       1.722   4.825  18.964  0.00  0.00    +0.000 A 
ATOM      6  C   UNL     1       1.266   3.544  19.308  0.00  0.00    +0.000 A 
ATOM      7  C   UNL     1       1.936   2.411  18.815  0.00  0.00    +0.000 A 
ATOM      8  C   UNL     1       3.045   2.570  17.979  0.00  0.00    +0.000 A 
ATOM      9  C   UNL     1       3.494   3.849  17.621  0.00  0.00    +0.000 A 
ATOM     10  C   UNL     1       4.663   3.962  16.673  0.00  0.00    +0.000 C 
ENDROOT
BRANCH   6  11
ATOM     11  O   UNL     1       0.192   3.396  20.112  0.00  0.00    +0.000 OA
ATOM     12  H   UNL     1      -0.602   2.923  19.831  0.00  0.00    +0.000 HD
ENDBRANCH   6  11
BRANCH   7  13
ATOM     13  O   UNL     1       1.529   1.162  19.127  0.00  0.00    +0.000 OA
ATOM     14  H   UNL     1       1.373   0.875  20.039  0.00  0.00    +0.000 HD
ENDBRANCH   7  13
BRANCH   1  15
ATOM     15  N   UNL     1       6.192   5.473  15.340  0.00  0.00    +0.000 NA
BRANCH  15  16
ATOM     16  C   UNL     1       7.312   5.771  16.280  0.00  0.00    +0.000 C 
BRANCH  16  17
ATOM     17  C   UNL     1       7.656   4.627  17.258  0.00  0.00    +0.000 C 
BRANCH  17  19
ATOM     18  C   UNL     1       8.007   6.673  18.755  0.00  0.00    +0.000 C 
ATOM     19  C   UNL     1       7.946   5.146  18.678  0.00  0.00    +0.000 C 
ENDBRANCH  17  19
ENDBRANCH  16  17
ENDBRANCH  15  16
BRANCH  15  20
ATOM     20  C   UNL     1       6.479   4.291  14.473  0.00  0.00    +0.000 C 
BRANCH  20  21
ATOM     21  C   UNL     1       5.438   4.063  13.354  0.00  0.00    +0.000 C 
ATOM     22  C   UNL     1       6.033   3.267  12.199  0.00  0.00    +0.000 C 
ENDBRANCH  20  21
ENDBRANCH  15  20
ENDBRANCH   1  15
TORSDOF 8
ENDMDL
MODEL 5
REMARK VINA RESULT:      -6.6      3.087      5.073
REMARK  Name = 
REMARK  10 active torsions:
REMARK  status: ('A' for Active; 'I' for Inactive)
REMARK    1  A    between atoms: C_1  and  C_2
REMARK    2  A    between atoms: C_2  and  C_3
REMARK    3  A    between atoms: C_3  and  C_4
REMARK    4  A    between atoms: C_4  and  N_5
REMARK    5  A    between atoms: N_5  and  C_6
REMARK    6  A    between atoms: N_5  and  C_9
REMARK    7  A    between atoms: C_6  and  C_7
REMARK    8  A    between atoms: C_7  and  C_8
REMARK    9  A    between atoms: C_14  and  O_15
REMARK   10  A    between atoms: C_16  and  O_17
REMARK                            x       y       z     vdW  Elec       q    Type
REMARK                         _______ _______ _______ _____ _____    ______ ____
ROOT
ATOM      1  C   UNL     1       4.723   5.297  18.621  0.00  0.00    +0.000 C 
ATOM      2  C   UNL     1       3.580   4.618  19.407  0.00  0.00    +0.000 C 
ATOM      3  C   UNL     1       2.875   5.630  20.327  0.00  0.00    +0.000 C 
ATOM      4  C   UNL     1       2.489   6.901  19.620  0.00  0.00    +0.000 A 
ATOM      5  C   UNL     1       1.569   7.769  20.227  0.00  0.00    +0.000 A 
ATOM      6  C   UNL     1       1.161   8.944  19.579  0.00  0.00    +0.000 A 
ATOM      7  C   UNL     1       1.682   9.256  18.312  0.00  0.00    +0.000 A 
ATOM      8  C   UNL     1       2.609   8.399  17.712  0.00  0.00    +0.000 A 
ATOM      9  C   UNL     1       3.031   7.231  18.365  0.00  0.00    +0.000 A 
ATOM     10  C   UNL     1       4.074   6.369  17.696  0.00  0.00    +0.000 C 
ENDROOT
BRANCH   6  11
ATOM     11  O   UNL     1       0.268   9.770  20.163  0.00  0.00    +0.000 OA
ATOM     12  H   UNL     1      -0.660   9.527  20.279  0.00  0.00    +0.000 HD
ENDBRANCH   6  11
BRANCH   7  13
ATOM     13  O   UNL     1       1.310  10.375  17.654  0.00  0.00    +0.000 OA
ATOM     14  H   UNL     1       0.874  11.120  18.094  0.00  0.00    +0.000 HD
ENDBRANCH   7  13
BRANCH   1  15
ATOM     15  N   UNL     1       5.561   4.327  17.828  0.00  0.00    +0.000 NA
BRANCH  15  16
ATOM     16  C   UNL     1       4.935   4.029  16.506  0.00  0.00    +0.000 C 
BRANCH  16  17
ATOM     17  C   UNL     1       5.931   3.647  15.392  0.00  0.00    +0.000 C 
BRANCH  17  19
ATOM     18  C   UNL     1       6.107   3.577  12.840  0.00  0.00    +0.000 C 
ATOM     19  C   UNL     1       5.613   4.354  14.062  0.00  0.00    +0.000 C 
ENDBRANCH  17  19
ENDBRANCH  16  17
ENDBRANCH  15  16
BRANCH  15  20
ATOM     20  C   UNL     1       6.991   4.737  17.698  0.00  0.00    +0.000 C 
BRANCH  20  21
ATOM     21  C   UNL     1       7.469   5.714  18.796  0.00  0.00    +0.000 C 
ATOM     22  C   UNL     1       7.879   7.056  18.201  0.00  0.00    +0.000 C 
ENDBRANCH  20  21
ENDBRANCH  15  20
ENDBRANCH   1  15
TORSDOF 8
ENDMDL
MODEL 6
REMARK VINA RESULT:      -6.6      0.576      3.346
REMARK  Name = 
REMARK  10 active torsions:
REMARK  status: ('A' for Active; 'I' for Inactive)
REMARK    1  A    between atoms: C_1  and  C_2
REMARK    2  A    between atoms: C_2  and  C_3
REMARK    3  A    between atoms: C_3  and  C_4
REMARK    4  A    between atoms: C_4  and  N_5
REMARK    5  A    between atoms: N_5  and  C_6
REMARK    6  A    between atoms: N_5  and  C_9
REMARK    7  A    between atoms: C_6  and  C_7
REMARK    8  A    between atoms: C_7  and  C_8
REMARK    9  A    between atoms: C_14  and  O_15
REMARK   10  A    between atoms: C_16  and  O_17
REMARK                            x       y       z     vdW  Elec       q    Type
REMARK                         _______ _______ _______ _____ _____    ______ ____
ROOT
ATOM      1  C   UNL     1       5.516   4.840  17.209  0.00  0.00    +0.000 C 
ATOM      2  C   UNL     1       4.462   5.968  17.190  0.00  0.00    +0.000 C 
ATOM      3  C   UNL     1       3.056   5.406  17.458  0.00  0.00    +0.000 C 
ATOM      4  C   UNL     1       2.999   4.507  18.664  0.00  0.00    +0.000 A 
ATOM      5  C   UNL     1       1.752   4.183  19.219  0.00  0.00    +0.000 A 
ATOM      6  C   UNL     1       1.667   3.378  20.364  0.00  0.00    +0.000 A 
ATOM      7  C   UNL     1       2.842   2.888  20.958  0.00  0.00    +0.000 A 
ATOM      8  C   UNL     1       4.085   3.198  20.398  0.00  0.00    +0.000 A 
ATOM      9  C   UNL     1       4.172   3.990  19.244  0.00  0.00    +0.000 A 
ATOM     10  C   UNL     1       5.536   4.250  18.650  0.00  0.00    +0.000 C 
ENDROOT
BRANCH   6  11
ATOM     11  O   UNL     1       0.465   3.079  20.899  0.00  0.00    +0.000 OA
ATOM     12  H   UNL     1       0.319   2.281  21.424  0.00  0.00    +0.000 HD
ENDBRANCH   6  11
BRANCH   7  13
ATOM     13  O   UNL     1       2.802   2.113  22.064  0.00  0.00    +0.000 OA
ATOM     14  H   UNL     1       3.543   2.051  22.686  0.00  0.00    +0.000 HD
ENDBRANCH   7  13
BRANCH   1  15
ATOM     15  N   UNL     1       6.889   5.297  16.788  0.00  0.00    +0.000 NA
BRANCH  15  16
ATOM     16  C   UNL     1       7.252   4.751  15.448  0.00  0.00    +0.000 C 
BRANCH  16  17
ATOM     17  C   UNL     1       6.224   3.767  14.851  0.00  0.00    +0.000 C 
BRANCH  17  19
ATOM     18  C   UNL     1       5.999   3.219  12.362  0.00  0.00    +0.000 C 
ATOM     19  C   UNL     1       5.710   4.228  13.475  0.00  0.00    +0.000 C 
ENDBRANCH  17  19
ENDBRANCH  16  17
ENDBRANCH  15  16
BRANCH  15  20
ATOM     20  C   UNL     1       7.079   6.777  16.867  0.00  0.00    +0.000 C 
BRANCH  20  21
ATOM     21  C   UNL     1       7.886   7.243  18.100  0.00  0.00    +0.000 C 
ATOM     22  C   UNL     1       8.222   8.727  18.011  0.00  0.00    +0.000 C 
ENDBRANCH  20  21
ENDBRANCH  15  20
ENDBRANCH   1  15
TORSDOF 8
ENDMDL
MODEL 7
REMARK VINA RESULT:      -6.5      4.222      6.100
REMARK  Name = 
REMARK  10 active torsions:
REMARK  status: ('A' for Active; 'I' for Inactive)
REMARK    1  A    between atoms: C_1  and  C_2
REMARK    2  A    between atoms: C_2  and  C_3
REMARK    3  A    between atoms: C_3  and  C_4
REMARK    4  A    between atoms: C_4  and  N_5
REMARK    5  A    between atoms: N_5  and  C_6
REMARK    6  A    between atoms: N_5  and  C_9
REMARK    7  A    between atoms: C_6  and  C_7
REMARK    8  A    between atoms: C_7  and  C_8
REMARK    9  A    between atoms: C_14  and  O_15
REMARK   10  A    between atoms: C_16  and  O_17
REMARK                            x       y       z     vdW  Elec       q    Type
REMARK                         _______ _______ _______ _____ _____    ______ ____
ROOT
ATOM      1  C   UNL     1       2.214   6.461  18.652  0.00  0.00    +0.000 C 
ATOM      2  C   UNL     1       2.791   7.671  17.885  0.00  0.00    +0.000 C 
ATOM      3  C   UNL     1       1.835   8.873  17.964  0.00  0.00    +0.000 C 
ATOM      4  C   UNL     1       1.378   9.173  19.366  0.00  0.00    +0.000 A 
ATOM      5  C   UNL     1       0.776  10.411  19.641  0.00  0.00    +0.000 A 
ATOM      6  C   UNL     1       0.372  10.735  20.944  0.00  0.00    +0.000 A 
ATOM      7  C   UNL     1       0.568   9.809  21.983  0.00  0.00    +0.000 A 
ATOM      8  C   UNL     1       1.154   8.571  21.709  0.00  0.00    +0.000 A 
ATOM      9  C   UNL     1       1.545   8.237  20.404  0.00  0.00    +0.000 A 
ATOM     10  C   UNL     1       2.125   6.866  20.154  0.00  0.00    +0.000 C 
ENDROOT
BRANCH   6  11
ATOM     11  O   UNL     1      -0.197  11.930  21.203  0.00  0.00    +0.000 OA
ATOM     12  H   UNL     1      -0.624  12.126  22.048  0.00  0.00    +0.000 HD
ENDBRANCH   6  11
BRANCH   7  13
ATOM     13  O   UNL     1       0.196  10.086  23.251  0.00  0.00    +0.000 OA
ATOM     14  H   UNL     1      -0.475   9.571  23.724  0.00  0.00    +0.000 HD
ENDBRANCH   7  13
BRANCH   1  15
ATOM     15  N   UNL     1       3.020   5.201  18.474  0.00  0.00    +0.000 NA
BRANCH  15  16
ATOM     16  C   UNL     1       2.236   4.157  17.751  0.00  0.00    +0.000 C 
BRANCH  16  17
ATOM     17  C   UNL     1       1.856   2.928  18.604  0.00  0.00    +0.000 C 
BRANCH  17  19
ATOM     18  C   UNL     1       1.399   2.995  21.121  0.00  0.00    +0.000 C 
ATOM     19  C   UNL     1       0.857   3.284  19.720  0.00  0.00    +0.000 C 
ENDBRANCH  17  19
ENDBRANCH  16  17
ENDBRANCH  15  16
BRANCH  15  20
ATOM     20  C   UNL     1       4.362   5.429  17.859  0.00  0.00    +0.000 C 
BRANCH  20  21
ATOM     21  C   UNL     1       4.649   4.543  16.626  0.00  0.00    +0.000 C 
ATOM     22  C   UNL     1       5.429   5.310  15.564  0.00  0.00    +0.000 C 
ENDBRANCH  20  21
ENDBRANCH  15  20
ENDBRANCH   1  15
TORSDOF 8
ENDMDL
MODEL 8
REMARK VINA RESULT:      -6.4      0.978      1.264
REMARK  Name = 
REMARK  10 active torsions:
REMARK  status: ('A' for Active; 'I' for Inactive)
REMARK    1  A    between atoms: C_1  and  C_2
REMARK    2  A    between atoms: C_2  and  C_3
REMARK    3  A    between atoms: C_3  and  C_4
REMARK    4  A    between atoms: C_4  and  N_5
REMARK    5  A    between atoms: N_5  and  C_6
REMARK    6  A    between atoms: N_5  and  C_9
REMARK    7  A    between atoms: C_6  and  C_7
REMARK    8  A    between atoms: C_7  and  C_8
REMARK    9  A    between atoms: C_14  and  O_15
REMARK   10  A    between atoms: C_16  and  O_17
REMARK                            x       y       z     vdW  Elec       q    Type
REMARK                         _______ _______ _______ _____ _____    ______ ____
ROOT
ATOM      1  C   UNL     1       4.419   5.517  16.983  0.00  0.00    +0.000 C 
ATOM      2  C   UNL     1       3.621   6.595  17.748  0.00  0.00    +0.000 C 
ATOM      3  C   UNL     1       2.441   5.965  18.506  0.00  0.00    +0.000 C 
ATOM      4  C   UNL     1       2.838   4.769  19.329  0.00  0.00    +0.000 A 
ATOM      5  C   UNL     1       1.958   4.292  20.313  0.00  0.00    +0.000 A 
ATOM      6  C   UNL     1       2.314   3.202  21.121  0.00  0.00    +0.000 A 
ATOM      7  C   UNL     1       3.561   2.580  20.941  0.00  0.00    +0.000 A 
ATOM      8  C   UNL     1       4.433   3.046  19.952  0.00  0.00    +0.000 A 
ATOM      9  C   UNL     1       4.073   4.126  19.132  0.00  0.00    +0.000 A 
ATOM     10  C   UNL     1       5.030   4.554  18.045  0.00  0.00    +0.000 C 
ENDROOT
BRANCH   6  11
ATOM     11  O   UNL     1       1.468   2.754  22.071  0.00  0.00    +0.000 OA
ATOM     12  H   UNL     1       1.216   1.823  22.140  0.00  0.00    +0.000 HD
ENDBRANCH   6  11
BRANCH   7  13
ATOM     13  O   UNL     1       3.941   1.532  21.701  0.00  0.00    +0.000 OA
ATOM     14  H   UNL     1       4.004   1.582  22.667  0.00  0.00    +0.000 HD
ENDBRANCH   7  13
BRANCH   1  15
ATOM     15  N   UNL     1       5.487   6.087  16.087  0.00  0.00    +0.000 NA
BRANCH  15  16
ATOM     16  C   UNL     1       6.829   6.019  16.735  0.00  0.00    +0.000 C 
BRANCH  16  17
ATOM     17  C   UNL     1       7.316   7.345  17.356  0.00  0.00    +0.000 C 
BRANCH  17  19
ATOM     18  C   UNL     1       7.867   5.808  19.327  0.00  0.00    +0.000 C 
ATOM     19  C   UNL     1       8.191   7.117  18.602  0.00  0.00    +0.000 C 
ENDBRANCH  17  19
ENDBRANCH  16  17
ENDBRANCH  15  16
BRANCH  15  20
ATOM     20  C   UNL     1       5.492   5.503  14.712  0.00  0.00    +0.000 C 
BRANCH  20  21
ATOM     21  C   UNL     1       6.116   4.093  14.628  0.00  0.00    +0.000 C 
ATOM     22  C   UNL     1       6.126   3.576  13.194  0.00  0.00    +0.000 C 
ENDBRANCH  20  21
ENDBRANCH  15  20
ENDBRANCH   1  15
TORSDOF 8
ENDMDL
MODEL 9
REMARK VINA RESULT:      -6.4      4.293      5.680
REMARK  Name = 
REMARK  10 active torsions:
REMARK  status: ('A' for Active; 'I' for Inactive)
REMARK    1  A    between atoms: C_1  and  C_2
REMARK    2  A    between atoms: C_2  and  C_3
REMARK    3  A    between atoms: C_3  and  C_4
REMARK    4  A    between atoms: C_4  and  N_5
REMARK    5  A    between atoms: N_5  and  C_6
REMARK    6  A    between atoms: N_5  and  C_9
REMARK    7  A    between atoms: C_6  and  C_7
REMARK    8  A    between atoms: C_7  and  C_8
REMARK    9  A    between atoms: C_14  and  O_15
REMARK   10  A    between atoms: C_16  and  O_17
REMARK                            x       y       z     vdW  Elec       q    Type
REMARK                         _______ _______ _______ _____ _____    ______ ____
ROOT
ATOM      1  C   UNL     1       2.261   6.800  18.552  0.00  0.00    +0.000 C 
ATOM      2  C   UNL     1       2.688   8.099  17.833  0.00  0.00    +0.000 C 
ATOM      3  C   UNL     1       1.629   9.199  18.020  0.00  0.00    +0.000 C 
ATOM      4  C   UNL     1       1.211   9.378  19.455  0.00  0.00    +0.000 A 
ATOM      5  C   UNL     1       0.510  10.536  19.824  0.00  0.00    +0.000 A 
ATOM      6  C   UNL     1       0.139  10.750  21.159  0.00  0.00    +0.000 A 
ATOM      7  C   UNL     1       0.467   9.794  22.135  0.00  0.00    +0.000 A 
ATOM      8  C   UNL     1       1.153   8.633  21.766  0.00  0.00    +0.000 A 
ATOM      9  C   UNL     1       1.512   8.409  20.429  0.00  0.00    +0.000 A 
ATOM     10  C   UNL     1       2.204   7.114  20.077  0.00  0.00    +0.000 C 
ENDROOT
BRANCH   6  11
ATOM     11  O   UNL     1      -0.526  11.871  21.510  0.00  0.00    +0.000 OA
ATOM     12  H   UNL     1      -0.369  12.323  22.350  0.00  0.00    +0.000 HD
ENDBRANCH   6  11
BRANCH   7  13
ATOM     13  O   UNL     1       0.130   9.966  23.431  0.00  0.00    +0.000 OA
ATOM     14  H   UNL     1       0.703   9.689  24.162  0.00  0.00    +0.000 HD
ENDBRANCH   7  13
BRANCH   1  15
ATOM     15  N   UNL     1       3.172   5.634  18.269  0.00  0.00    +0.000 NA
BRANCH  15  16
ATOM     16  C   UNL     1       4.205   5.485  19.336  0.00  0.00    +0.000 C 
BRANCH  16  17
ATOM     17  C   UNL     1       5.641   5.258  18.817  0.00  0.00    +0.000 C 
BRANCH  17  19
ATOM     18  C   UNL     1       7.152   6.924  17.598  0.00  0.00    +0.000 C 
ATOM     19  C   UNL     1       5.915   6.028  17.512  0.00  0.00    +0.000 C 
ENDBRANCH  17  19
ENDBRANCH  16  17
ENDBRANCH  15  16
BRANCH  15  20
ATOM     20  C   UNL     1       2.446   4.356  18.002  0.00  0.00    +0.000 C 
BRANCH  20  21
ATOM     21  C   UNL     1       2.336   3.425  19.230  0.00  0.00    +0.000 C 
ATOM     22  C   UNL     1       0.980   3.567  19.913  0.00  0.00    +0.000 C 
ENDBRANCH  20  21
ENDBRANCH  15  20
ENDBRANCH   1  15
TORSDOF 8
ENDMDL
