MODEL 1
REMARK VINA RESULT:      -8.2      0.000      0.000
REMARK  Name = 
REMARK  6 active torsions:
REMARK  status: ('A' for Active; 'I' for Inactive)
REMARK    1  A    between atoms: C_1  and  C_2
REMARK    2  A    between atoms: C_2  and  C_3
REMARK    3  A    between atoms: C_13  and  C_14
REMARK    4  A    between atoms: N_16  and  C_17
REMARK    5  A    between atoms: C_17  and  C_18
REMARK    6  A    between atoms: C_23  and  C_24
REMARK                            x       y       z     vdW  Elec       q    Type
REMARK                         _______ _______ _______ _____ _____    ______ ____
ROOT
ATOM      1  C   UNL     1       6.839   6.287  17.166  0.00  0.00    +0.000 A 
ATOM      2  N   UNL     1       7.274   6.095  15.858  0.00  0.00    +0.000 NA
ATOM      3  C   UNL     1       6.383   5.415  15.178  0.00  0.00    +0.000 A 
ATOM      4  N   UNL     1       6.636   4.908  13.918  0.00  0.00    +0.000 N 
ATOM      5  C   UNL     1       7.911   5.061  13.261  0.00  0.00    +0.000 C 
ATOM      6  C   UNL     1       7.687   4.488  11.877  0.00  0.00    +0.000 C 
ATOM      7  C   UNL     1       6.642   3.413  12.111  0.00  0.00    +0.000 C 
ATOM      8  C   UNL     1       5.848   3.946  13.281  0.00  0.00    +0.000 C 
ATOM      9  O   UNL     1       4.755   3.499  13.583  0.00  0.00    +0.000 OA
ATOM     10  S   UNL     1       4.905   5.159  15.983  0.00  0.00    +0.000 S 
ATOM     11  C   UNL     1       5.558   5.809  17.433  0.00  0.00    +0.000 A 
ENDROOT
BRANCH  11  12
ATOM     12  C   UNL     1       4.813   5.777  18.686  0.00  0.00    +0.000 C 
ATOM     13  O   UNL     1       5.252   5.251  19.707  0.00  0.00    +0.000 OA
ATOM     14  N   UNL     1       3.547   6.348  18.667  0.00  0.00    +0.000 N 
ATOM     15  H   UNL     1       3.159   6.606  17.767  0.00  0.00    +0.000 HD
BRANCH  14  16
ATOM     16  C   UNL     1       2.637   6.218  19.787  0.00  0.00    +0.000 C 
BRANCH  16  17
ATOM     17  C   UNL     1       2.174   4.798  20.060  0.00  0.00    +0.000 A 
ATOM     18  C   UNL     1       2.263   4.294  21.372  0.00  0.00    +0.000 A 
ATOM     19  C   UNL     1       1.740   3.042  21.709  0.00  0.00    +0.000 A 
ATOM     20  C   UNL     1       1.124   2.262  20.737  0.00  0.00    +0.000 A 
ATOM     21  C   UNL     1       1.040   2.732  19.430  0.00  0.00    +0.000 A 
ATOM     22  C   UNL     1       1.551   3.996  19.077  0.00  0.00    +0.000 A 
ATOM     23  C   UNL     1       1.398   4.454  17.653  0.00  0.00    +0.000 C 
ENDBRANCH  16  17
ENDBRANCH  14  16
ENDBRANCH  11  12
BRANCH   1  25
ATOM     24  C   UNL     1       8.012   8.372  17.855  0.00  0.00    +0.000 C 
ATOM     25  C   UNL     1       7.842   6.880  18.107  0.00  0.00    +0.000 C 
ENDBRANCH   1  25
TORSDOF 4
ENDMDL
MODEL 2
REMARK VINA RESULT:      -8.1      3.157      5.295
REMARK  Name = 
REMARK  6 active torsions:
REMARK  status: ('A' for Active; 'I' for Inactive)
REMARK    1  A    between atoms: C_1  and  C_2
REMARK    2  A    between atoms: C_2  and  C_3
REMARK    3  A    between atoms: C_13  and  C_14
REMARK    4  A    between atoms: N_16  and  C_17
REMARK    5  A    between atoms: C_17  and  C_18
REMARK    6  A    between atoms: C_23  and  C_24
REMARK                            x       y       z     vdW  Elec       q    Type
REMARK                         _______ _______ _______ _____ _____    ______ ____
ROOT
ATOM      1  C   UNL     1       2.622   4.156  18.078  0.00  0.00    +0.000 A 
ATOM      2  N   UNL     1       3.472   3.819  17.030  0.00  0.00    +0.000 NA
ATOM      3  C   UNL     1       4.566   4.540  17.081  0.00  0.00    +0.000 A 
ATOM      4  N   UNL     1       5.494   4.560  16.056  0.00  0.00    +0.000 N 
ATOM      5  C   UNL     1       5.318   3.811  14.836  0.00  0.00    +0.000 C 
ATOM      6  C   UNL     1       6.618   4.016  14.085  0.00  0.00    +0.000 C 
ATOM      7  C   UNL     1       7.059   5.400  14.525  0.00  0.00    +0.000 C 
ATOM      8  C   UNL     1       6.507   5.513  15.928  0.00  0.00    +0.000 C 
ATOM      9  O   UNL     1       6.888   6.366  16.710  0.00  0.00    +0.000 OA
ATOM     10  S   UNL     1       4.736   5.491  18.482  0.00  0.00    +0.000 S 
ATOM     11  C   UNL     1       3.139   5.091  18.973  0.00  0.00    +0.000 A 
ENDROOT
BRANCH  11  12
ATOM     12  C   UNL     1       2.519   5.719  20.133  0.00  0.00    +0.000 C 
ATOM     13  O   UNL     1       2.165   5.083  21.124  0.00  0.00    +0.000 OA
ATOM     14  N   UNL     1       2.312   7.091  20.055  0.00  0.00    +0.000 N 
ATOM     15  H   UNL     1       2.453   7.539  19.158  0.00  0.00    +0.000 HD
BRANCH  14  16
ATOM     16  C   UNL     1       1.542   7.801  21.057  0.00  0.00    +0.000 C 
BRANCH  16  17
ATOM     17  C   UNL     1       0.876   9.070  20.556  0.00  0.00    +0.000 A 
ATOM     18  C   UNL     1       1.087   9.465  19.220  0.00  0.00    +0.000 A 
ATOM     19  C   UNL     1       0.405  10.553  18.667  0.00  0.00    +0.000 A 
ATOM     20  C   UNL     1      -0.497  11.274  19.440  0.00  0.00    +0.000 A 
ATOM     21  C   UNL     1      -0.708  10.913  20.767  0.00  0.00    +0.000 A 
ATOM     22  C   UNL     1      -0.038   9.812  21.336  0.00  0.00    +0.000 A 
ATOM     23  C   UNL     1      -0.337   9.458  22.767  0.00  0.00    +0.000 C 
ENDBRANCH  16  17
ENDBRANCH  14  16
ENDBRANCH  11  12
BRANCH   1  25
ATOM     24  C   UNL     1       1.172   2.321  18.930  0.00  0.00    +0.000 C 
ATOM     25  C   UNL     1       1.254   3.548  18.031  0.00  0.00    +0.000 C 
ENDBRANCH   1  25
TORSDOF 4
ENDMDL
MODEL 3
REMARK VINA RESULT:      -7.9      3.309      5.334
REMARK  Name = 
REMARK  6 active torsions:
REMARK  status: ('A' for Active; 'I' for Inactive)
REMARK    1  A    between atoms: C_1  and  C_2
REMARK    2  A    between atoms: C_2  and  C_3
REMARK    3  A    between atoms: C_13  and  C_14
REMARK    4  A    between atoms: N_16  and  C_17
REMARK    5  A    between atoms: C_17  and  C_18
REMARK    6  A    between atoms: C_23  and  C_24
REMARK                            x       y       z     vdW  Elec       q    Type
REMARK                         _______ _______ _______ _____ _____    ______ ____
ROOT
ATOM      1  C   UNL     1       3.395   3.815  19.206  0.00  0.00    +0.000 A 
ATOM      2  N   UNL     1       4.322   3.576  18.197  0.00  0.00    +0.000 NA
ATOM      3  C   UNL     1       4.591   4.686  17.553  0.00  0.00    +0.000 A 
ATOM      4  N   UNL     1       5.321   4.709  16.380  0.00  0.00    +0.000 N 
ATOM      5  C   UNL     1       5.824   3.509  15.755  0.00  0.00    +0.000 C 
ATOM      6  C   UNL     1       6.667   4.016  14.604  0.00  0.00    +0.000 C 
ATOM      7  C   UNL     1       5.976   5.308  14.210  0.00  0.00    +0.000 C 
ATOM      8  C   UNL     1       5.387   5.800  15.512  0.00  0.00    +0.000 C 
ATOM      9  O   UNL     1       4.995   6.945  15.657  0.00  0.00    +0.000 OA
ATOM     10  S   UNL     1       3.929   6.095  18.241  0.00  0.00    +0.000 S 
ATOM     11  C   UNL     1       3.033   5.152  19.363  0.00  0.00    +0.000 A 
ENDROOT
BRANCH  11  12
ATOM     12  C   UNL     1       2.055   5.758  20.258  0.00  0.00    +0.000 C 
ATOM     13  O   UNL     1       1.086   5.142  20.699  0.00  0.00    +0.000 OA
ATOM     14  N   UNL     1       2.252   7.097  20.572  0.00  0.00    +0.000 N 
ATOM     15  H   UNL     1       2.954   7.606  20.050  0.00  0.00    +0.000 HD
BRANCH  14  16
ATOM     16  C   UNL     1       1.257   7.861  21.298  0.00  0.00    +0.000 C 
BRANCH  16  17
ATOM     17  C   UNL     1       0.796   9.124  20.593  0.00  0.00    +0.000 A 
ATOM     18  C   UNL     1       1.138   9.309  19.239  0.00  0.00    +0.000 A 
ATOM     19  C   UNL     1       0.640  10.388  18.503  0.00  0.00    +0.000 A 
ATOM     20  C   UNL     1      -0.204  11.312  19.108  0.00  0.00    +0.000 A 
ATOM     21  C   UNL     1      -0.540  11.159  20.450  0.00  0.00    +0.000 A 
ATOM     22  C   UNL     1      -0.058  10.071  21.202  0.00  0.00    +0.000 A 
ATOM     23  C   UNL     1      -0.487   9.950  22.638  0.00  0.00    +0.000 C 
ENDBRANCH  16  17
ENDBRANCH  14  16
ENDBRANCH  11  12
BRANCH   1  25
ATOM     24  C   UNL     1       1.671   2.021  19.127  0.00  0.00    +0.000 C 
ATOM     25  C   UNL     1       2.851   2.601  19.895  0.00  0.00    +0.000 C 
ENDBRANCH   1  25
TORSDOF 4
ENDMDL
MODEL 4
REMARK VINA RESULT:      -7.9      5.891      9.487
REMARK  Name = 
REMARK  6 active torsions:
REMARK  status: ('A' for Active; 'I' for Inactive)
REMARK    1  A    between atoms: C_1  and  C_2
REMARK    2  A    between atoms: C_2  and  C_3
REMARK    3  A    between atoms: C_13  and  C_14
REMARK    4  A    between atoms: N_16  and  C_17
REMARK    5  A    between atoms: C_17  and  C_18
REMARK    6  A    between atoms: C_23  and  C_24
REMARK                            x       y       z     vdW  Elec       q    Type
REMARK                         _______ _______ _______ _____ _____    ______ ____
ROOT
ATOM      1  C   UNL     1      -0.863  10.378  18.328  0.00  0.00    +0.000 A 
ATOM      2  N   UNL     1      -1.717  11.173  19.087  0.00  0.00    +0.000 NA
ATOM      3  C   UNL     1      -1.179  11.431  20.255  0.00  0.00    +0.000 A 
ATOM      4  N   UNL     1      -1.884  12.027  21.283  0.00  0.00    +0.000 N 
ATOM      5  C   UNL     1      -3.276  12.387  21.164  0.00  0.00    +0.000 C 
ATOM      6  C   UNL     1      -3.580  13.125  22.451  0.00  0.00    +0.000 C 
ATOM      7  C   UNL     1      -2.649  12.469  23.455  0.00  0.00    +0.000 C 
ATOM      8  C   UNL     1      -1.463  12.057  22.615  0.00  0.00    +0.000 C 
ATOM      9  O   UNL     1      -0.392  11.751  23.108  0.00  0.00    +0.000 OA
ATOM     10  S   UNL     1       0.438  10.931  20.428  0.00  0.00    +0.000 S 
ATOM     11  C   UNL     1       0.371  10.113  18.919  0.00  0.00    +0.000 A 
ENDROOT
BRANCH  11  12
ATOM     12  C   UNL     1       1.471   9.277  18.456  0.00  0.00    +0.000 C 
ATOM     13  O   UNL     1       2.044   9.467  17.384  0.00  0.00    +0.000 OA
ATOM     14  N   UNL     1       1.830   8.217  19.278  0.00  0.00    +0.000 N 
ATOM     15  H   UNL     1       1.220   7.995  20.055  0.00  0.00    +0.000 HD
BRANCH  14  16
ATOM     16  C   UNL     1       2.779   7.209  18.848  0.00  0.00    +0.000 C 
BRANCH  16  17
ATOM     17  C   UNL     1       2.394   5.787  19.214  0.00  0.00    +0.000 A 
ATOM     18  C   UNL     1       1.519   5.577  20.297  0.00  0.00    +0.000 A 
ATOM     19  C   UNL     1       1.032   4.303  20.604  0.00  0.00    +0.000 A 
ATOM     20  C   UNL     1       1.416   3.209  19.839  0.00  0.00    +0.000 A 
ATOM     21  C   UNL     1       2.294   3.389  18.774  0.00  0.00    +0.000 A 
ATOM     22  C   UNL     1       2.784   4.668  18.444  0.00  0.00    +0.000 A 
ATOM     23  C   UNL     1       3.704   4.795  17.262  0.00  0.00    +0.000 C 
ENDBRANCH  16  17
ENDBRANCH  14  16
ENDBRANCH  11  12
BRANCH   1  25
ATOM     24  C   UNL     1      -2.954   9.847  17.086  0.00  0.00    +0.000 C 
ATOM     25  C   UNL     1      -1.431   9.847  17.048  0.00  0.00    +0.000 C 
ENDBRANCH   1  25
TORSDOF 4
ENDMDL
MODEL 5
REMARK VINA RESULT:      -7.9      1.467      1.572
REMARK  Name = 
REMARK  6 active torsions:
REMARK  status: ('A' for Active; 'I' for Inactive)
REMARK    1  A    between atoms: C_1  and  C_2
REMARK    2  A    between atoms: C_2  and  C_3
REMARK    3  A    between atoms: C_13  and  C_14
REMARK    4  A    between atoms: N_16  and  C_17
REMARK    5  A    between atoms: C_17  and  C_18
REMARK    6  A    between atoms: C_23  and  C_24
REMARK                            x       y       z     vdW  Elec       q    Type
REMARK                         _______ _______ _______ _____ _____    ______ ____
ROOT
ATOM      1  C   UNL     1       6.975   5.771  17.148  0.00  0.00    +0.000 A 
ATOM      2  N   UNL     1       7.357   5.934  15.820  0.00  0.00    +0.000 NA
ATOM      3  C   UNL     1       6.637   5.164  15.042  0.00  0.00    +0.000 A 
ATOM      4  N   UNL     1       6.932   4.971  13.705  0.00  0.00    +0.000 N 
ATOM      5  C   UNL     1       8.074   5.579  13.067  0.00  0.00    +0.000 C 
ATOM      6  C   UNL     1       7.919   5.214  11.605  0.00  0.00    +0.000 C 
ATOM      7  C   UNL     1       7.217   3.870  11.654  0.00  0.00    +0.000 C 
ATOM      8  C   UNL     1       6.388   3.955  12.916  0.00  0.00    +0.000 C 
ATOM      9  O   UNL     1       5.477   3.180  13.148  0.00  0.00    +0.000 OA
ATOM     10  S   UNL     1       5.337   4.378  15.810  0.00  0.00    +0.000 S 
ATOM     11  C   UNL     1       5.887   4.922  17.344  0.00  0.00    +0.000 A 
ENDROOT
BRANCH  11  12
ATOM     12  C   UNL     1       5.263   4.470  18.581  0.00  0.00    +0.000 C 
ATOM     13  O   UNL     1       4.891   5.247  19.460  0.00  0.00    +0.000 OA
ATOM     14  N   UNL     1       5.132   3.097  18.742  0.00  0.00    +0.000 N 
ATOM     15  H   UNL     1       5.610   2.497  18.081  0.00  0.00    +0.000 HD
BRANCH  14  16
ATOM     16  C   UNL     1       4.700   2.517  19.998  0.00  0.00    +0.000 C 
BRANCH  16  17
ATOM     17  C   UNL     1       3.198   2.535  20.215  0.00  0.00    +0.000 A 
ATOM     18  C   UNL     1       2.700   2.859  21.492  0.00  0.00    +0.000 A 
ATOM     19  C   UNL     1       1.329   3.013  21.722  0.00  0.00    +0.000 A 
ATOM     20  C   UNL     1       0.426   2.838  20.681  0.00  0.00    +0.000 A 
ATOM     21  C   UNL     1       0.894   2.500  19.414  0.00  0.00    +0.000 A 
ATOM     22  C   UNL     1       2.272   2.354  19.163  0.00  0.00    +0.000 A 
ATOM     23  C   UNL     1       2.710   2.020  17.764  0.00  0.00    +0.000 C 
ENDBRANCH  16  17
ENDBRANCH  14  16
ENDBRANCH  11  12
BRANCH   1  25
ATOM     24  C   UNL     1       7.939   7.941  17.897  0.00  0.00    +0.000 C 
ATOM     25  C   UNL     1       7.844   6.444  18.165  0.00  0.00    +0.000 C 
ENDBRANCH   1  25
TORSDOF 4
ENDMDL
MODEL 6
REMARK VINA RESULT:      -7.8      2.049      7.381
REMARK  Name = 
REMARK  6 active torsions:
REMARK  status: ('A' for Active; 'I' for Inactive)
REMARK    1  A    between atoms: C_1  and  C_2
REMARK    2  A    between atoms: C_2  and  C_3
REMARK    3  A    between atoms: C_13  and  C_14
REMARK    4  A    between atoms: N_16  and  C_17
REMARK    5  A    between atoms: C_17  and  C_18
REMARK    6  A    between atoms: C_23  and  C_24
REMARK                            x       y       z     vdW  Elec       q    Type
REMARK                         _______ _______ _______ _____ _____    ______ ____
ROOT
ATOM      1  C   UNL     1       6.026   4.544  17.989  0.00  0.00    +0.000 A 
ATOM      2  N   UNL     1       5.303   4.002  19.047  0.00  0.00    +0.000 NA
ATOM      3  C   UNL     1       4.093   3.685  18.656  0.00  0.00    +0.000 A 
ATOM      4  N   UNL     1       3.097   3.316  19.540  0.00  0.00    +0.000 N 
ATOM      5  C   UNL     1       3.302   3.277  20.968  0.00  0.00    +0.000 C 
ATOM      6  C   UNL     1       2.016   2.691  21.512  0.00  0.00    +0.000 C 
ATOM      7  C   UNL     1       0.971   3.165  20.518  0.00  0.00    +0.000 C 
ATOM      8  C   UNL     1       1.739   3.254  19.219  0.00  0.00    +0.000 C 
ATOM      9  O   UNL     1       1.182   3.332  18.138  0.00  0.00    +0.000 OA
ATOM     10  S   UNL     1       3.822   3.811  16.980  0.00  0.00    +0.000 S 
ATOM     11  C   UNL     1       5.358   4.549  16.766  0.00  0.00    +0.000 A 
ENDROOT
BRANCH  11  12
ATOM     12  C   UNL     1       5.771   5.089  15.476  0.00  0.00    +0.000 C 
ATOM     13  O   UNL     1       5.463   6.218  15.099  0.00  0.00    +0.000 OA
ATOM     14  N   UNL     1       6.514   4.244  14.662  0.00  0.00    +0.000 N 
ATOM     15  H   UNL     1       6.590   3.272  14.935  0.00  0.00    +0.000 HD
BRANCH  14  16
ATOM     16  C   UNL     1       6.825   4.591  13.290  0.00  0.00    +0.000 C 
BRANCH  16  17
ATOM     17  C   UNL     1       6.622   3.464  12.294  0.00  0.00    +0.000 A 
ATOM     18  C   UNL     1       7.751   2.776  11.807  0.00  0.00    +0.000 A 
ATOM     19  C   UNL     1       7.621   1.651  10.986  0.00  0.00    +0.000 A 
ATOM     20  C   UNL     1       6.357   1.196  10.627  0.00  0.00    +0.000 A 
ATOM     21  C   UNL     1       5.228   1.871  11.081  0.00  0.00    +0.000 A 
ATOM     22  C   UNL     1       5.342   2.997  11.919  0.00  0.00    +0.000 A 
ATOM     23  C   UNL     1       4.080   3.659  12.399  0.00  0.00    +0.000 C 
ENDBRANCH  16  17
ENDBRANCH  14  16
ENDBRANCH  11  12
BRANCH   1  25
ATOM     24  C   UNL     1       7.370   6.635  18.115  0.00  0.00    +0.000 C 
ATOM     25  C   UNL     1       7.360   5.129  18.340  0.00  0.00    +0.000 C 
ENDBRANCH   1  25
TORSDOF 4
ENDMDL
MODEL 7
REMARK VINA RESULT:      -7.8      4.286      6.151
REMARK  Name = 
REMARK  6 active torsions:
REMARK  status: ('A' for Active; 'I' for Inactive)
REMARK    1  A    between atoms: C_1  and  C_2
REMARK    2  A    between atoms: C_2  and  C_3
REMARK    3  A    between atoms: C_13  and  C_14
REMARK    4  A    between atoms: N_16  and  C_17
REMARK    5  A    between atoms: C_17  and  C_18
REMARK    6  A    between atoms: C_23  and  C_24
REMARK                            x       y       z     vdW  Elec       q    Type
REMARK                         _______ _______ _______ _____ _____    ______ ____
ROOT
ATOM      1  C   UNL     1       2.322   5.658  19.659  0.00  0.00    +0.000 A 
ATOM      2  N   UNL     1       3.166   4.894  18.859  0.00  0.00    +0.000 NA
ATOM      3  C   UNL     1       3.832   5.665  18.034  0.00  0.00    +0.000 A 
ATOM      4  N   UNL     1       4.589   5.162  16.992  0.00  0.00    +0.000 N 
ATOM      5  C   UNL     1       4.685   3.750  16.714  0.00  0.00    +0.000 C 
ATOM      6  C   UNL     1       5.711   3.660  15.604  0.00  0.00    +0.000 C 
ATOM      7  C   UNL     1       5.526   4.965  14.852  0.00  0.00    +0.000 C 
ATOM      8  C   UNL     1       5.070   5.925  15.926  0.00  0.00    +0.000 C 
ATOM      9  O   UNL     1       5.086   7.133  15.768  0.00  0.00    +0.000 OA
ATOM     10  S   UNL     1       3.654   7.335  18.307  0.00  0.00    +0.000 S 
ATOM     11  C   UNL     1       2.431   7.036  19.475  0.00  0.00    +0.000 A 
ENDROOT
BRANCH  11  12
ATOM     12  C   UNL     1       1.672   8.124  20.079  0.00  0.00    +0.000 C 
ATOM     13  O   UNL     1       1.317   8.113  21.257  0.00  0.00    +0.000 OA
ATOM     14  N   UNL     1       1.332   9.179  19.243  0.00  0.00    +0.000 N 
ATOM     15  H   UNL     1       1.489   9.063  18.249  0.00  0.00    +0.000 HD
BRANCH  14  16
ATOM     16  C   UNL     1       0.427  10.228  19.670  0.00  0.00    +0.000 C 
BRANCH  16  17
ATOM     17  C   UNL     1      -0.745  10.466  18.736  0.00  0.00    +0.000 A 
ATOM     18  C   UNL     1      -0.862   9.675  17.577  0.00  0.00    +0.000 A 
ATOM     19  C   UNL     1      -1.982   9.763  16.745  0.00  0.00    +0.000 A 
ATOM     20  C   UNL     1      -3.007  10.651  17.050  0.00  0.00    +0.000 A 
ATOM     21  C   UNL     1      -2.904  11.456  18.181  0.00  0.00    +0.000 A 
ATOM     22  C   UNL     1      -1.789  11.370  19.036  0.00  0.00    +0.000 A 
ATOM     23  C   UNL     1      -1.759  12.247  20.257  0.00  0.00    +0.000 C 
ENDBRANCH  16  17
ENDBRANCH  14  16
ENDBRANCH  11  12
BRANCH   1  25
ATOM     24  C   UNL     1       1.981   3.588  20.998  0.00  0.00    +0.000 C 
ATOM     25  C   UNL     1       1.360   4.892  20.514  0.00  0.00    +0.000 C 
ENDBRANCH   1  25
TORSDOF 4
ENDMDL
MODEL 8
REMARK VINA RESULT:      -7.6      0.694      1.563
REMARK  Name = 
REMARK  6 active torsions:
REMARK  status: ('A' for Active; 'I' for Inactive)
REMARK    1  A    between atoms: C_1  and  C_2
REMARK    2  A    between atoms: C_2  and  C_3
REMARK    3  A    between atoms: C_13  and  C_14
REMARK    4  A    between atoms: N_16  and  C_17
REMARK    5  A    between atoms: C_17  and  C_18
REMARK    6  A    between atoms: C_23  and  C_24
REMARK                            x       y       z     vdW  Elec       q    Type
REMARK                         _______ _______ _______ _____ _____    ______ ____
ROOT
ATOM      1  C   UNL     1       6.988   6.038  17.157  0.00  0.00    +0.000 A 
ATOM      2  N   UNL     1       7.401   6.064  15.828  0.00  0.00    +0.000 NA
ATOM      3  C   UNL     1       6.618   5.312  15.094  0.00  0.00    +0.000 A 
ATOM      4  N   UNL     1       6.910   4.992  13.781  0.00  0.00    +0.000 N 
ATOM      5  C   UNL     1       8.113   5.439  13.123  0.00  0.00    +0.000 C 
ATOM      6  C   UNL     1       7.942   4.983  11.688  0.00  0.00    +0.000 C 
ATOM      7  C   UNL     1       7.111   3.720  11.822  0.00  0.00    +0.000 C 
ATOM      8  C   UNL     1       6.279   3.978  13.057  0.00  0.00    +0.000 C 
ATOM      9  O   UNL     1       5.294   3.314  13.328  0.00  0.00    +0.000 OA
ATOM     10  S   UNL     1       5.239   4.714  15.892  0.00  0.00    +0.000 S 
ATOM     11  C   UNL     1       5.821   5.314  17.393  0.00  0.00    +0.000 A 
ENDROOT
BRANCH  11  12
ATOM     12  C   UNL     1       5.140   5.019  18.647  0.00  0.00    +0.000 C 
ATOM     13  O   UNL     1       5.516   4.134  19.415  0.00  0.00    +0.000 OA
ATOM     14  N   UNL     1       4.008   5.772  18.928  0.00  0.00    +0.000 N 
ATOM     15  H   UNL     1       3.637   6.359  18.191  0.00  0.00    +0.000 HD
BRANCH  14  16
ATOM     16  C   UNL     1       3.141   5.454  20.045  0.00  0.00    +0.000 C 
BRANCH  16  17
ATOM     17  C   UNL     1       2.135   4.352  19.767  0.00  0.00    +0.000 A 
ATOM     18  C   UNL     1       1.594   4.238  18.471  0.00  0.00    +0.000 A 
ATOM     19  C   UNL     1       0.760   3.172  18.121  0.00  0.00    +0.000 A 
ATOM     20  C   UNL     1       0.441   2.201  19.063  0.00  0.00    +0.000 A 
ATOM     21  C   UNL     1       0.948   2.303  20.354  0.00  0.00    +0.000 A 
ATOM     22  C   UNL     1       1.800   3.364  20.719  0.00  0.00    +0.000 A 
ATOM     23  C   UNL     1       2.338   3.395  22.123  0.00  0.00    +0.000 C 
ENDBRANCH  16  17
ENDBRANCH  14  16
ENDBRANCH  11  12
BRANCH   1  25
ATOM     24  C   UNL     1       8.010   8.194  17.869  0.00  0.00    +0.000 C 
ATOM     25  C   UNL     1       7.906   6.698  18.139  0.00  0.00    +0.000 C 
ENDBRANCH   1  25
TORSDOF 4
ENDMDL
MODEL 9
REMARK VINA RESULT:      -7.5      2.253      7.318
REMARK  Name = 
REMARK  6 active torsions:
REMARK  status: ('A' for Active; 'I' for Inactive)
REMARK    1  A    between atoms: C_1  and  C_2
REMARK    2  A    between atoms: C_2  and  C_3
REMARK    3  A    between atoms: C_13  and  C_14
REMARK    4  A    between atoms: N_16  and  C_17
REMARK    5  A    between atoms: C_17  and  C_18
REMARK    6  A    between atoms: C_23  and  C_24
REMARK                            x       y       z     vdW  Elec       q    Type
REMARK                         _______ _______ _______ _____ _____    ______ ____
ROOT
ATOM      1  C   UNL     1       6.199   4.494  17.873  0.00  0.00    +0.000 A 
ATOM      2  N   UNL     1       5.379   4.185  18.954  0.00  0.00    +0.000 NA
ATOM      3  C   UNL     1       4.185   3.842  18.535  0.00  0.00    +0.000 A 
ATOM      4  N   UNL     1       3.113   3.679  19.393  0.00  0.00    +0.000 N 
ATOM      5  C   UNL     1       3.217   3.900  20.815  0.00  0.00    +0.000 C 
ATOM      6  C   UNL     1       1.869   3.471  21.356  0.00  0.00    +0.000 C 
ATOM      7  C   UNL     1       0.920   3.787  20.215  0.00  0.00    +0.000 C 
ATOM      8  C   UNL     1       1.780   3.606  18.985  0.00  0.00    +0.000 C 
ATOM      9  O   UNL     1       1.303   3.500  17.868  0.00  0.00    +0.000 OA
ATOM     10  S   UNL     1       4.037   3.662  16.849  0.00  0.00    +0.000 S 
ATOM     11  C   UNL     1       5.618   4.294  16.622  0.00  0.00    +0.000 A 
ENDROOT
BRANCH  11  12
ATOM     12  C   UNL     1       6.145   4.569  15.291  0.00  0.00    +0.000 C 
ATOM     13  O   UNL     1       6.436   5.703  14.912  0.00  0.00    +0.000 OA
ATOM     14  N   UNL     1       6.276   3.479  14.441  0.00  0.00    +0.000 N 
ATOM     15  H   UNL     1       5.860   2.602  14.730  0.00  0.00    +0.000 HD
BRANCH  14  16
ATOM     16  C   UNL     1       6.610   3.643  13.040  0.00  0.00    +0.000 C 
BRANCH  16  17
ATOM     17  C   UNL     1       5.500   3.259  12.079  0.00  0.00    +0.000 A 
ATOM     18  C   UNL     1       4.431   4.155  11.884  0.00  0.00    +0.000 A 
ATOM     19  C   UNL     1       3.445   3.914  10.922  0.00  0.00    +0.000 A 
ATOM     20  C   UNL     1       3.502   2.765  10.141  0.00  0.00    +0.000 A 
ATOM     21  C   UNL     1       4.539   1.857  10.329  0.00  0.00    +0.000 A 
ATOM     22  C   UNL     1       5.547   2.092  11.284  0.00  0.00    +0.000 A 
ATOM     23  C   UNL     1       6.656   1.084  11.412  0.00  0.00    +0.000 C 
ENDBRANCH  16  17
ENDBRANCH  14  16
ENDBRANCH  11  12
BRANCH   1  25
ATOM     24  C   UNL     1       7.490   6.608  18.123  0.00  0.00    +0.000 C 
ATOM     25  C   UNL     1       7.531   5.088  18.213  0.00  0.00    +0.000 C 
ENDBRANCH   1  25
TORSDOF 4
ENDMDL
