MODEL 1
REMARK VINA RESULT:      -7.8      0.000      0.000
REMARK  Name = 
REMARK  4 active torsions:
REMARK  status: ('A' for Active; 'I' for Inactive)
REMARK    1  A    between atoms: C_8  and  C_9
REMARK    2  A    between atoms: C_13  and  C_14
REMARK    3  A    between atoms: C_14  and  O_15
REMARK    4  A    between atoms: O_15  and  C_16
REMARK                            x       y       z     vdW  Elec       q    Type
REMARK                         _______ _______ _______ _____ _____    ______ ____
ROOT
ATOM      1  C   UNL     1       7.264   4.749  16.117  0.00  0.00    +0.000 C 
ATOM      2  O   UNL     1       7.990   4.320  17.014  0.00  0.00    +0.000 OA
ATOM      3  N   UNL     1       6.594   5.950  16.221  0.00  0.00    +0.000 N 
ATOM      4  C   UNL     1       6.631   6.905  17.315  0.00  0.00    +0.000 C 
ATOM      5  C   UNL     1       5.100   6.975  17.223  0.00  0.00    +0.000 C 
ATOM      6  C   UNL     1       5.192   6.207  15.895  0.00  0.00    +0.000 C 
ENDROOT
BRANCH   1  14
ATOM      7  O   UNL     1       3.345   2.977  10.758  0.00  0.00    +0.000 OA
ATOM      8  C   UNL     1       4.387   3.059  11.381  0.00  0.00    +0.000 C 
ATOM      9  N   UNL     1       4.757   4.124  12.160  0.00  0.00    +0.000 N 
ATOM     10  C   UNL     1       5.915   3.799  12.969  0.00  0.00    +0.000 C 
ATOM     11  C   UNL     1       6.448   2.583  12.232  0.00  0.00    +0.000 C 
ATOM     12  O   UNL     1       5.341   2.088  11.458  0.00  0.00    +0.000 OA
ATOM     13  C   UNL     1       5.595   3.589  14.464  0.00  0.00    +0.000 C 
ATOM     14  C   UNL     1       7.054   4.078  14.740  0.00  0.00    +0.000 C 
ATOM     15  C   UNL     1       6.874   4.924  13.438  0.00  0.00    +0.000 C 
ATOM     16  H   UNL     1       4.085   4.864  12.302  0.00  0.00    +0.000 HD
ENDBRANCH   1  14
BRANCH   5  17
ATOM     17  C   UNL     1       4.449   6.291  18.417  0.00  0.00    +0.000 C 
BRANCH  17  18
ATOM     18  O   UNL     1       3.042   6.194  18.192  0.00  0.00    +0.000 OA
BRANCH  18  19
ATOM     19  C   UNL     1       2.491   4.946  18.374  0.00  0.00    +0.000 A 
ATOM     20  C   UNL     1       2.650   3.883  17.473  0.00  0.00    +0.000 A 
ATOM     21  C   UNL     1       2.073   2.639  17.736  0.00  0.00    +0.000 A 
ATOM     22  C   UNL     1       1.344   2.453  18.905  0.00  0.00    +0.000 A 
ATOM     23  F   UNL     1       0.789   1.259  19.146  0.00  0.00    +0.000 F 
ATOM     24  C   UNL     1       1.188   3.482  19.820  0.00  0.00    +0.000 A 
ATOM     25  C   UNL     1       1.767   4.725  19.560  0.00  0.00    +0.000 A 
ATOM     26 CL   UNL     1       1.550   5.982  20.726  0.00  0.00    +0.000 Cl
ENDBRANCH  18  19
ENDBRANCH  17  18
ENDBRANCH   5  17
TORSDOF 4
ENDMDL
MODEL 2
REMARK VINA RESULT:      -7.8      5.536      8.360
REMARK  Name = 
REMARK  4 active torsions:
REMARK  status: ('A' for Active; 'I' for Inactive)
REMARK    1  A    between atoms: C_8  and  C_9
REMARK    2  A    between atoms: C_13  and  C_14
REMARK    3  A    between atoms: C_14  and  O_15
REMARK    4  A    between atoms: O_15  and  C_16
REMARK                            x       y       z     vdW  Elec       q    Type
REMARK                         _______ _______ _______ _____ _____    ______ ____
ROOT
ATOM      1  C   UNL     1       6.034   5.615  18.967  0.00  0.00    +0.000 C 
ATOM      2  O   UNL     1       6.603   5.226  19.986  0.00  0.00    +0.000 OA
ATOM      3  N   UNL     1       6.710   6.225  17.930  0.00  0.00    +0.000 N 
ATOM      4  C   UNL     1       8.135   6.483  17.819  0.00  0.00    +0.000 C 
ATOM      5  C   UNL     1       7.779   7.903  17.361  0.00  0.00    +0.000 C 
ATOM      6  C   UNL     1       6.320   7.441  17.219  0.00  0.00    +0.000 C 
ENDROOT
BRANCH   1  14
ATOM      7  O   UNL     1       0.305   1.823  18.807  0.00  0.00    +0.000 OA
ATOM      8  C   UNL     1       0.957   2.840  18.659  0.00  0.00    +0.000 C 
ATOM      9  N   UNL     1       1.975   3.250  19.480  0.00  0.00    +0.000 N 
ATOM     10  C   UNL     1       2.715   4.345  18.885  0.00  0.00    +0.000 C 
ATOM     11  C   UNL     1       1.727   4.823  17.836  0.00  0.00    +0.000 C 
ATOM     12  O   UNL     1       0.830   3.719  17.624  0.00  0.00    +0.000 OA
ATOM     13  C   UNL     1       4.109   3.944  18.359  0.00  0.00    +0.000 C 
ATOM     14  C   UNL     1       4.532   5.420  18.653  0.00  0.00    +0.000 C 
ATOM     15  C   UNL     1       3.462   5.358  19.791  0.00  0.00    +0.000 C 
ATOM     16  H   UNL     1       2.269   2.625  20.217  0.00  0.00    +0.000 HD
ENDBRANCH   1  14
BRANCH   5  17
ATOM     17  C   UNL     1       8.119   8.927  18.436  0.00  0.00    +0.000 C 
BRANCH  17  18
ATOM     18  O   UNL     1       8.858   9.997  17.847  0.00  0.00    +0.000 OA
BRANCH  18  19
ATOM     19  C   UNL     1       9.271  10.986  18.710  0.00  0.00    +0.000 A 
ATOM     20  C   UNL     1      10.115  10.762  19.808  0.00  0.00    +0.000 A 
ATOM     21  C   UNL     1      10.506  11.822  20.629  0.00  0.00    +0.000 A 
ATOM     22  C   UNL     1      10.059  13.107  20.350  0.00  0.00    +0.000 A 
ATOM     23  F   UNL     1      10.433  14.116  21.147  0.00  0.00    +0.000 F 
ATOM     24  C   UNL     1       9.239  13.358  19.261  0.00  0.00    +0.000 A 
ATOM     25  C   UNL     1       8.851  12.300  18.437  0.00  0.00    +0.000 A 
ATOM     26 CL   UNL     1       7.829  12.654  17.089  0.00  0.00    +0.000 Cl
ENDBRANCH  18  19
ENDBRANCH  17  18
ENDBRANCH   5  17
TORSDOF 4
ENDMDL
MODEL 3
REMARK VINA RESULT:      -7.7      3.312      5.014
REMARK  Name = 
REMARK  4 active torsions:
REMARK  status: ('A' for Active; 'I' for Inactive)
REMARK    1  A    between atoms: C_8  and  C_9
REMARK    2  A    between atoms: C_13  and  C_14
REMARK    3  A    between atoms: C_14  and  O_15
REMARK    4  A    between atoms: O_15  and  C_16
REMARK                            x       y       z     vdW  Elec       q    Type
REMARK                         _______ _______ _______ _____ _____    ______ ____
ROOT
ATOM      1  C   UNL     1       3.068   3.617  17.751  0.00  0.00    +0.000 C 
ATOM      2  O   UNL     1       2.123   3.423  16.987  0.00  0.00    +0.000 OA
ATOM      3  N   UNL     1       2.967   3.431  19.114  0.00  0.00    +0.000 N 
ATOM      4  C   UNL     1       1.817   2.967  19.872  0.00  0.00    +0.000 C 
ATOM      5  C   UNL     1       2.080   4.115  20.855  0.00  0.00    +0.000 C 
ATOM      6  C   UNL     1       3.435   4.335  20.164  0.00  0.00    +0.000 C 
ENDROOT
BRANCH   1  14
ATOM      7  O   UNL     1       7.680   5.506  13.020  0.00  0.00    +0.000 OA
ATOM      8  C   UNL     1       7.302   5.245  14.147  0.00  0.00    +0.000 C 
ATOM      9  N   UNL     1       6.068   5.554  14.655  0.00  0.00    +0.000 N 
ATOM     10  C   UNL     1       5.840   4.877  15.916  0.00  0.00    +0.000 C 
ATOM     11  C   UNL     1       7.260   4.505  16.303  0.00  0.00    +0.000 C 
ATOM     12  O   UNL     1       8.015   4.553  15.080  0.00  0.00    +0.000 OA
ATOM     13  C   UNL     1       4.841   3.704  15.824  0.00  0.00    +0.000 C 
ATOM     14  C   UNL     1       4.500   4.010  17.318  0.00  0.00    +0.000 C 
ATOM     15  C   UNL     1       4.868   5.487  16.959  0.00  0.00    +0.000 C 
ATOM     16  H   UNL     1       5.384   5.953  14.028  0.00  0.00    +0.000 HD
ENDBRANCH   1  14
BRANCH   5  17
ATOM     17  C   UNL     1       1.014   5.196  20.732  0.00  0.00    +0.000 C 
BRANCH  17  18
ATOM     18  O   UNL     1       1.554   6.440  21.176  0.00  0.00    +0.000 OA
BRANCH  18  19
ATOM     19  C   UNL     1       1.658   7.424  20.219  0.00  0.00    +0.000 A 
ATOM     20  C   UNL     1       2.348   7.266  19.008  0.00  0.00    +0.000 A 
ATOM     21  C   UNL     1       2.394   8.306  18.078  0.00  0.00    +0.000 A 
ATOM     22  C   UNL     1       1.744   9.502  18.353  0.00  0.00    +0.000 A 
ATOM     23  F   UNL     1       1.799  10.497  17.458  0.00  0.00    +0.000 F 
ATOM     24  C   UNL     1       1.040   9.678  19.534  0.00  0.00    +0.000 A 
ATOM     25  C   UNL     1       0.990   8.637  20.463  0.00  0.00    +0.000 A 
ATOM     26 CL   UNL     1       0.102   8.895  21.924  0.00  0.00    +0.000 Cl
ENDBRANCH  18  19
ENDBRANCH  17  18
ENDBRANCH   5  17
TORSDOF 4
ENDMDL
MODEL 4
REMARK VINA RESULT:      -7.7      4.039      5.662
REMARK  Name = 
REMARK  4 active torsions:
REMARK  status: ('A' for Active; 'I' for Inactive)
REMARK    1  A    between atoms: C_8  and  C_9
REMARK    2  A    between atoms: C_13  and  C_14
REMARK    3  A    between atoms: C_14  and  O_15
REMARK    4  A    between atoms: O_15  and  C_16
REMARK                            x       y       z     vdW  Elec       q    Type
REMARK                         _______ _______ _______ _____ _____    ______ ____
ROOT
ATOM      1  C   UNL     1       2.755   4.297  17.992  0.00  0.00    +0.000 C 
ATOM      2  O   UNL     1       1.821   4.092  17.217  0.00  0.00    +0.000 OA
ATOM      3  N   UNL     1       2.594   4.291  19.362  0.00  0.00    +0.000 N 
ATOM      4  C   UNL     1       1.384   4.027  20.120  0.00  0.00    +0.000 C 
ATOM      5  C   UNL     1       1.720   5.262  20.967  0.00  0.00    +0.000 C 
ATOM      6  C   UNL     1       3.110   5.275  20.313  0.00  0.00    +0.000 C 
ENDROOT
BRANCH   1  14
ATOM      7  O   UNL     1       7.648   5.342  13.281  0.00  0.00    +0.000 OA
ATOM      8  C   UNL     1       7.219   5.206  14.412  0.00  0.00    +0.000 C 
ATOM      9  N   UNL     1       6.013   5.678  14.858  0.00  0.00    +0.000 N 
ATOM     10  C   UNL     1       5.686   5.123  16.157  0.00  0.00    +0.000 C 
ATOM     11  C   UNL     1       7.050   4.636  16.613  0.00  0.00    +0.000 C 
ATOM     12  O   UNL     1       7.834   4.515  15.413  0.00  0.00    +0.000 OA
ATOM     13  C   UNL     1       4.572   4.056  16.119  0.00  0.00    +0.000 C 
ATOM     14  C   UNL     1       4.230   4.507  17.576  0.00  0.00    +0.000 C 
ATOM     15  C   UNL     1       4.760   5.906  17.123  0.00  0.00    +0.000 C 
ATOM     16  H   UNL     1       5.389   6.097  14.183  0.00  0.00    +0.000 HD
ENDBRANCH   1  14
BRANCH   5  17
ATOM     17  C   UNL     1       0.762   6.407  20.669  0.00  0.00    +0.000 C 
BRANCH  17  18
ATOM     18  O   UNL     1       1.309   7.622  21.181  0.00  0.00    +0.000 OA
BRANCH  18  19
ATOM     19  C   UNL     1       0.998   8.763  20.477  0.00  0.00    +0.000 A 
ATOM     20  C   UNL     1       1.459   9.032  19.180  0.00  0.00    +0.000 A 
ATOM     21  C   UNL     1       1.084  10.206  18.524  0.00  0.00    +0.000 A 
ATOM     22  C   UNL     1       0.241  11.108  19.160  0.00  0.00    +0.000 A 
ATOM     23  F   UNL     1      -0.108  12.235  18.526  0.00  0.00    +0.000 F 
ATOM     24  C   UNL     1      -0.244  10.858  20.434  0.00  0.00    +0.000 A 
ATOM     25  C   UNL     1       0.128   9.683  21.090  0.00  0.00    +0.000 A 
ATOM     26 CL   UNL     1      -0.499   9.407  22.677  0.00  0.00    +0.000 Cl
ENDBRANCH  18  19
ENDBRANCH  17  18
ENDBRANCH   5  17
TORSDOF 4
ENDMDL
MODEL 5
REMARK VINA RESULT:      -7.7      1.311      1.640
REMARK  Name = 
REMARK  4 active torsions:
REMARK  status: ('A' for Active; 'I' for Inactive)
REMARK    1  A    between atoms: C_8  and  C_9
REMARK    2  A    between atoms: C_13  and  C_14
REMARK    3  A    between atoms: C_14  and  O_15
REMARK    4  A    between atoms: O_15  and  C_16
REMARK                            x       y       z     vdW  Elec       q    Type
REMARK                         _______ _______ _______ _____ _____    ______ ____
ROOT
ATOM      1  C   UNL     1       7.253   4.761  16.014  0.00  0.00    +0.000 C 
ATOM      2  O   UNL     1       8.019   4.370  16.893  0.00  0.00    +0.000 OA
ATOM      3  N   UNL     1       6.541   5.938  16.124  0.00  0.00    +0.000 N 
ATOM      4  C   UNL     1       6.573   6.906  17.206  0.00  0.00    +0.000 C 
ATOM      5  C   UNL     1       5.039   6.918  17.158  0.00  0.00    +0.000 C 
ATOM      6  C   UNL     1       5.121   6.139  15.836  0.00  0.00    +0.000 C 
ENDROOT
BRANCH   1  14
ATOM      7  O   UNL     1       3.301   2.981  10.680  0.00  0.00    +0.000 OA
ATOM      8  C   UNL     1       4.343   3.048  11.305  0.00  0.00    +0.000 C 
ATOM      9  N   UNL     1       4.741   4.119  12.062  0.00  0.00    +0.000 N 
ATOM     10  C   UNL     1       5.887   3.780  12.882  0.00  0.00    +0.000 C 
ATOM     11  C   UNL     1       6.389   2.534  12.173  0.00  0.00    +0.000 C 
ATOM     12  O   UNL     1       5.270   2.053  11.407  0.00  0.00    +0.000 OA
ATOM     13  C   UNL     1       5.557   3.612  14.380  0.00  0.00    +0.000 C 
ATOM     14  C   UNL     1       7.028   4.066  14.651  0.00  0.00    +0.000 C 
ATOM     15  C   UNL     1       6.874   4.888  13.330  0.00  0.00    +0.000 C 
ATOM     16  H   UNL     1       4.088   4.880  12.186  0.00  0.00    +0.000 HD
ENDBRANCH   1  14
BRANCH   5  17
ATOM     17  C   UNL     1       4.449   6.224  18.379  0.00  0.00    +0.000 C 
BRANCH  17  18
ATOM     18  O   UNL     1       3.247   5.552  18.000  0.00  0.00    +0.000 OA
BRANCH  18  19
ATOM     19  C   UNL     1       2.674   4.760  18.968  0.00  0.00    +0.000 A 
ATOM     20  C   UNL     1       1.867   5.252  20.004  0.00  0.00    +0.000 A 
ATOM     21  C   UNL     1       1.305   4.381  20.940  0.00  0.00    +0.000 A 
ATOM     22  C   UNL     1       1.543   3.016  20.836  0.00  0.00    +0.000 A 
ATOM     23  F   UNL     1       1.006   2.188  21.742  0.00  0.00    +0.000 F 
ATOM     24  C   UNL     1       2.322   2.502  19.811  0.00  0.00    +0.000 A 
ATOM     25  C   UNL     1       2.881   3.372  18.873  0.00  0.00    +0.000 A 
ATOM     26 CL   UNL     1       3.845   2.692  17.610  0.00  0.00    +0.000 Cl
ENDBRANCH  18  19
ENDBRANCH  17  18
ENDBRANCH   5  17
TORSDOF 4
ENDMDL
MODEL 6
REMARK VINA RESULT:      -7.6      4.052      5.737
REMARK  Name = 
REMARK  4 active torsions:
REMARK  status: ('A' for Active; 'I' for Inactive)
REMARK    1  A    between atoms: C_8  and  C_9
REMARK    2  A    between atoms: C_13  and  C_14
REMARK    3  A    between atoms: C_14  and  O_15
REMARK    4  A    between atoms: O_15  and  C_16
REMARK                            x       y       z     vdW  Elec       q    Type
REMARK                         _______ _______ _______ _____ _____    ______ ____
ROOT
ATOM      1  C   UNL     1       2.740   4.361  17.977  0.00  0.00    +0.000 C 
ATOM      2  O   UNL     1       1.798   4.205  17.201  0.00  0.00    +0.000 OA
ATOM      3  N   UNL     1       2.582   4.329  19.348  0.00  0.00    +0.000 N 
ATOM      4  C   UNL     1       1.366   4.086  20.104  0.00  0.00    +0.000 C 
ATOM      5  C   UNL     1       1.744   5.289  20.978  0.00  0.00    +0.000 C 
ATOM      6  C   UNL     1       3.132   5.272  20.320  0.00  0.00    +0.000 C 
ENDROOT
BRANCH   1  14
ATOM      7  O   UNL     1       7.654   5.346  13.275  0.00  0.00    +0.000 OA
ATOM      8  C   UNL     1       7.223   5.200  14.404  0.00  0.00    +0.000 C 
ATOM      9  N   UNL     1       6.033   5.701  14.864  0.00  0.00    +0.000 N 
ATOM     10  C   UNL     1       5.691   5.131  16.152  0.00  0.00    +0.000 C 
ATOM     11  C   UNL     1       7.041   4.592  16.594  0.00  0.00    +0.000 C 
ATOM     12  O   UNL     1       7.818   4.470  15.390  0.00  0.00    +0.000 OA
ATOM     13  C   UNL     1       4.544   4.101  16.095  0.00  0.00    +0.000 C 
ATOM     14  C   UNL     1       4.220   4.532  17.562  0.00  0.00    +0.000 C 
ATOM     15  C   UNL     1       4.793   5.923  17.136  0.00  0.00    +0.000 C 
ATOM     16  H   UNL     1       5.422   6.154  14.199  0.00  0.00    +0.000 HD
ENDBRANCH   1  14
BRANCH   5  17
ATOM     17  C   UNL     1       0.823   6.472  20.709  0.00  0.00    +0.000 C 
BRANCH  17  18
ATOM     18  O   UNL     1       1.561   7.685  20.859  0.00  0.00    +0.000 OA
BRANCH  18  19
ATOM     19  C   UNL     1       0.945   8.823  20.391  0.00  0.00    +0.000 A 
ATOM     20  C   UNL     1       0.051   9.594  21.148  0.00  0.00    +0.000 A 
ATOM     21  C   UNL     1      -0.522  10.748  20.609  0.00  0.00    +0.000 A 
ATOM     22  C   UNL     1      -0.194  11.137  19.316  0.00  0.00    +0.000 A 
ATOM     23  F   UNL     1      -0.753  12.241  18.805  0.00  0.00    +0.000 F 
ATOM     24  C   UNL     1       0.701  10.402  18.554  0.00  0.00    +0.000 A 
ATOM     25  C   UNL     1       1.276   9.251  19.093  0.00  0.00    +0.000 A 
ATOM     26 CL   UNL     1       2.388   8.363  18.111  0.00  0.00    +0.000 Cl
ENDBRANCH  18  19
ENDBRANCH  17  18
ENDBRANCH   5  17
TORSDOF 4
ENDMDL
MODEL 7
REMARK VINA RESULT:      -7.6      6.576      8.288
REMARK  Name = 
REMARK  4 active torsions:
REMARK  status: ('A' for Active; 'I' for Inactive)
REMARK    1  A    between atoms: C_8  and  C_9
REMARK    2  A    between atoms: C_13  and  C_14
REMARK    3  A    between atoms: C_14  and  O_15
REMARK    4  A    between atoms: O_15  and  C_16
REMARK                            x       y       z     vdW  Elec       q    Type
REMARK                         _______ _______ _______ _____ _____    ______ ____
ROOT
ATOM      1  C   UNL     1       1.569   7.790  20.248  0.00  0.00    +0.000 C 
ATOM      2  O   UNL     1       0.827   7.560  21.203  0.00  0.00    +0.000 OA
ATOM      3  N   UNL     1       1.660   9.038  19.668  0.00  0.00    +0.000 N 
ATOM      4  C   UNL     1       0.976  10.259  20.057  0.00  0.00    +0.000 C 
ATOM      5  C   UNL     1       0.648  10.474  18.573  0.00  0.00    +0.000 C 
ATOM      6  C   UNL     1       1.639   9.348  18.239  0.00  0.00    +0.000 C 
ENDROOT
BRANCH   1  14
ATOM      7  O   UNL     1       3.437   1.399  18.546  0.00  0.00    +0.000 OA
ATOM      8  C   UNL     1       3.558   2.610  18.581  0.00  0.00    +0.000 C 
ATOM      9  N   UNL     1       2.526   3.507  18.493  0.00  0.00    +0.000 N 
ATOM     10  C   UNL     1       2.969   4.844  18.834  0.00  0.00    +0.000 C 
ATOM     11  C   UNL     1       4.473   4.696  18.684  0.00  0.00    +0.000 C 
ATOM     12  O   UNL     1       4.728   3.283  18.769  0.00  0.00    +0.000 OA
ATOM     13  C   UNL     1       2.479   5.333  20.213  0.00  0.00    +0.000 C 
ATOM     14  C   UNL     1       2.548   6.775  19.614  0.00  0.00    +0.000 C 
ATOM     15  C   UNL     1       2.233   6.077  18.251  0.00  0.00    +0.000 C 
ATOM     16  H   UNL     1       1.583   3.145  18.484  0.00  0.00    +0.000 HD
ENDBRANCH   1  14
BRANCH   5  17
ATOM     17  C   UNL     1      -0.833  10.247  18.302  0.00  0.00    +0.000 C 
BRANCH  17  18
ATOM     18  O   UNL     1      -1.417  11.464  17.836  0.00  0.00    +0.000 OA
BRANCH  18  19
ATOM     19  C   UNL     1      -2.788  11.541  17.918  0.00  0.00    +0.000 A 
ATOM     20  C   UNL     1      -3.479  11.967  19.062  0.00  0.00    +0.000 A 
ATOM     21  C   UNL     1      -4.874  12.035  19.063  0.00  0.00    +0.000 A 
ATOM     22  C   UNL     1      -5.579  11.686  17.918  0.00  0.00    +0.000 A 
ATOM     23  F   UNL     1      -6.916  11.747  17.930  0.00  0.00    +0.000 F 
ATOM     24  C   UNL     1      -4.919  11.279  16.768  0.00  0.00    +0.000 A 
ATOM     25  C   UNL     1      -3.525  11.214  16.765  0.00  0.00    +0.000 A 
ATOM     26 CL   UNL     1      -2.739  10.702  15.313  0.00  0.00    +0.000 Cl
ENDBRANCH  18  19
ENDBRANCH  17  18
ENDBRANCH   5  17
TORSDOF 4
ENDMDL
MODEL 8
REMARK VINA RESULT:      -7.6      5.679      7.188
REMARK  Name = 
REMARK  4 active torsions:
REMARK  status: ('A' for Active; 'I' for Inactive)
REMARK    1  A    between atoms: C_8  and  C_9
REMARK    2  A    between atoms: C_13  and  C_14
REMARK    3  A    between atoms: C_14  and  O_15
REMARK    4  A    between atoms: O_15  and  C_16
REMARK                            x       y       z     vdW  Elec       q    Type
REMARK                         _______ _______ _______ _____ _____    ______ ____
ROOT
ATOM      1  C   UNL     1       2.264   7.096  19.431  0.00  0.00    +0.000 C 
ATOM      2  O   UNL     1       1.836   6.277  20.243  0.00  0.00    +0.000 OA
ATOM      3  N   UNL     1       2.059   8.453  19.572  0.00  0.00    +0.000 N 
ATOM      4  C   UNL     1       1.374   9.148  20.649  0.00  0.00    +0.000 C 
ATOM      5  C   UNL     1       0.638   9.959  19.573  0.00  0.00    +0.000 C 
ATOM      6  C   UNL     1       1.620   9.389  18.538  0.00  0.00    +0.000 C 
ENDROOT
BRANCH   1  14
ATOM      7  O   UNL     1       7.861   4.357  16.532  0.00  0.00    +0.000 OA
ATOM      8  C   UNL     1       6.782   4.920  16.528  0.00  0.00    +0.000 C 
ATOM      9  N   UNL     1       5.746   4.644  17.382  0.00  0.00    +0.000 N 
ATOM     10  C   UNL     1       4.715   5.659  17.295  0.00  0.00    +0.000 C 
ATOM     11  C   UNL     1       5.060   6.305  15.964  0.00  0.00    +0.000 C 
ATOM     12  O   UNL     1       6.433   5.957  15.715  0.00  0.00    +0.000 OA
ATOM     13  C   UNL     1       4.668   6.609  18.510  0.00  0.00    +0.000 C 
ATOM     14  C   UNL     1       3.143   6.762  18.203  0.00  0.00    +0.000 C 
ATOM     15  C   UNL     1       3.247   5.304  17.646  0.00  0.00    +0.000 C 
ATOM     16  H   UNL     1       5.911   3.984  18.129  0.00  0.00    +0.000 HD
ENDBRANCH   1  14
BRANCH   5  17
ATOM     17  C   UNL     1      -0.827   9.552  19.489  0.00  0.00    +0.000 C 
BRANCH  17  18
ATOM     18  O   UNL     1      -1.609  10.690  19.125  0.00  0.00    +0.000 OA
BRANCH  18  19
ATOM     19  C   UNL     1      -2.266  10.604  17.919  0.00  0.00    +0.000 A 
ATOM     20  C   UNL     1      -1.798   9.860  16.826  0.00  0.00    +0.000 A 
ATOM     21  C   UNL     1      -2.532   9.807  15.638  0.00  0.00    +0.000 A 
ATOM     22  C   UNL     1      -3.737  10.491  15.545  0.00  0.00    +0.000 A 
ATOM     23  F   UNL     1      -4.430  10.441  14.401  0.00  0.00    +0.000 F 
ATOM     24  C   UNL     1      -4.230  11.219  16.617  0.00  0.00    +0.000 A 
ATOM     25  C   UNL     1      -3.500  11.270  17.805  0.00  0.00    +0.000 A 
ATOM     26 CL   UNL     1      -4.149  12.187  19.119  0.00  0.00    +0.000 Cl
ENDBRANCH  18  19
ENDBRANCH  17  18
ENDBRANCH   5  17
TORSDOF 4
ENDMDL
MODEL 9
REMARK VINA RESULT:      -7.6      4.698      8.793
REMARK  Name = 
REMARK  4 active torsions:
REMARK  status: ('A' for Active; 'I' for Inactive)
REMARK    1  A    between atoms: C_8  and  C_9
REMARK    2  A    between atoms: C_13  and  C_14
REMARK    3  A    between atoms: C_14  and  O_15
REMARK    4  A    between atoms: O_15  and  C_16
REMARK                            x       y       z     vdW  Elec       q    Type
REMARK                         _______ _______ _______ _____ _____    ______ ____
ROOT
ATOM      1  C   UNL     1       1.693   5.453  20.359  0.00  0.00    +0.000 C 
ATOM      2  O   UNL     1       1.808   4.735  21.352  0.00  0.00    +0.000 OA
ATOM      3  N   UNL     1       1.760   4.955  19.075  0.00  0.00    +0.000 N 
ATOM      4  C   UNL     1       1.933   3.574  18.657  0.00  0.00    +0.000 C 
ATOM      5  C   UNL     1       2.991   4.073  17.664  0.00  0.00    +0.000 C 
ATOM      6  C   UNL     1       2.522   5.507  17.955  0.00  0.00    +0.000 C 
ENDROOT
BRANCH   1  14
ATOM      7  O   UNL     1      -0.901  11.074  23.344  0.00  0.00    +0.000 OA
ATOM      8  C   UNL     1      -0.311  10.462  22.473  0.00  0.00    +0.000 C 
ATOM      9  N   UNL     1       0.525   9.398  22.686  0.00  0.00    +0.000 N 
ATOM     10  C   UNL     1       0.850   8.733  21.440  0.00  0.00    +0.000 C 
ATOM     11  C   UNL     1       0.476   9.809  20.435  0.00  0.00    +0.000 C 
ATOM     12  O   UNL     1      -0.422  10.689  21.133  0.00  0.00    +0.000 OA
ATOM     13  C   UNL     1       0.149   7.371  21.256  0.00  0.00    +0.000 C 
ATOM     14  C   UNL     1       1.383   6.968  20.385  0.00  0.00    +0.000 C 
ATOM     15  C   UNL     1       2.181   7.950  21.303  0.00  0.00    +0.000 C 
ATOM     16  H   UNL     1       0.598   9.033  23.625  0.00  0.00    +0.000 HD
ENDBRANCH   1  14
BRANCH   5  17
ATOM     17  C   UNL     1       4.390   3.659  18.101  0.00  0.00    +0.000 C 
BRANCH  17  18
ATOM     18  O   UNL     1       5.338   4.124  17.139  0.00  0.00    +0.000 OA
BRANCH  18  19
ATOM     19  C   UNL     1       6.189   5.117  17.568  0.00  0.00    +0.000 A 
ATOM     20  C   UNL     1       7.126   4.952  18.599  0.00  0.00    +0.000 A 
ATOM     21  C   UNL     1       7.968   6.003  18.966  0.00  0.00    +0.000 A 
ATOM     22  C   UNL     1       7.880   7.218  18.299  0.00  0.00    +0.000 A 
ATOM     23  F   UNL     1       8.687   8.224  18.662  0.00  0.00    +0.000 F 
ATOM     24  C   UNL     1       6.975   7.402  17.265  0.00  0.00    +0.000 A 
ATOM     25  C   UNL     1       6.135   6.350  16.894  0.00  0.00    +0.000 A 
ATOM     26 CL   UNL     1       5.021   6.619  15.600  0.00  0.00    +0.000 Cl
ENDBRANCH  18  19
ENDBRANCH  17  18
ENDBRANCH   5  17
TORSDOF 4
ENDMDL
