MODEL 1
REMARK VINA RESULT:      -8.6      0.000      0.000
REMARK  Name = 
REMARK  8 active torsions:
REMARK  status: ('A' for Active; 'I' for Inactive)
REMARK    1  A    between atoms: C_1  and  C_2
REMARK    2  A    between atoms: C_2  and  O_3
REMARK    3  A    between atoms: O_3  and  C_4
REMARK    4  A    between atoms: C_4  and  N_5
REMARK    5  A    between atoms: C_6  and  C_7
REMARK    6  A    between atoms: C_7  and  C_8
REMARK    7  A    between atoms: C_11  and  C_12
REMARK    8  A    between atoms: N_25  and  O_26
REMARK                            x       y       z     vdW  Elec       q    Type
REMARK                         _______ _______ _______ _____ _____    ______ ____
ROOT
ATOM      1  C   UNL     1       2.751   6.854  17.464  0.00  0.00    +0.000 C 
ENDROOT
BRANCH   1   3
ATOM      2  N   UNL     1       4.240   5.050  18.455  0.00  0.00    +0.000 N 
ATOM      3  C   UNL     1       4.134   6.244  17.707  0.00  0.00    +0.000 A 
ATOM      4  C   UNL     1       5.248   6.793  17.199  0.00  0.00    +0.000 A 
ATOM      5  C   UNL     1       6.554   6.144  17.341  0.00  0.00    +0.000 A 
ATOM      6  O   UNL     1       7.583   6.705  16.960  0.00  0.00    +0.000 OA
ATOM      7  N   UNL     1       6.531   4.911  17.926  0.00  0.00    +0.000 N 
ATOM      8  C   UNL     1       5.467   4.365  18.619  0.00  0.00    +0.000 A 
ATOM      9  O   UNL     1       5.584   3.376  19.348  0.00  0.00    +0.000 OA
BRANCH   7  10
ATOM     10  O   UNL     1       7.797   4.301  18.108  0.00  0.00    +0.000 OA
ATOM     11  H   UNL     1       7.900   3.802  17.271  0.00  0.00    +0.000 HD
ENDBRANCH   7  10
BRANCH   2  12
ATOM     12  C   UNL     1       3.131   4.517  19.244  0.00  0.00    +0.000 C 
BRANCH  12  13
ATOM     13  O   UNL     1       2.386   3.565  18.486  0.00  0.00    +0.000 OA
BRANCH  13  15
ATOM     14  C   UNL     1       0.997   4.107  20.370  0.00  0.00    +0.000 C 
ATOM     15  C   UNL     1       1.217   3.163  19.206  0.00  0.00    +0.000 C 
ENDBRANCH  13  15
ENDBRANCH  12  13
ENDBRANCH   2  12
ENDBRANCH   1   3
BRANCH   1  16
ATOM     16  C   UNL     1       2.194   7.925  18.399  0.00  0.00    +0.000 A 
ATOM     17  C   UNL     1       1.705   9.157  17.949  0.00  0.00    +0.000 A 
ATOM     18  C   UNL     1       1.036  10.039  18.817  0.00  0.00    +0.000 A 
ATOM     19  C   UNL     1       0.770   9.694  20.153  0.00  0.00    +0.000 A 
ATOM     20  C   UNL     1       1.313   8.481  20.608  0.00  0.00    +0.000 A 
ATOM     21  C   UNL     1       2.009   7.615  19.753  0.00  0.00    +0.000 A 
BRANCH  19  22
ATOM     22  C   UNL     1      -0.134  10.508  21.007  0.00  0.00    +0.000 A 
ATOM     23  C   UNL     1      -0.312  10.178  22.370  0.00  0.00    +0.000 A 
ATOM     24  C   UNL     1      -1.203  10.877  23.193  0.00  0.00    +0.000 A 
ATOM     25  C   UNL     1      -1.949  11.922  22.665  0.00  0.00    +0.000 A 
ATOM     26 CL   UNL     1      -3.064  12.760  23.674  0.00  0.00    +0.000 Cl
ATOM     27  C   UNL     1      -1.795  12.266  21.326  0.00  0.00    +0.000 A 
ATOM     28  F   UNL     1      -2.519  13.261  20.790  0.00  0.00    +0.000 F 
ATOM     29  C   UNL     1      -0.896  11.576  20.505  0.00  0.00    +0.000 A 
ENDBRANCH  19  22
ENDBRANCH   1  16
TORSDOF 7
ENDMDL
MODEL 2
REMARK VINA RESULT:      -8.5      1.243      3.306
REMARK  Name = 
REMARK  8 active torsions:
REMARK  status: ('A' for Active; 'I' for Inactive)
REMARK    1  A    between atoms: C_1  and  C_2
REMARK    2  A    between atoms: C_2  and  O_3
REMARK    3  A    between atoms: O_3  and  C_4
REMARK    4  A    between atoms: C_4  and  N_5
REMARK    5  A    between atoms: C_6  and  C_7
REMARK    6  A    between atoms: C_7  and  C_8
REMARK    7  A    between atoms: C_11  and  C_12
REMARK    8  A    between atoms: N_25  and  O_26
REMARK                            x       y       z     vdW  Elec       q    Type
REMARK                         _______ _______ _______ _____ _____    ______ ____
ROOT
ATOM      1  C   UNL     1       3.017   6.661  17.781  0.00  0.00    +0.000 C 
ENDROOT
BRANCH   1   3
ATOM      2  N   UNL     1       3.959   4.510  18.750  0.00  0.00    +0.000 N 
ATOM      3  C   UNL     1       2.875   5.179  18.137  0.00  0.00    +0.000 A 
ATOM      4  C   UNL     1       1.737   4.504  17.917  0.00  0.00    +0.000 A 
ATOM      5  C   UNL     1       1.570   3.118  18.363  0.00  0.00    +0.000 A 
ATOM      6  O   UNL     1       0.561   2.476  18.067  0.00  0.00    +0.000 OA
ATOM      7  N   UNL     1       2.605   2.615  19.098  0.00  0.00    +0.000 N 
ATOM      8  C   UNL     1       3.862   3.178  19.217  0.00  0.00    +0.000 A 
ATOM      9  O   UNL     1       4.830   2.558  19.665  0.00  0.00    +0.000 OA
BRANCH   7  10
ATOM     10  O   UNL     1       2.468   1.260  19.491  0.00  0.00    +0.000 OA
ATOM     11  H   UNL     1       1.607   1.022  19.091  0.00  0.00    +0.000 HD
ENDBRANCH   7  10
BRANCH   2  12
ATOM     12  C   UNL     1       5.302   5.083  18.808  0.00  0.00    +0.000 C 
BRANCH  12  13
ATOM     13  O   UNL     1       6.053   4.724  17.649  0.00  0.00    +0.000 OA
BRANCH  13  15
ATOM     14  C   UNL     1       7.651   5.737  19.129  0.00  0.00    +0.000 C 
ATOM     15  C   UNL     1       7.453   4.879  17.896  0.00  0.00    +0.000 C 
ENDBRANCH  13  15
ENDBRANCH  12  13
ENDBRANCH   2  12
ENDBRANCH   1   3
BRANCH   1  16
ATOM     16  C   UNL     1       2.398   7.740  18.665  0.00  0.00    +0.000 A 
ATOM     17  C   UNL     1       1.926   8.962  18.168  0.00  0.00    +0.000 A 
ATOM     18  C   UNL     1       1.200   9.850  18.982  0.00  0.00    +0.000 A 
ATOM     19  C   UNL     1       0.860   9.523  20.305  0.00  0.00    +0.000 A 
ATOM     20  C   UNL     1       1.386   8.322  20.810  0.00  0.00    +0.000 A 
ATOM     21  C   UNL     1       2.138   7.449  20.011  0.00  0.00    +0.000 A 
BRANCH  19  22
ATOM     22  C   UNL     1      -0.098  10.341  21.093  0.00  0.00    +0.000 A 
ATOM     23  C   UNL     1      -0.293  10.080  22.470  0.00  0.00    +0.000 A 
ATOM     24  C   UNL     1      -1.232  10.783  23.233  0.00  0.00    +0.000 A 
ATOM     25  C   UNL     1      -2.013  11.761  22.631  0.00  0.00    +0.000 A 
ATOM     26 CL   UNL     1      -3.186  12.603  23.568  0.00  0.00    +0.000 Cl
ATOM     27  C   UNL     1      -1.843  12.036  21.278  0.00  0.00    +0.000 A 
ATOM     28  F   UNL     1      -2.598  12.965  20.672  0.00  0.00    +0.000 F 
ATOM     29  C   UNL     1      -0.896  11.343  20.516  0.00  0.00    +0.000 A 
ENDBRANCH  19  22
ENDBRANCH   1  16
TORSDOF 7
ENDMDL
MODEL 3
REMARK VINA RESULT:      -8.4      1.503      3.569
REMARK  Name = 
REMARK  8 active torsions:
REMARK  status: ('A' for Active; 'I' for Inactive)
REMARK    1  A    between atoms: C_1  and  C_2
REMARK    2  A    between atoms: C_2  and  O_3
REMARK    3  A    between atoms: O_3  and  C_4
REMARK    4  A    between atoms: C_4  and  N_5
REMARK    5  A    between atoms: C_6  and  C_7
REMARK    6  A    between atoms: C_7  and  C_8
REMARK    7  A    between atoms: C_11  and  C_12
REMARK    8  A    between atoms: N_25  and  O_26
REMARK                            x       y       z     vdW  Elec       q    Type
REMARK                         _______ _______ _______ _____ _____    ______ ____
ROOT
ATOM      1  C   UNL     1       3.376   6.542  17.767  0.00  0.00    +0.000 C 
ENDROOT
BRANCH   1   3
ATOM      2  N   UNL     1       4.077   4.343  18.830  0.00  0.00    +0.000 N 
ATOM      3  C   UNL     1       3.083   5.091  18.158  0.00  0.00    +0.000 A 
ATOM      4  C   UNL     1       1.895   4.519  17.912  0.00  0.00    +0.000 A 
ATOM      5  C   UNL     1       1.583   3.168  18.388  0.00  0.00    +0.000 A 
ATOM      6  O   UNL     1       0.530   2.614  18.070  0.00  0.00    +0.000 OA
ATOM      7  N   UNL     1       2.539   2.593  19.176  0.00  0.00    +0.000 N 
ATOM      8  C   UNL     1       3.838   3.041  19.327  0.00  0.00    +0.000 A 
ATOM      9  O   UNL     1       4.727   2.348  19.829  0.00  0.00    +0.000 OA
BRANCH   7  10
ATOM     10  O   UNL     1       2.262   1.270  19.599  0.00  0.00    +0.000 OA
ATOM     11  H   UNL     1       2.875   1.169  20.356  0.00  0.00    +0.000 HD
ENDBRANCH   7  10
BRANCH   2  12
ATOM     12  C   UNL     1       5.465   4.790  18.923  0.00  0.00    +0.000 C 
BRANCH  12  13
ATOM     13  O   UNL     1       6.192   4.425  17.751  0.00  0.00    +0.000 OA
BRANCH  13  15
ATOM     14  C   UNL     1       7.687   5.837  18.993  0.00  0.00    +0.000 C 
ATOM     15  C   UNL     1       7.558   4.831  17.868  0.00  0.00    +0.000 C 
ENDBRANCH  13  15
ENDBRANCH  12  13
ENDBRANCH   2  12
ENDBRANCH   1   3
BRANCH   1  16
ATOM     16  C   UNL     1       2.638   7.697  18.440  0.00  0.00    +0.000 A 
ATOM     17  C   UNL     1       2.217   8.843  17.753  0.00  0.00    +0.000 A 
ATOM     18  C   UNL     1       1.385   9.797  18.366  0.00  0.00    +0.000 A 
ATOM     19  C   UNL     1       0.886   9.610  19.666  0.00  0.00    +0.000 A 
ATOM     20  C   UNL     1       1.359   8.487  20.364  0.00  0.00    +0.000 A 
ATOM     21  C   UNL     1       2.215   7.551  19.768  0.00  0.00    +0.000 A 
BRANCH  19  22
ATOM     22  C   UNL     1      -0.173  10.486  20.231  0.00  0.00    +0.000 A 
ATOM     23  C   UNL     1      -1.069  11.164  19.372  0.00  0.00    +0.000 A 
ATOM     24  C   UNL     1      -2.039  12.048  19.860  0.00  0.00    +0.000 A 
ATOM     25  C   UNL     1      -2.127  12.287  21.225  0.00  0.00    +0.000 A 
ATOM     26 CL   UNL     1      -3.302  13.397  21.816  0.00  0.00    +0.000 Cl
ATOM     27  C   UNL     1      -1.255  11.635  22.092  0.00  0.00    +0.000 A 
ATOM     28  F   UNL     1      -1.311  11.863  23.413  0.00  0.00    +0.000 F 
ATOM     29  C   UNL     1      -0.294  10.741  21.608  0.00  0.00    +0.000 A 
ENDBRANCH  19  22
ENDBRANCH   1  16
TORSDOF 7
ENDMDL
MODEL 4
REMARK VINA RESULT:      -8.4      1.038      2.984
REMARK  Name = 
REMARK  8 active torsions:
REMARK  status: ('A' for Active; 'I' for Inactive)
REMARK    1  A    between atoms: C_1  and  C_2
REMARK    2  A    between atoms: C_2  and  O_3
REMARK    3  A    between atoms: O_3  and  C_4
REMARK    4  A    between atoms: C_4  and  N_5
REMARK    5  A    between atoms: C_6  and  C_7
REMARK    6  A    between atoms: C_7  and  C_8
REMARK    7  A    between atoms: C_11  and  C_12
REMARK    8  A    between atoms: N_25  and  O_26
REMARK                            x       y       z     vdW  Elec       q    Type
REMARK                         _______ _______ _______ _____ _____    ______ ____
ROOT
ATOM      1  C   UNL     1       2.947   7.021  17.486  0.00  0.00    +0.000 C 
ENDROOT
BRANCH   1   3
ATOM      2  N   UNL     1       4.918   5.546  18.113  0.00  0.00    +0.000 N 
ATOM      3  C   UNL     1       3.516   5.705  18.022  0.00  0.00    +0.000 A 
ATOM      4  C   UNL     1       2.721   4.709  18.442  0.00  0.00    +0.000 A 
ATOM      5  C   UNL     1       3.272   3.499  19.058  0.00  0.00    +0.000 A 
ATOM      6  O   UNL     1       2.542   2.549  19.347  0.00  0.00    +0.000 OA
ATOM      7  N   UNL     1       4.622   3.512  19.262  0.00  0.00    +0.000 N 
ATOM      8  C   UNL     1       5.515   4.411  18.708  0.00  0.00    +0.000 A 
ATOM      9  O   UNL     1       6.734   4.222  18.705  0.00  0.00    +0.000 OA
BRANCH   7  10
ATOM     10  O   UNL     1       5.164   2.325  19.814  0.00  0.00    +0.000 OA
ATOM     11  H   UNL     1       6.122   2.445  19.645  0.00  0.00    +0.000 HD
ENDBRANCH   7  10
BRANCH   2  12
ATOM     12  C   UNL     1       5.854   6.461  17.464  0.00  0.00    +0.000 C 
BRANCH  12  13
ATOM     13  O   UNL     1       5.763   6.353  16.045  0.00  0.00    +0.000 OA
BRANCH  13  15
ATOM     14  C   UNL     1       5.981   4.237  14.929  0.00  0.00    +0.000 C 
ATOM     15  C   UNL     1       6.714   5.404  15.556  0.00  0.00    +0.000 C 
ENDBRANCH  13  15
ENDBRANCH  12  13
ENDBRANCH   2  12
ENDBRANCH   1   3
BRANCH   1  16
ATOM     16  C   UNL     1       2.335   8.051  18.432  0.00  0.00    +0.000 A 
ATOM     17  C   UNL     1       1.860   9.298  18.005  0.00  0.00    +0.000 A 
ATOM     18  C   UNL     1       1.141  10.141  18.872  0.00  0.00    +0.000 A 
ATOM     19  C   UNL     1       0.812   9.743  20.178  0.00  0.00    +0.000 A 
ATOM     20  C   UNL     1       1.342   8.517  20.613  0.00  0.00    +0.000 A 
ATOM     21  C   UNL     1       2.086   7.688  19.762  0.00  0.00    +0.000 A 
BRANCH  19  22
ATOM     22  C   UNL     1      -0.140  10.518  21.017  0.00  0.00    +0.000 A 
ATOM     23  C   UNL     1      -0.319  10.186  22.380  0.00  0.00    +0.000 A 
ATOM     24  C   UNL     1      -1.252  10.847  23.188  0.00  0.00    +0.000 A 
ATOM     25  C   UNL     1      -2.040  11.853  22.645  0.00  0.00    +0.000 A 
ATOM     26 CL   UNL     1      -3.205  12.643  23.636  0.00  0.00    +0.000 Cl
ATOM     27  C   UNL     1      -1.885  12.197  21.306  0.00  0.00    +0.000 A 
ATOM     28  F   UNL     1      -2.648  13.154  20.756  0.00  0.00    +0.000 F 
ATOM     29  C   UNL     1      -0.945  11.546  20.500  0.00  0.00    +0.000 A 
ENDBRANCH  19  22
ENDBRANCH   1  16
TORSDOF 7
ENDMDL
MODEL 5
REMARK VINA RESULT:      -8.4      2.426      2.971
REMARK  Name = 
REMARK  8 active torsions:
REMARK  status: ('A' for Active; 'I' for Inactive)
REMARK    1  A    between atoms: C_1  and  C_2
REMARK    2  A    between atoms: C_2  and  O_3
REMARK    3  A    between atoms: O_3  and  C_4
REMARK    4  A    between atoms: C_4  and  N_5
REMARK    5  A    between atoms: C_6  and  C_7
REMARK    6  A    between atoms: C_7  and  C_8
REMARK    7  A    between atoms: C_11  and  C_12
REMARK    8  A    between atoms: N_25  and  O_26
REMARK                            x       y       z     vdW  Elec       q    Type
REMARK                         _______ _______ _______ _____ _____    ______ ____
ROOT
ATOM      1  C   UNL     1       3.266   5.333  19.726  0.00  0.00    +0.000 C 
ENDROOT
BRANCH   1   3
ATOM      2  N   UNL     1       4.452   4.333  17.714  0.00  0.00    +0.000 N 
ATOM      3  C   UNL     1       4.541   5.055  18.926  0.00  0.00    +0.000 A 
ATOM      4  C   UNL     1       5.739   5.508  19.326  0.00  0.00    +0.000 A 
ATOM      5  C   UNL     1       6.937   5.335  18.499  0.00  0.00    +0.000 A 
ATOM      6  O   UNL     1       8.047   5.663  18.920  0.00  0.00    +0.000 OA
ATOM      7  N   UNL     1       6.721   4.781  17.269  0.00  0.00    +0.000 N 
ATOM      8  C   UNL     1       5.565   4.142  16.863  0.00  0.00    +0.000 A 
ATOM      9  O   UNL     1       5.516   3.434  15.853  0.00  0.00    +0.000 OA
BRANCH   7  10
ATOM     10  O   UNL     1       7.882   4.569  16.487  0.00  0.00    +0.000 OA
ATOM     11  H   UNL     1       8.587   4.904  17.079  0.00  0.00    +0.000 HD
ENDBRANCH   7  10
BRANCH   2  12
ATOM     12  C   UNL     1       3.249   3.600  17.325  0.00  0.00    +0.000 C 
BRANCH  12  13
ATOM     13  O   UNL     1       3.331   2.239  17.746  0.00  0.00    +0.000 OA
BRANCH  13  15
ATOM     14  C   UNL     1       1.103   2.703  18.516  0.00  0.00    +0.000 C 
ATOM     15  C   UNL     1       2.408   1.993  18.811  0.00  0.00    +0.000 C 
ENDBRANCH  13  15
ENDBRANCH  12  13
ENDBRANCH   2  12
ENDBRANCH   1   3
BRANCH   1  16
ATOM     16  C   UNL     1       2.487   6.632  19.530  0.00  0.00    +0.000 A 
ATOM     17  C   UNL     1       1.786   7.269  20.561  0.00  0.00    +0.000 A 
ATOM     18  C   UNL     1       1.237   8.552  20.385  0.00  0.00    +0.000 A 
ATOM     19  C   UNL     1       1.424   9.276  19.196  0.00  0.00    +0.000 A 
ATOM     20  C   UNL     1       2.079   8.605  18.150  0.00  0.00    +0.000 A 
ATOM     21  C   UNL     1       2.600   7.313  18.310  0.00  0.00    +0.000 A 
BRANCH  19  22
ATOM     22  C   UNL     1       1.054  10.711  19.085  0.00  0.00    +0.000 A 
ATOM     23  C   UNL     1      -0.236  11.144  19.471  0.00  0.00    +0.000 A 
ATOM     24  C   UNL     1      -0.647  12.474  19.322  0.00  0.00    +0.000 A 
ATOM     25  C   UNL     1       0.223  13.404  18.770  0.00  0.00    +0.000 A 
ATOM     26 CL   UNL     1      -0.298  15.032  18.563  0.00  0.00    +0.000 Cl
ATOM     27  C   UNL     1       1.497  13.003  18.379  0.00  0.00    +0.000 A 
ATOM     28  F   UNL     1       2.348  13.881  17.827  0.00  0.00    +0.000 F 
ATOM     29  C   UNL     1       1.914  11.677  18.538  0.00  0.00    +0.000 A 
ENDBRANCH  19  22
ENDBRANCH   1  16
TORSDOF 7
ENDMDL
MODEL 6
REMARK VINA RESULT:      -8.3      1.370      1.548
REMARK  Name = 
REMARK  8 active torsions:
REMARK  status: ('A' for Active; 'I' for Inactive)
REMARK    1  A    between atoms: C_1  and  C_2
REMARK    2  A    between atoms: C_2  and  O_3
REMARK    3  A    between atoms: O_3  and  C_4
REMARK    4  A    between atoms: C_4  and  N_5
REMARK    5  A    between atoms: C_6  and  C_7
REMARK    6  A    between atoms: C_7  and  C_8
REMARK    7  A    between atoms: C_11  and  C_12
REMARK    8  A    between atoms: N_25  and  O_26
REMARK                            x       y       z     vdW  Elec       q    Type
REMARK                         _______ _______ _______ _____ _____    ______ ____
ROOT
ATOM      1  C   UNL     1       2.555   6.011  18.015  0.00  0.00    +0.000 C 
ENDROOT
BRANCH   1   3
ATOM      2  N   UNL     1       4.362   4.649  16.859  0.00  0.00    +0.000 N 
ATOM      3  C   UNL     1       3.972   5.872  17.453  0.00  0.00    +0.000 A 
ATOM      4  C   UNL     1       4.845   6.890  17.476  0.00  0.00    +0.000 A 
ATOM      5  C   UNL     1       6.159   6.785  16.836  0.00  0.00    +0.000 A 
ATOM      6  O   UNL     1       6.991   7.687  16.951  0.00  0.00    +0.000 OA
ATOM      7  N   UNL     1       6.378   5.631  16.139  0.00  0.00    +0.000 N 
ATOM      8  C   UNL     1       5.609   4.485  16.213  0.00  0.00    +0.000 A 
ATOM      9  O   UNL     1       5.993   3.396  15.778  0.00  0.00    +0.000 OA
BRANCH   7  10
ATOM     10  O   UNL     1       7.664   5.506  15.560  0.00  0.00    +0.000 OA
ATOM     11  H   UNL     1       7.447   5.205  14.653  0.00  0.00    +0.000 HD
ENDBRANCH   7  10
BRANCH   2  12
ATOM     12  C   UNL     1       3.579   3.424  17.002  0.00  0.00    +0.000 C 
BRANCH  12  13
ATOM     13  O   UNL     1       4.008   2.682  18.143  0.00  0.00    +0.000 OA
BRANCH  13  15
ATOM     14  C   UNL     1       1.619   2.551  18.359  0.00  0.00    +0.000 C 
ATOM     15  C   UNL     1       2.942   1.866  18.635  0.00  0.00    +0.000 C 
ENDBRANCH  13  15
ENDBRANCH  12  13
ENDBRANCH   2  12
ENDBRANCH   1   3
BRANCH   1  16
ATOM     16  C   UNL     1       2.156   7.235  18.836  0.00  0.00    +0.000 A 
ATOM     17  C   UNL     1       1.794   8.460  18.260  0.00  0.00    +0.000 A 
ATOM     18  C   UNL     1       1.261   9.503  19.038  0.00  0.00    +0.000 A 
ATOM     19  C   UNL     1       1.005   9.340  20.410  0.00  0.00    +0.000 A 
ATOM     20  C   UNL     1       1.423   8.129  20.986  0.00  0.00    +0.000 A 
ATOM     21  C   UNL     1       1.986   7.099  20.220  0.00  0.00    +0.000 A 
BRANCH  19  22
ATOM     22  C   UNL     1       0.230  10.342  21.187  0.00  0.00    +0.000 A 
ATOM     23  C   UNL     1      -0.380   9.977  22.409  0.00  0.00    +0.000 A 
ATOM     24  C   UNL     1      -1.172  10.871  23.140  0.00  0.00    +0.000 A 
ATOM     25  C   UNL     1      -1.384  12.155  22.655  0.00  0.00    +0.000 A 
ATOM     26 CL   UNL     1      -2.382  13.241  23.542  0.00  0.00    +0.000 Cl
ATOM     27  C   UNL     1      -0.797  12.539  21.453  0.00  0.00    +0.000 A 
ATOM     28  F   UNL     1      -1.002  13.769  20.957  0.00  0.00    +0.000 F 
ATOM     29  C   UNL     1       0.005  11.651  20.728  0.00  0.00    +0.000 A 
ENDBRANCH  19  22
ENDBRANCH   1  16
TORSDOF 7
ENDMDL
MODEL 7
REMARK VINA RESULT:      -8.3      1.598      3.587
REMARK  Name = 
REMARK  8 active torsions:
REMARK  status: ('A' for Active; 'I' for Inactive)
REMARK    1  A    between atoms: C_1  and  C_2
REMARK    2  A    between atoms: C_2  and  O_3
REMARK    3  A    between atoms: O_3  and  C_4
REMARK    4  A    between atoms: C_4  and  N_5
REMARK    5  A    between atoms: C_6  and  C_7
REMARK    6  A    between atoms: C_7  and  C_8
REMARK    7  A    between atoms: C_11  and  C_12
REMARK    8  A    between atoms: N_25  and  O_26
REMARK                            x       y       z     vdW  Elec       q    Type
REMARK                         _______ _______ _______ _____ _____    ______ ____
ROOT
ATOM      1  C   UNL     1       3.077   7.009  18.017  0.00  0.00    +0.000 C 
ENDROOT
BRANCH   1   3
ATOM      2  N   UNL     1       4.109   4.810  18.761  0.00  0.00    +0.000 N 
ATOM      3  C   UNL     1       2.996   5.494  18.219  0.00  0.00    +0.000 A 
ATOM      4  C   UNL     1       1.885   4.800  17.930  0.00  0.00    +0.000 A 
ATOM      5  C   UNL     1       1.777   3.369  18.232  0.00  0.00    +0.000 A 
ATOM      6  O   UNL     1       0.794   2.720  17.870  0.00  0.00    +0.000 OA
ATOM      7  N   UNL     1       2.835   2.836  18.911  0.00  0.00    +0.000 N 
ATOM      8  C   UNL     1       4.068   3.435  19.088  0.00  0.00    +0.000 A 
ATOM      9  O   UNL     1       5.062   2.812  19.470  0.00  0.00    +0.000 OA
BRANCH   7  10
ATOM     10  O   UNL     1       2.755   1.444  19.163  0.00  0.00    +0.000 OA
ATOM     11  H   UNL     1       3.606   1.125  18.797  0.00  0.00    +0.000 HD
ENDBRANCH   7  10
BRANCH   2  12
ATOM     12  C   UNL     1       5.428   5.429  18.877  0.00  0.00    +0.000 C 
BRANCH  12  13
ATOM     13  O   UNL     1       6.162   5.282  17.663  0.00  0.00    +0.000 OA
BRANCH  13  15
ATOM     14  C   UNL     1       7.899   5.786  19.244  0.00  0.00    +0.000 C 
ATOM     15  C   UNL     1       7.552   5.093  17.943  0.00  0.00    +0.000 C 
ENDBRANCH  13  15
ENDBRANCH  12  13
ENDBRANCH   2  12
ENDBRANCH   1   3
BRANCH   1  16
ATOM     16  C   UNL     1       2.137   7.949  18.769  0.00  0.00    +0.000 A 
ATOM     17  C   UNL     1       1.828   7.800  20.127  0.00  0.00    +0.000 A 
ATOM     18  C   UNL     1       1.108   8.786  20.825  0.00  0.00    +0.000 A 
ATOM     19  C   UNL     1       0.726   9.990  20.210  0.00  0.00    +0.000 A 
ATOM     20  C   UNL     1       0.992  10.105  18.835  0.00  0.00    +0.000 A 
ATOM     21  C   UNL     1       1.681   9.109  18.129  0.00  0.00    +0.000 A 
BRANCH  19  22
ATOM     22  C   UNL     1       0.177  11.129  20.991  0.00  0.00    +0.000 A 
ATOM     23  C   UNL     1       0.733  12.422  20.850  0.00  0.00    +0.000 A 
ATOM     24  C   UNL     1       0.289  13.508  21.614  0.00  0.00    +0.000 A 
ATOM     25  C   UNL     1      -0.717  13.322  22.552  0.00  0.00    +0.000 A 
ATOM     26 CL   UNL     1      -1.239  14.654  23.508  0.00  0.00    +0.000 Cl
ATOM     27  C   UNL     1      -1.279  12.059  22.713  0.00  0.00    +0.000 A 
ATOM     28  F   UNL     1      -2.242  11.854  23.625  0.00  0.00    +0.000 F 
ATOM     29  C   UNL     1      -0.846  10.975  21.941  0.00  0.00    +0.000 A 
ENDBRANCH  19  22
ENDBRANCH   1  16
TORSDOF 7
ENDMDL
MODEL 8
REMARK VINA RESULT:      -8.3      1.204      1.446
REMARK  Name = 
REMARK  8 active torsions:
REMARK  status: ('A' for Active; 'I' for Inactive)
REMARK    1  A    between atoms: C_1  and  C_2
REMARK    2  A    between atoms: C_2  and  O_3
REMARK    3  A    between atoms: O_3  and  C_4
REMARK    4  A    between atoms: C_4  and  N_5
REMARK    5  A    between atoms: C_6  and  C_7
REMARK    6  A    between atoms: C_7  and  C_8
REMARK    7  A    between atoms: C_11  and  C_12
REMARK    8  A    between atoms: N_25  and  O_26
REMARK                            x       y       z     vdW  Elec       q    Type
REMARK                         _______ _______ _______ _____ _____    ______ ____
ROOT
ATOM      1  C   UNL     1       2.427   6.872  17.859  0.00  0.00    +0.000 C 
ENDROOT
BRANCH   1   3
ATOM      2  N   UNL     1       3.897   4.937  18.600  0.00  0.00    +0.000 N 
ATOM      3  C   UNL     1       3.801   6.212  17.998  0.00  0.00    +0.000 A 
ATOM      4  C   UNL     1       4.916   6.795  17.531  0.00  0.00    +0.000 A 
ATOM      5  C   UNL     1       6.211   6.109  17.566  0.00  0.00    +0.000 A 
ATOM      6  O   UNL     1       7.243   6.691  17.229  0.00  0.00    +0.000 OA
ATOM      7  N   UNL     1       6.173   4.816  18.006  0.00  0.00    +0.000 N 
ATOM      8  C   UNL     1       5.111   4.215  18.656  0.00  0.00    +0.000 A 
ATOM      9  O   UNL     1       5.222   3.146  19.263  0.00  0.00    +0.000 OA
BRANCH   7  10
ATOM     10  O   UNL     1       7.428   4.166  18.086  0.00  0.00    +0.000 OA
ATOM     11  H   UNL     1       7.987   4.858  18.495  0.00  0.00    +0.000 HD
ENDBRANCH   7  10
BRANCH   2  12
ATOM     12  C   UNL     1       2.793   4.339  19.348  0.00  0.00    +0.000 C 
BRANCH  12  13
ATOM     13  O   UNL     1       2.846   4.725  20.720  0.00  0.00    +0.000 OA
BRANCH  13  15
ATOM     14  C   UNL     1       1.112   3.062  20.720  0.00  0.00    +0.000 C 
ATOM     15  C   UNL     1       2.186   3.752  21.535  0.00  0.00    +0.000 C 
ENDBRANCH  13  15
ENDBRANCH  12  13
ENDBRANCH   2  12
ENDBRANCH   1   3
BRANCH   1  16
ATOM     16  C   UNL     1       2.043   8.068  18.728  0.00  0.00    +0.000 A 
ATOM     17  C   UNL     1       1.727   9.327  18.203  0.00  0.00    +0.000 A 
ATOM     18  C   UNL     1       1.204  10.348  19.017  0.00  0.00    +0.000 A 
ATOM     19  C   UNL     1       0.914  10.129  20.374  0.00  0.00    +0.000 A 
ATOM     20  C   UNL     1       1.288   8.882  20.902  0.00  0.00    +0.000 A 
ATOM     21  C   UNL     1       1.839   7.873  20.100  0.00  0.00    +0.000 A 
BRANCH  19  22
ATOM     22  C   UNL     1       0.150  11.116  21.181  0.00  0.00    +0.000 A 
ATOM     23  C   UNL     1       0.488  12.488  21.133  0.00  0.00    +0.000 A 
ATOM     24  C   UNL     1      -0.163  13.441  21.925  0.00  0.00    +0.000 A 
ATOM     25  C   UNL     1      -1.165  13.039  22.799  0.00  0.00    +0.000 A 
ATOM     26 CL   UNL     1      -1.943  14.210  23.792  0.00  0.00    +0.000 Cl
ATOM     27  C   UNL     1      -1.515  11.694  22.868  0.00  0.00    +0.000 A 
ATOM     28  F   UNL     1      -2.468  11.281  23.717  0.00  0.00    +0.000 F 
ATOM     29  C   UNL     1      -0.874  10.742  22.067  0.00  0.00    +0.000 A 
ENDBRANCH  19  22
ENDBRANCH   1  16
TORSDOF 7
ENDMDL
MODEL 9
REMARK VINA RESULT:      -8.2      1.553      3.499
REMARK  Name = 
REMARK  8 active torsions:
REMARK  status: ('A' for Active; 'I' for Inactive)
REMARK    1  A    between atoms: C_1  and  C_2
REMARK    2  A    between atoms: C_2  and  O_3
REMARK    3  A    between atoms: O_3  and  C_4
REMARK    4  A    between atoms: C_4  and  N_5
REMARK    5  A    between atoms: C_6  and  C_7
REMARK    6  A    between atoms: C_7  and  C_8
REMARK    7  A    between atoms: C_11  and  C_12
REMARK    8  A    between atoms: N_25  and  O_26
REMARK                            x       y       z     vdW  Elec       q    Type
REMARK                         _______ _______ _______ _____ _____    ______ ____
ROOT
ATOM      1  C   UNL     1       3.019   7.006  18.072  0.00  0.00    +0.000 C 
ENDROOT
BRANCH   1   3
ATOM      2  N   UNL     1       4.085   4.812  18.784  0.00  0.00    +0.000 N 
ATOM      3  C   UNL     1       2.959   5.488  18.260  0.00  0.00    +0.000 A 
ATOM      4  C   UNL     1       1.854   4.783  17.975  0.00  0.00    +0.000 A 
ATOM      5  C   UNL     1       1.766   3.348  18.264  0.00  0.00    +0.000 A 
ATOM      6  O   UNL     1       0.787   2.691  17.905  0.00  0.00    +0.000 OA
ATOM      7  N   UNL     1       2.836   2.821  18.928  0.00  0.00    +0.000 N 
ATOM      8  C   UNL     1       4.064   3.434  19.098  0.00  0.00    +0.000 A 
ATOM      9  O   UNL     1       5.069   2.819  19.465  0.00  0.00    +0.000 OA
BRANCH   7  10
ATOM     10  O   UNL     1       2.775   1.426  19.167  0.00  0.00    +0.000 OA
ATOM     11  H   UNL     1       3.699   1.152  18.993  0.00  0.00    +0.000 HD
ENDBRANCH   7  10
BRANCH   2  12
ATOM     12  C   UNL     1       5.398   5.445  18.894  0.00  0.00    +0.000 C 
BRANCH  12  13
ATOM     13  O   UNL     1       6.104   5.358  17.658  0.00  0.00    +0.000 OA
BRANCH  13  15
ATOM     14  C   UNL     1       7.825   5.725  19.294  0.00  0.00    +0.000 C 
ATOM     15  C   UNL     1       7.509   5.235  17.896  0.00  0.00    +0.000 C 
ENDBRANCH  13  15
ENDBRANCH  12  13
ENDBRANCH   2  12
ENDBRANCH   1   3
BRANCH   1  16
ATOM     16  C   UNL     1       2.105   7.930  18.873  0.00  0.00    +0.000 A 
ATOM     17  C   UNL     1       1.812   7.732  20.228  0.00  0.00    +0.000 A 
ATOM     18  C   UNL     1       1.117   8.701  20.974  0.00  0.00    +0.000 A 
ATOM     19  C   UNL     1       0.746   9.934  20.412  0.00  0.00    +0.000 A 
ATOM     20  C   UNL     1       0.995  10.098  19.039  0.00  0.00    +0.000 A 
ATOM     21  C   UNL     1       1.659   9.120  18.285  0.00  0.00    +0.000 A 
BRANCH  19  22
ATOM     22  C   UNL     1       0.225  11.050  21.244  0.00  0.00    +0.000 A 
ATOM     23  C   UNL     1      -0.725  10.795  22.261  0.00  0.00    +0.000 A 
ATOM     24  C   UNL     1      -1.289  11.824  23.024  0.00  0.00    +0.000 A 
ATOM     25  C   UNL     1      -0.924  13.141  22.778  0.00  0.00    +0.000 A 
ATOM     26 CL   UNL     1      -1.641  14.405  23.699  0.00  0.00    +0.000 Cl
ATOM     27  C   UNL     1       0.007  13.419  21.782  0.00  0.00    +0.000 A 
ATOM     28  F   UNL     1       0.363  14.685  21.516  0.00  0.00    +0.000 F 
ATOM     29  C   UNL     1       0.582  12.391  21.026  0.00  0.00    +0.000 A 
ENDBRANCH  19  22
ENDBRANCH   1  16
TORSDOF 7
ENDMDL
