MODEL 1
REMARK VINA RESULT:      -7.4      0.000      0.000
REMARK  Name = 
REMARK  8 active torsions:
REMARK  status: ('A' for Active; 'I' for Inactive)
REMARK    1  A    between atoms: C_1  and  C_2
REMARK    2  A    between atoms: N_11  and  C_12
REMARK    3  A    between atoms: C_12  and  C_13
REMARK    4  A    between atoms: C_13  and  O_14
REMARK    5  A    between atoms: C_13  and  C_15
REMARK    6  A    between atoms: C_15  and  O_16
REMARK    7  A    between atoms: O_16  and  C_17
REMARK    8  A    between atoms: C_17  and  C_18
REMARK                            x       y       z     vdW  Elec       q    Type
REMARK                         _______ _______ _______ _____ _____    ______ ____
ROOT
ATOM      1  C   UNL     1       6.705   5.870  18.143  0.00  0.00    +0.000 C 
ENDROOT
BRANCH   1   2
ATOM      2  O   UNL     1       7.742   6.823  18.406  0.00  0.00    +0.000 OA
ATOM      3  H   UNL     1       7.389   7.494  19.026  0.00  0.00    +0.000 HD
ENDBRANCH   1   2
BRANCH   1   4
ATOM      4  C   UNL     1       5.721   5.691  19.326  0.00  0.00    +0.000 C 
BRANCH   4  15
ATOM      5  C   UNL     1       3.651   7.329  17.860  0.00  0.00    +0.000 C 
ATOM      6  C   UNL     1       3.418   5.881  18.212  0.00  0.00    +0.000 A 
ATOM      7  C   UNL     1       2.251   5.314  17.840  0.00  0.00    +0.000 A 
ATOM      8  C   UNL     1       1.972   3.887  18.130  0.00  0.00    +0.000 A 
ATOM      9  O   UNL     1       0.936   3.320  17.813  0.00  0.00    +0.000 OA
ATOM     10  N   UNL     1       3.011   3.237  18.794  0.00  0.00    +0.000 N 
ATOM     11  N   UNL     1       3.003   1.928  19.145  0.00  0.00    +0.000 NA
ATOM     12  C   UNL     1       4.189   1.810  19.742  0.00  0.00    +0.000 A 
ATOM     13  N   UNL     1       4.944   2.952  19.804  0.00  0.00    +0.000 NA
ATOM     14  C   UNL     1       4.196   3.829  19.178  0.00  0.00    +0.000 A 
ATOM     15  N   UNL     1       4.411   5.149  18.894  0.00  0.00    +0.000 N 
ENDBRANCH   4  15
ENDBRANCH   1   4
BRANCH   1  16
ATOM     16  C   UNL     1       7.379   4.537  17.787  0.00  0.00    +0.000 C 
BRANCH  16  17
ATOM     17  O   UNL     1       7.932   4.613  16.479  0.00  0.00    +0.000 OA
BRANCH  17  18
ATOM     18  C   UNL     1       7.253   5.563  15.657  0.00  0.00    +0.000 C 
BRANCH  18  19
ATOM     19  C   UNL     1       6.849   4.850  14.392  0.00  0.00    +0.000 A 
ATOM     20  C   UNL     1       7.652   5.027  13.248  0.00  0.00    +0.000 A 
ATOM     21  C   UNL     1       7.335   4.406  12.039  0.00  0.00    +0.000 A 
ATOM     22  C   UNL     1       6.212   3.590  11.953  0.00  0.00    +0.000 A 
ATOM     23  C   UNL     1       5.406   3.401  13.076  0.00  0.00    +0.000 A 
ATOM     24  C   UNL     1       5.720   4.025  14.289  0.00  0.00    +0.000 A 
ATOM     25 CL   UNL     1       4.662   3.736  15.623  0.00  0.00    +0.000 Cl
ENDBRANCH  18  19
ENDBRANCH  17  18
ENDBRANCH  16  17
ENDBRANCH   1  16
TORSDOF 7
ENDMDL
MODEL 2
REMARK VINA RESULT:      -7.0      3.848      7.486
REMARK  Name = 
REMARK  8 active torsions:
REMARK  status: ('A' for Active; 'I' for Inactive)
REMARK    1  A    between atoms: C_1  and  C_2
REMARK    2  A    between atoms: N_11  and  C_12
REMARK    3  A    between atoms: C_12  and  C_13
REMARK    4  A    between atoms: C_13  and  O_14
REMARK    5  A    between atoms: C_13  and  C_15
REMARK    6  A    between atoms: C_15  and  O_16
REMARK    7  A    between atoms: O_16  and  C_17
REMARK    8  A    between atoms: C_17  and  C_18
REMARK                            x       y       z     vdW  Elec       q    Type
REMARK                         _______ _______ _______ _____ _____    ______ ____
ROOT
ATOM      1  C   UNL     1       2.855   4.569  19.920  0.00  0.00    +0.000 C 
ENDROOT
BRANCH   1   2
ATOM      2  O   UNL     1       2.271   4.316  21.203  0.00  0.00    +0.000 OA
ATOM      3  H   UNL     1       2.976   4.386  21.879  0.00  0.00    +0.000 HD
ENDBRANCH   1   2
BRANCH   1   4
ATOM      4  C   UNL     1       4.182   3.803  19.689  0.00  0.00    +0.000 C 
BRANCH   4  15
ATOM      5  C   UNL     1       3.031   3.152  16.974  0.00  0.00    +0.000 C 
ATOM      6  C   UNL     1       4.337   3.893  17.130  0.00  0.00    +0.000 A 
ATOM      7  C   UNL     1       4.987   4.281  16.013  0.00  0.00    +0.000 A 
ATOM      8  C   UNL     1       6.259   5.038  16.097  0.00  0.00    +0.000 A 
ATOM      9  O   UNL     1       6.888   5.419  15.120  0.00  0.00    +0.000 OA
ATOM     10  N   UNL     1       6.674   5.290  17.403  0.00  0.00    +0.000 N 
ATOM     11  N   UNL     1       7.790   5.983  17.738  0.00  0.00    +0.000 NA
ATOM     12  C   UNL     1       7.739   5.936  19.069  0.00  0.00    +0.000 A 
ATOM     13  N   UNL     1       6.677   5.254  19.603  0.00  0.00    +0.000 NA
ATOM     14  C   UNL     1       6.006   4.881  18.538  0.00  0.00    +0.000 A 
ATOM     15  N   UNL     1       4.838   4.181  18.415  0.00  0.00    +0.000 N 
ENDBRANCH   4  15
ENDBRANCH   1   4
BRANCH   1  16
ATOM     16  C   UNL     1       3.071   6.083  19.797  0.00  0.00    +0.000 C 
BRANCH  16  17
ATOM     17  O   UNL     1       1.839   6.762  20.011  0.00  0.00    +0.000 OA
BRANCH  17  18
ATOM     18  C   UNL     1       1.879   8.116  19.561  0.00  0.00    +0.000 C 
BRANCH  18  19
ATOM     19  C   UNL     1       1.047   8.930  20.519  0.00  0.00    +0.000 A 
ATOM     20  C   UNL     1       1.223   8.708  21.900  0.00  0.00    +0.000 A 
ATOM     21  C   UNL     1       0.481   9.418  22.845  0.00  0.00    +0.000 A 
ATOM     22  C   UNL     1      -0.444  10.368  22.428  0.00  0.00    +0.000 A 
ATOM     23  C   UNL     1      -0.630  10.604  21.065  0.00  0.00    +0.000 A 
ATOM     24  C   UNL     1       0.110   9.891  20.115  0.00  0.00    +0.000 A 
ATOM     25 CL   UNL     1      -0.191  10.246  18.452  0.00  0.00    +0.000 Cl
ENDBRANCH  18  19
ENDBRANCH  17  18
ENDBRANCH  16  17
ENDBRANCH   1  16
TORSDOF 7
ENDMDL
MODEL 3
REMARK VINA RESULT:      -6.8      3.556      5.311
REMARK  Name = 
REMARK  8 active torsions:
REMARK  status: ('A' for Active; 'I' for Inactive)
REMARK    1  A    between atoms: C_1  and  C_2
REMARK    2  A    between atoms: N_11  and  C_12
REMARK    3  A    between atoms: C_12  and  C_13
REMARK    4  A    between atoms: C_13  and  O_14
REMARK    5  A    between atoms: C_13  and  C_15
REMARK    6  A    between atoms: C_15  and  O_16
REMARK    7  A    between atoms: O_16  and  C_17
REMARK    8  A    between atoms: C_17  and  C_18
REMARK                            x       y       z     vdW  Elec       q    Type
REMARK                         _______ _______ _______ _____ _____    ______ ____
ROOT
ATOM      1  C   UNL     1       2.015   5.129  19.644  0.00  0.00    +0.000 C 
ENDROOT
BRANCH   1   2
ATOM      2  O   UNL     1       1.691   4.944  18.261  0.00  0.00    +0.000 OA
ATOM      3  H   UNL     1       1.836   5.794  17.798  0.00  0.00    +0.000 HD
ENDBRANCH   1   2
BRANCH   1   4
ATOM      4  C   UNL     1       2.904   6.370  19.906  0.00  0.00    +0.000 C 
BRANCH   4  15
ATOM      5  C   UNL     1       3.516   7.598  17.215  0.00  0.00    +0.000 C 
ATOM      6  C   UNL     1       2.542   8.231  18.177  0.00  0.00    +0.000 A 
ATOM      7  C   UNL     1       1.923   9.370  17.802  0.00  0.00    +0.000 A 
ATOM      8  C   UNL     1       0.932  10.027  18.688  0.00  0.00    +0.000 A 
ATOM      9  O   UNL     1       0.339  11.056  18.398  0.00  0.00    +0.000 OA
ATOM     10  N   UNL     1       0.726   9.354  19.891  0.00  0.00    +0.000 N 
ATOM     11  N   UNL     1      -0.147   9.742  20.853  0.00  0.00    +0.000 NA
ATOM     12  C   UNL     1       0.037   8.794  21.771  0.00  0.00    +0.000 A 
ATOM     13  N   UNL     1       0.970   7.839  21.467  0.00  0.00    +0.000 NA
ATOM     14  C   UNL     1       1.370   8.194  20.269  0.00  0.00    +0.000 A 
ATOM     15  N   UNL     1       2.280   7.624  19.422  0.00  0.00    +0.000 N 
ENDBRANCH   4  15
ENDBRANCH   1   4
BRANCH   1  16
ATOM     16  C   UNL     1       2.706   3.850  20.135  0.00  0.00    +0.000 C 
BRANCH  16  17
ATOM     17  O   UNL     1       3.498   3.301  19.089  0.00  0.00    +0.000 OA
BRANCH  17  18
ATOM     18  C   UNL     1       4.891   3.555  19.270  0.00  0.00    +0.000 C 
BRANCH  18  19
ATOM     19  C   UNL     1       5.395   4.205  18.007  0.00  0.00    +0.000 A 
ATOM     20  C   UNL     1       4.767   3.865  16.793  0.00  0.00    +0.000 A 
ATOM     21  C   UNL     1       5.186   4.421  15.582  0.00  0.00    +0.000 A 
ATOM     22  C   UNL     1       6.235   5.332  15.566  0.00  0.00    +0.000 A 
ATOM     23  C   UNL     1       6.868   5.684  16.759  0.00  0.00    +0.000 A 
ATOM     24  C   UNL     1       6.452   5.125  17.973  0.00  0.00    +0.000 A 
ATOM     25 CL   UNL     1       7.297   5.616  19.397  0.00  0.00    +0.000 Cl
ENDBRANCH  18  19
ENDBRANCH  17  18
ENDBRANCH  16  17
ENDBRANCH   1  16
TORSDOF 7
ENDMDL
MODEL 4
REMARK VINA RESULT:      -6.8      3.076      6.419
REMARK  Name = 
REMARK  8 active torsions:
REMARK  status: ('A' for Active; 'I' for Inactive)
REMARK    1  A    between atoms: C_1  and  C_2
REMARK    2  A    between atoms: N_11  and  C_12
REMARK    3  A    between atoms: C_12  and  C_13
REMARK    4  A    between atoms: C_13  and  O_14
REMARK    5  A    between atoms: C_13  and  C_15
REMARK    6  A    between atoms: C_15  and  O_16
REMARK    7  A    between atoms: O_16  and  C_17
REMARK    8  A    between atoms: C_17  and  C_18
REMARK                            x       y       z     vdW  Elec       q    Type
REMARK                         _______ _______ _______ _____ _____    ______ ____
ROOT
ATOM      1  C   UNL     1       2.576   3.385  19.860  0.00  0.00    +0.000 C 
ENDROOT
BRANCH   1   2
ATOM      2  O   UNL     1       1.896   2.149  20.113  0.00  0.00    +0.000 OA
ATOM      3  H   UNL     1       1.186   2.049  19.446  0.00  0.00    +0.000 HD
ENDBRANCH   1   2
BRANCH   1   4
ATOM      4  C   UNL     1       4.106   3.219  19.685  0.00  0.00    +0.000 C 
BRANCH   4  15
ATOM      5  C   UNL     1       2.789   3.157  16.968  0.00  0.00    +0.000 C 
ATOM      6  C   UNL     1       4.042   3.956  17.229  0.00  0.00    +0.000 A 
ATOM      7  C   UNL     1       4.567   4.670  16.211  0.00  0.00    +0.000 A 
ATOM      8  C   UNL     1       5.780   5.499  16.408  0.00  0.00    +0.000 A 
ATOM      9  O   UNL     1       6.296   6.169  15.524  0.00  0.00    +0.000 OA
ATOM     10  N   UNL     1       6.281   5.457  17.708  0.00  0.00    +0.000 N 
ATOM     11  N   UNL     1       7.364   6.147  18.141  0.00  0.00    +0.000 NA
ATOM     12  C   UNL     1       7.426   5.766  19.416  0.00  0.00    +0.000 A 
ATOM     13  N   UNL     1       6.467   4.876  19.821  0.00  0.00    +0.000 NA
ATOM     14  C   UNL     1       5.742   4.716  18.739  0.00  0.00    +0.000 A 
ATOM     15  N   UNL     1       4.624   3.962  18.513  0.00  0.00    +0.000 N 
ENDBRANCH   4  15
ENDBRANCH   1   4
BRANCH   1  16
ATOM     16  C   UNL     1       2.260   4.336  21.022  0.00  0.00    +0.000 C 
BRANCH  16  17
ATOM     17  O   UNL     1       1.720   5.550  20.515  0.00  0.00    +0.000 OA
BRANCH  17  18
ATOM     18  C   UNL     1       2.715   6.561  20.349  0.00  0.00    +0.000 C 
BRANCH  18  19
ATOM     19  C   UNL     1       2.057   7.726  19.655  0.00  0.00    +0.000 A 
ATOM     20  C   UNL     1       2.225   7.845  18.261  0.00  0.00    +0.000 A 
ATOM     21  C   UNL     1       1.652   8.903  17.553  0.00  0.00    +0.000 A 
ATOM     22  C   UNL     1       0.897   9.858  18.225  0.00  0.00    +0.000 A 
ATOM     23  C   UNL     1       0.718   9.755  19.605  0.00  0.00    +0.000 A 
ATOM     24  C   UNL     1       1.293   8.696  20.318  0.00  0.00    +0.000 A 
ATOM     25 CL   UNL     1       1.022   8.654  22.023  0.00  0.00    +0.000 Cl
ENDBRANCH  18  19
ENDBRANCH  17  18
ENDBRANCH  16  17
ENDBRANCH   1  16
TORSDOF 7
ENDMDL
MODEL 5
REMARK VINA RESULT:      -6.7      3.278      5.619
REMARK  Name = 
REMARK  8 active torsions:
REMARK  status: ('A' for Active; 'I' for Inactive)
REMARK    1  A    between atoms: C_1  and  C_2
REMARK    2  A    between atoms: N_11  and  C_12
REMARK    3  A    between atoms: C_12  and  C_13
REMARK    4  A    between atoms: C_13  and  O_14
REMARK    5  A    between atoms: C_13  and  C_15
REMARK    6  A    between atoms: C_15  and  O_16
REMARK    7  A    between atoms: O_16  and  C_17
REMARK    8  A    between atoms: C_17  and  C_18
REMARK                            x       y       z     vdW  Elec       q    Type
REMARK                         _______ _______ _______ _____ _____    ______ ____
ROOT
ATOM      1  C   UNL     1       5.229   4.354  17.678  0.00  0.00    +0.000 C 
ENDROOT
BRANCH   1   2
ATOM      2  O   UNL     1       6.439   3.874  17.079  0.00  0.00    +0.000 OA
ATOM      3  H   UNL     1       6.439   4.140  16.137  0.00  0.00    +0.000 HD
ENDBRANCH   1   2
BRANCH   1   4
ATOM      4  C   UNL     1       4.009   3.435  17.418  0.00  0.00    +0.000 C 
BRANCH   4  15
ATOM      5  C   UNL     1       1.130   4.332  17.577  0.00  0.00    +0.000 C 
ATOM      6  C   UNL     1       1.824   3.667  18.741  0.00  0.00    +0.000 A 
ATOM      7  C   UNL     1       1.117   3.462  19.872  0.00  0.00    +0.000 A 
ATOM      8  C   UNL     1       1.730   2.788  21.041  0.00  0.00    +0.000 A 
ATOM      9  O   UNL     1       1.137   2.572  22.088  0.00  0.00    +0.000 OA
ATOM     10  N   UNL     1       3.055   2.407  20.836  0.00  0.00    +0.000 N 
ATOM     11  N   UNL     1       3.821   1.755  21.745  0.00  0.00    +0.000 NA
ATOM     12  C   UNL     1       4.971   1.637  21.082  0.00  0.00    +0.000 A 
ATOM     13  N   UNL     1       4.994   2.176  19.823  0.00  0.00    +0.000 NA
ATOM     14  C   UNL     1       3.771   2.630  19.678  0.00  0.00    +0.000 A 
ATOM     15  N   UNL     1       3.168   3.259  18.625  0.00  0.00    +0.000 N 
ENDBRANCH   4  15
ENDBRANCH   1   4
BRANCH   1  16
ATOM     16  C   UNL     1       4.972   5.767  17.136  0.00  0.00    +0.000 C 
BRANCH  16  17
ATOM     17  O   UNL     1       4.376   6.568  18.151  0.00  0.00    +0.000 OA
BRANCH  17  18
ATOM     18  C   UNL     1       3.302   7.365  17.653  0.00  0.00    +0.000 C 
BRANCH  18  19
ATOM     19  C   UNL     1       2.441   7.742  18.831  0.00  0.00    +0.000 A 
ATOM     20  C   UNL     1       2.349   6.829  19.901  0.00  0.00    +0.000 A 
ATOM     21  C   UNL     1       1.564   7.106  21.021  0.00  0.00    +0.000 A 
ATOM     22  C   UNL     1       0.863   8.304  21.096  0.00  0.00    +0.000 A 
ATOM     23  C   UNL     1       0.944   9.222  20.049  0.00  0.00    +0.000 A 
ATOM     24  C   UNL     1       1.728   8.945  18.922  0.00  0.00    +0.000 A 
ATOM     25 CL   UNL     1       1.764  10.138  17.673  0.00  0.00    +0.000 Cl
ENDBRANCH  18  19
ENDBRANCH  17  18
ENDBRANCH  16  17
ENDBRANCH   1  16
TORSDOF 7
ENDMDL
MODEL 6
REMARK VINA RESULT:      -6.7      4.114      7.530
REMARK  Name = 
REMARK  8 active torsions:
REMARK  status: ('A' for Active; 'I' for Inactive)
REMARK    1  A    between atoms: C_1  and  C_2
REMARK    2  A    between atoms: N_11  and  C_12
REMARK    3  A    between atoms: C_12  and  C_13
REMARK    4  A    between atoms: C_13  and  O_14
REMARK    5  A    between atoms: C_13  and  C_15
REMARK    6  A    between atoms: C_15  and  O_16
REMARK    7  A    between atoms: O_16  and  C_17
REMARK    8  A    between atoms: C_17  and  C_18
REMARK                            x       y       z     vdW  Elec       q    Type
REMARK                         _______ _______ _______ _____ _____    ______ ____
ROOT
ATOM      1  C   UNL     1       2.461   5.174  19.667  0.00  0.00    +0.000 C 
ENDROOT
BRANCH   1   2
ATOM      2  O   UNL     1       1.478   4.917  20.677  0.00  0.00    +0.000 OA
ATOM      3  H   UNL     1       1.298   5.757  21.148  0.00  0.00    +0.000 HD
ENDBRANCH   1   2
BRANCH   1   4
ATOM      4  C   UNL     1       3.693   4.239  19.758  0.00  0.00    +0.000 C 
BRANCH   4  15
ATOM      5  C   UNL     1       2.660   3.197  17.118  0.00  0.00    +0.000 C 
ATOM      6  C   UNL     1       4.053   3.759  17.264  0.00  0.00    +0.000 A 
ATOM      7  C   UNL     1       4.840   3.804  16.169  0.00  0.00    +0.000 A 
ATOM      8  C   UNL     1       6.209   4.372  16.238  0.00  0.00    +0.000 A 
ATOM      9  O   UNL     1       6.963   4.442  15.278  0.00  0.00    +0.000 OA
ATOM     10  N   UNL     1       6.559   4.834  17.505  0.00  0.00    +0.000 N 
ATOM     11  N   UNL     1       7.744   5.415  17.814  0.00  0.00    +0.000 NA
ATOM     12  C   UNL     1       7.585   5.659  19.114  0.00  0.00    +0.000 A 
ATOM     13  N   UNL     1       6.389   5.265  19.655  0.00  0.00    +0.000 NA
ATOM     14  C   UNL     1       5.749   4.774  18.620  0.00  0.00    +0.000 A 
ATOM     15  N   UNL     1       4.496   4.239  18.513  0.00  0.00    +0.000 N 
ENDBRANCH   4  15
ENDBRANCH   1   4
BRANCH   1  16
ATOM     16  C   UNL     1       2.883   6.645  19.791  0.00  0.00    +0.000 C 
BRANCH  16  17
ATOM     17  O   UNL     1       1.734   7.481  19.714  0.00  0.00    +0.000 OA
BRANCH  17  18
ATOM     18  C   UNL     1       1.446   8.124  20.956  0.00  0.00    +0.000 C 
BRANCH  18  19
ATOM     19  C   UNL     1       0.627   9.350  20.644  0.00  0.00    +0.000 A 
ATOM     20  C   UNL     1       0.606   9.810  19.312  0.00  0.00    +0.000 A 
ATOM     21  C   UNL     1      -0.124  10.944  18.951  0.00  0.00    +0.000 A 
ATOM     22  C   UNL     1      -0.851  11.635  19.914  0.00  0.00    +0.000 A 
ATOM     23  C   UNL     1      -0.844  11.193  21.237  0.00  0.00    +0.000 A 
ATOM     24  C   UNL     1      -0.111  10.058  21.603  0.00  0.00    +0.000 A 
ATOM     25 CL   UNL     1      -0.158   9.589  23.264  0.00  0.00    +0.000 Cl
ENDBRANCH  18  19
ENDBRANCH  17  18
ENDBRANCH  16  17
ENDBRANCH   1  16
TORSDOF 7
ENDMDL
MODEL 7
REMARK VINA RESULT:      -6.7      3.302      6.905
REMARK  Name = 
REMARK  8 active torsions:
REMARK  status: ('A' for Active; 'I' for Inactive)
REMARK    1  A    between atoms: C_1  and  C_2
REMARK    2  A    between atoms: N_11  and  C_12
REMARK    3  A    between atoms: C_12  and  C_13
REMARK    4  A    between atoms: C_13  and  O_14
REMARK    5  A    between atoms: C_13  and  C_15
REMARK    6  A    between atoms: C_15  and  O_16
REMARK    7  A    between atoms: O_16  and  C_17
REMARK    8  A    between atoms: C_17  and  C_18
REMARK                            x       y       z     vdW  Elec       q    Type
REMARK                         _______ _______ _______ _____ _____    ______ ____
ROOT
ATOM      1  C   UNL     1       2.772   4.391  20.008  0.00  0.00    +0.000 C 
ENDROOT
BRANCH   1   2
ATOM      2  O   UNL     1       2.274   4.192  21.337  0.00  0.00    +0.000 OA
ATOM      3  H   UNL     1       2.743   4.811  21.933  0.00  0.00    +0.000 HD
ENDBRANCH   1   2
BRANCH   1   4
ATOM      4  C   UNL     1       4.138   3.705  19.755  0.00  0.00    +0.000 C 
BRANCH   4  15
ATOM      5  C   UNL     1       2.903   3.151  17.056  0.00  0.00    +0.000 C 
ATOM      6  C   UNL     1       4.213   3.886  17.198  0.00  0.00    +0.000 A 
ATOM      7  C   UNL     1       4.829   4.313  16.076  0.00  0.00    +0.000 A 
ATOM      8  C   UNL     1       6.104   5.067  16.147  0.00  0.00    +0.000 A 
ATOM      9  O   UNL     1       6.703   5.483  15.165  0.00  0.00    +0.000 OA
ATOM     10  N   UNL     1       6.559   5.273  17.448  0.00  0.00    +0.000 N 
ATOM     11  N   UNL     1       7.686   5.954  17.772  0.00  0.00    +0.000 NA
ATOM     12  C   UNL     1       7.675   5.860  19.102  0.00  0.00    +0.000 A 
ATOM     13  N   UNL     1       6.630   5.159  19.644  0.00  0.00    +0.000 NA
ATOM     14  C   UNL     1       5.927   4.823  18.588  0.00  0.00    +0.000 A 
ATOM     15  N   UNL     1       4.754   4.128  18.476  0.00  0.00    +0.000 N 
ENDBRANCH   4  15
ENDBRANCH   1   4
BRANCH   1  16
ATOM     16  C   UNL     1       2.869   5.904  19.769  0.00  0.00    +0.000 C 
BRANCH  16  17
ATOM     17  O   UNL     1       1.690   6.541  20.247  0.00  0.00    +0.000 OA
BRANCH  17  18
ATOM     18  C   UNL     1       1.957   7.824  20.813  0.00  0.00    +0.000 C 
BRANCH  18  19
ATOM     19  C   UNL     1       1.083   8.820  20.095  0.00  0.00    +0.000 A 
ATOM     20  C   UNL     1       0.016   9.400  20.811  0.00  0.00    +0.000 A 
ATOM     21  C   UNL     1      -0.840  10.324  20.209  0.00  0.00    +0.000 A 
ATOM     22  C   UNL     1      -0.641  10.689  18.882  0.00  0.00    +0.000 A 
ATOM     23  C   UNL     1       0.411  10.128  18.158  0.00  0.00    +0.000 A 
ATOM     24  C   UNL     1       1.269   9.199  18.759  0.00  0.00    +0.000 A 
ATOM     25 CL   UNL     1       2.541   8.554  17.784  0.00  0.00    +0.000 Cl
ENDBRANCH  18  19
ENDBRANCH  17  18
ENDBRANCH  16  17
ENDBRANCH   1  16
TORSDOF 7
ENDMDL
MODEL 8
REMARK VINA RESULT:      -6.6      4.197      7.769
REMARK  Name = 
REMARK  8 active torsions:
REMARK  status: ('A' for Active; 'I' for Inactive)
REMARK    1  A    between atoms: C_1  and  C_2
REMARK    2  A    between atoms: N_11  and  C_12
REMARK    3  A    between atoms: C_12  and  C_13
REMARK    4  A    between atoms: C_13  and  O_14
REMARK    5  A    between atoms: C_13  and  C_15
REMARK    6  A    between atoms: C_15  and  O_16
REMARK    7  A    between atoms: O_16  and  C_17
REMARK    8  A    between atoms: C_17  and  C_18
REMARK                            x       y       z     vdW  Elec       q    Type
REMARK                         _______ _______ _______ _____ _____    ______ ____
ROOT
ATOM      1  C   UNL     1       2.823   5.457  19.503  0.00  0.00    +0.000 C 
ENDROOT
BRANCH   1   2
ATOM      2  O   UNL     1       2.262   5.520  20.820  0.00  0.00    +0.000 OA
ATOM      3  H   UNL     1       1.770   4.689  20.982  0.00  0.00    +0.000 HD
ENDBRANCH   1   2
BRANCH   1   4
ATOM      4  C   UNL     1       4.336   5.123  19.496  0.00  0.00    +0.000 C 
BRANCH   4  15
ATOM      5  C   UNL     1       3.176   2.993  17.697  0.00  0.00    +0.000 C 
ATOM      6  C   UNL     1       4.336   3.857  17.266  0.00  0.00    +0.000 A 
ATOM      7  C   UNL     1       4.847   3.668  16.031  0.00  0.00    +0.000 A 
ATOM      8  C   UNL     1       5.968   4.503  15.535  0.00  0.00    +0.000 A 
ATOM      9  O   UNL     1       6.467   4.379  14.426  0.00  0.00    +0.000 OA
ATOM     10  N   UNL     1       6.400   5.459  16.452  0.00  0.00    +0.000 N 
ATOM     11  N   UNL     1       7.392   6.355  16.222  0.00  0.00    +0.000 NA
ATOM     12  C   UNL     1       7.420   7.016  17.379  0.00  0.00    +0.000 A 
ATOM     13  N   UNL     1       6.526   6.598  18.329  0.00  0.00    +0.000 NA
ATOM     14  C   UNL     1       5.877   5.637  17.715  0.00  0.00    +0.000 A 
ATOM     15  N   UNL     1       4.846   4.843  18.134  0.00  0.00    +0.000 N 
ENDBRANCH   4  15
ENDBRANCH   1   4
BRANCH   1  16
ATOM     16  C   UNL     1       2.558   6.806  18.820  0.00  0.00    +0.000 C 
BRANCH  16  17
ATOM     17  O   UNL     1       2.304   7.800  19.805  0.00  0.00    +0.000 OA
BRANCH  17  18
ATOM     18  C   UNL     1       1.539   8.891  19.291  0.00  0.00    +0.000 C 
BRANCH  18  19
ATOM     19  C   UNL     1       0.794   9.500  20.451  0.00  0.00    +0.000 A 
ATOM     20  C   UNL     1       0.292   8.633  21.443  0.00  0.00    +0.000 A 
ATOM     21  C   UNL     1      -0.415   9.125  22.541  0.00  0.00    +0.000 A 
ATOM     22  C   UNL     1      -0.629  10.492  22.671  0.00  0.00    +0.000 A 
ATOM     23  C   UNL     1      -0.137  11.367  21.701  0.00  0.00    +0.000 A 
ATOM     24  C   UNL     1       0.570  10.876  20.597  0.00  0.00    +0.000 A 
ATOM     25 CL   UNL     1       1.135  12.032  19.445  0.00  0.00    +0.000 Cl
ENDBRANCH  18  19
ENDBRANCH  17  18
ENDBRANCH  16  17
ENDBRANCH   1  16
TORSDOF 7
ENDMDL
MODEL 9
REMARK VINA RESULT:      -6.6      4.840      7.481
REMARK  Name = 
REMARK  8 active torsions:
REMARK  status: ('A' for Active; 'I' for Inactive)
REMARK    1  A    between atoms: C_1  and  C_2
REMARK    2  A    between atoms: N_11  and  C_12
REMARK    3  A    between atoms: C_12  and  C_13
REMARK    4  A    between atoms: C_13  and  O_14
REMARK    5  A    between atoms: C_13  and  C_15
REMARK    6  A    between atoms: C_15  and  O_16
REMARK    7  A    between atoms: O_16  and  C_17
REMARK    8  A    between atoms: C_17  and  C_18
REMARK                            x       y       z     vdW  Elec       q    Type
REMARK                         _______ _______ _______ _____ _____    ______ ____
ROOT
ATOM      1  C   UNL     1       2.744   7.335  18.682  0.00  0.00    +0.000 C 
ENDROOT
BRANCH   1   2
ATOM      2  O   UNL     1       3.161   8.159  17.587  0.00  0.00    +0.000 OA
ATOM      3  H   UNL     1       4.128   8.054  17.477  0.00  0.00    +0.000 HD
ENDBRANCH   1   2
BRANCH   1   4
ATOM      4  C   UNL     1       2.182   5.961  18.238  0.00  0.00    +0.000 C 
BRANCH   4  15
ATOM      5  C   UNL     1       4.774   5.119  16.936  0.00  0.00    +0.000 C 
ATOM      6  C   UNL     1       4.218   4.403  18.142  0.00  0.00    +0.000 A 
ATOM      7  C   UNL     1       4.920   3.369  18.649  0.00  0.00    +0.000 A 
ATOM      8  C   UNL     1       4.444   2.642  19.851  0.00  0.00    +0.000 A 
ATOM      9  O   UNL     1       5.041   1.702  20.356  0.00  0.00    +0.000 OA
ATOM     10  N   UNL     1       3.248   3.137  20.367  0.00  0.00    +0.000 N 
ATOM     11  N   UNL     1       2.627   2.657  21.472  0.00  0.00    +0.000 NA
ATOM     12  C   UNL     1       1.554   3.445  21.532  0.00  0.00    +0.000 A 
ATOM     13  N   UNL     1       1.444   4.383  20.540  0.00  0.00    +0.000 NA
ATOM     14  C   UNL     1       2.534   4.190  19.835  0.00  0.00    +0.000 A 
ATOM     15  N   UNL     1       3.007   4.830  18.723  0.00  0.00    +0.000 N 
ENDBRANCH   4  15
ENDBRANCH   1   4
BRANCH   1  16
ATOM     16  C   UNL     1       1.695   8.120  19.482  0.00  0.00    +0.000 C 
BRANCH  16  17
ATOM     17  O   UNL     1       1.291   9.268  18.745  0.00  0.00    +0.000 OA
BRANCH  17  18
ATOM     18  C   UNL     1       0.615  10.226  19.560  0.00  0.00    +0.000 C 
BRANCH  18  19
ATOM     19  C   UNL     1      -0.690  10.551  18.878  0.00  0.00    +0.000 A 
ATOM     20  C   UNL     1      -0.960   9.935  17.640  0.00  0.00    +0.000 A 
ATOM     21  C   UNL     1      -2.144  10.194  16.947  0.00  0.00    +0.000 A 
ATOM     22  C   UNL     1      -3.083  11.068  17.484  0.00  0.00    +0.000 A 
ATOM     23  C   UNL     1      -2.834  11.685  18.711  0.00  0.00    +0.000 A 
ATOM     24  C   UNL     1      -1.646  11.429  19.406  0.00  0.00    +0.000 A 
ATOM     25 CL   UNL     1      -1.423  12.242  20.913  0.00  0.00    +0.000 Cl
ENDBRANCH  18  19
ENDBRANCH  17  18
ENDBRANCH  16  17
ENDBRANCH   1  16
TORSDOF 7
ENDMDL
