MODEL 1
REMARK VINA RESULT:      -7.9      0.000      0.000
REMARK  Name = 
REMARK  7 active torsions:
REMARK  status: ('A' for Active; 'I' for Inactive)
REMARK    1  A    between atoms: C_1  and  C_2
REMARK    2  A    between atoms: C_7  and  O_8
REMARK    3  A    between atoms: O_8  and  C_9
REMARK    4  A    between atoms: C_9  and  C_10
REMARK    5  A    between atoms: N_12  and  C_13
REMARK    6  A    between atoms: C_16  and  S_17
REMARK    7  A    between atoms: S_17  and  N_20
REMARK                            x       y       z     vdW  Elec       q    Type
REMARK                         _______ _______ _______ _____ _____    ______ ____
ROOT
ATOM      1  C   UNL     1       2.463   7.202  19.374  0.00  0.00    +0.000 A 
ATOM      2  C   UNL     1       1.782   7.528  20.552  0.00  0.00    +0.000 A 
ATOM      3  C   UNL     1       1.048   8.716  20.626  0.00  0.00    +0.000 A 
ATOM      4  C   UNL     1       0.965   9.552  19.516  0.00  0.00    +0.000 A 
ATOM      5  C   UNL     1       1.589   9.199  18.312  0.00  0.00    +0.000 A 
ATOM      6  C   UNL     1       2.367   8.036  18.255  0.00  0.00    +0.000 A 
ENDROOT
BRANCH   1   9
ATOM      7  C   UNL     1       2.946   4.907  18.679  0.00  0.00    +0.000 C 
ATOM      8  O   UNL     1       1.877   4.728  18.095  0.00  0.00    +0.000 OA
ATOM      9  N   UNL     1       3.309   6.080  19.328  0.00  0.00    +0.000 N 
ATOM     10  H   UNL     1       4.305   6.247  19.420  0.00  0.00    +0.000 HD
BRANCH   7  11
ATOM     11  C   UNL     1       4.017   3.816  18.750  0.00  0.00    +0.000 C 
BRANCH  11  12
ATOM     12  O   UNL     1       5.012   3.984  17.761  0.00  0.00    +0.000 OA
BRANCH  12  19
ATOM     13  C   UNL     1       5.106   6.511  15.840  0.00  0.00    +0.000 C 
ATOM     14  C   UNL     1       5.988   6.182  17.011  0.00  0.00    +0.000 A 
ATOM     15  C   UNL     1       7.005   7.121  17.291  0.00  0.00    +0.000 A 
ATOM     16  C   UNL     1       7.909   6.947  18.344  0.00  0.00    +0.000 A 
ATOM     17  C   UNL     1       7.799   5.827  19.145  0.00  0.00    +0.000 A 
ATOM     18  C   UNL     1       6.796   4.887  18.889  0.00  0.00    +0.000 A 
ATOM     19  C   UNL     1       5.884   5.041  17.826  0.00  0.00    +0.000 A 
ENDBRANCH  12  19
ENDBRANCH  11  12
ENDBRANCH   7  11
ENDBRANCH   1   9
BRANCH   4  20
ATOM     20  S   UNL     1      -0.007  11.052  19.615  0.00  0.00    +0.000 S 
ATOM     21  O   UNL     1      -1.051  10.810  20.587  0.00  0.00    +0.000 OA
ATOM     22  O   UNL     1       0.941  12.139  19.829  0.00  0.00    +0.000 OA
BRANCH  20  23
ATOM     23  N   UNL     1      -0.663  11.192  18.135  0.00  0.00    +0.000 NA
ATOM     24  C   UNL     1      -1.751  11.858  17.963  0.00  0.00    +0.000 C 
ATOM     25  N   UNL     1      -2.492  12.550  18.864  0.00  0.00    +0.000 N 
ATOM     26  N   UNL     1      -2.339  11.904  16.746  0.00  0.00    +0.000 N 
ATOM     27  H   UNL     1      -2.008  12.772  19.736  0.00  0.00    +0.000 HD
ATOM     28  H   UNL     1      -3.013  13.344  18.523  0.00  0.00    +0.000 HD
ATOM     29  H   UNL     1      -1.826  11.511  15.967  0.00  0.00    +0.000 HD
ATOM     30  H   UNL     1      -3.039  12.592  16.525  0.00  0.00    +0.000 HD
ENDBRANCH  20  23
ENDBRANCH   4  20
TORSDOF 6
ENDMDL
MODEL 2
REMARK VINA RESULT:      -7.8      5.263      7.780
REMARK  Name = 
REMARK  7 active torsions:
REMARK  status: ('A' for Active; 'I' for Inactive)
REMARK    1  A    between atoms: C_1  and  C_2
REMARK    2  A    between atoms: C_7  and  O_8
REMARK    3  A    between atoms: O_8  and  C_9
REMARK    4  A    between atoms: C_9  and  C_10
REMARK    5  A    between atoms: N_12  and  C_13
REMARK    6  A    between atoms: C_16  and  S_17
REMARK    7  A    between atoms: S_17  and  N_20
REMARK                            x       y       z     vdW  Elec       q    Type
REMARK                         _______ _______ _______ _____ _____    ______ ____
ROOT
ATOM      1  C   UNL     1       5.737   6.627  17.113  0.00  0.00    +0.000 A 
ATOM      2  C   UNL     1       6.078   5.413  16.508  0.00  0.00    +0.000 A 
ATOM      3  C   UNL     1       5.272   4.287  16.701  0.00  0.00    +0.000 A 
ATOM      4  C   UNL     1       4.111   4.388  17.464  0.00  0.00    +0.000 A 
ATOM      5  C   UNL     1       3.727   5.616  18.017  0.00  0.00    +0.000 A 
ATOM      6  C   UNL     1       4.564   6.729  17.867  0.00  0.00    +0.000 A 
ENDROOT
BRANCH   1   9
ATOM      7  C   UNL     1       7.741   7.834  17.828  0.00  0.00    +0.000 C 
ATOM      8  O   UNL     1       8.096   7.000  18.661  0.00  0.00    +0.000 OA
ATOM      9  N   UNL     1       6.606   7.730  17.034  0.00  0.00    +0.000 N 
ATOM     10  H   UNL     1       6.628   8.241  16.159  0.00  0.00    +0.000 HD
BRANCH   7  11
ATOM     11  C   UNL     1       8.544   9.112  17.576  0.00  0.00    +0.000 C 
BRANCH  11  12
ATOM     12  O   UNL     1       8.427  10.032  18.641  0.00  0.00    +0.000 OA
BRANCH  12  19
ATOM     13  C   UNL     1       9.017  11.171  21.546  0.00  0.00    +0.000 C 
ATOM     14  C   UNL     1       9.827  11.324  20.289  0.00  0.00    +0.000 A 
ATOM     15  C   UNL     1      11.008  12.087  20.414  0.00  0.00    +0.000 A 
ATOM     16  C   UNL     1      11.859  12.324  19.330  0.00  0.00    +0.000 A 
ATOM     17  C   UNL     1      11.542  11.785  18.097  0.00  0.00    +0.000 A 
ATOM     18  C   UNL     1      10.380  11.023  17.952  0.00  0.00    +0.000 A 
ATOM     19  C   UNL     1       9.506  10.784  19.031  0.00  0.00    +0.000 A 
ENDBRANCH  12  19
ENDBRANCH  11  12
ENDBRANCH   7  11
ENDBRANCH   1   9
BRANCH   4  20
ATOM     20  S   UNL     1       3.069   2.946  17.674  0.00  0.00    +0.000 S 
ATOM     21  O   UNL     1       1.895   3.157  16.856  0.00  0.00    +0.000 OA
ATOM     22  O   UNL     1       3.922   1.789  17.431  0.00  0.00    +0.000 OA
BRANCH  20  23
ATOM     23  N   UNL     1       2.654   2.989  19.245  0.00  0.00    +0.000 NA
ATOM     24  C   UNL     1       3.491   2.624  20.151  0.00  0.00    +0.000 C 
ATOM     25  N   UNL     1       4.777   2.209  20.024  0.00  0.00    +0.000 N 
ATOM     26  N   UNL     1       3.117   2.583  21.450  0.00  0.00    +0.000 N 
ATOM     27  H   UNL     1       5.213   2.436  19.129  0.00  0.00    +0.000 HD
ATOM     28  H   UNL     1       5.402   2.394  20.794  0.00  0.00    +0.000 HD
ATOM     29  H   UNL     1       2.212   2.969  21.685  0.00  0.00    +0.000 HD
ATOM     30  H   UNL     1       3.794   2.535  22.193  0.00  0.00    +0.000 HD
ENDBRANCH  20  23
ENDBRANCH   4  20
TORSDOF 6
ENDMDL
MODEL 3
REMARK VINA RESULT:      -7.7      1.023      1.750
REMARK  Name = 
REMARK  7 active torsions:
REMARK  status: ('A' for Active; 'I' for Inactive)
REMARK    1  A    between atoms: C_1  and  C_2
REMARK    2  A    between atoms: C_7  and  O_8
REMARK    3  A    between atoms: O_8  and  C_9
REMARK    4  A    between atoms: C_9  and  C_10
REMARK    5  A    between atoms: N_12  and  C_13
REMARK    6  A    between atoms: C_16  and  S_17
REMARK    7  A    between atoms: S_17  and  N_20
REMARK                            x       y       z     vdW  Elec       q    Type
REMARK                         _______ _______ _______ _____ _____    ______ ____
ROOT
ATOM      1  C   UNL     1       2.285   7.182  19.749  0.00  0.00    +0.000 A 
ATOM      2  C   UNL     1       1.576   7.523  20.907  0.00  0.00    +0.000 A 
ATOM      3  C   UNL     1       0.868   8.728  20.960  0.00  0.00    +0.000 A 
ATOM      4  C   UNL     1       0.838   9.566  19.848  0.00  0.00    +0.000 A 
ATOM      5  C   UNL     1       1.490   9.199  18.664  0.00  0.00    +0.000 A 
ATOM      6  C   UNL     1       2.243   8.019  18.630  0.00  0.00    +0.000 A 
ENDROOT
BRANCH   1   9
ATOM      7  C   UNL     1       2.641   4.804  19.299  0.00  0.00    +0.000 C 
ATOM      8  O   UNL     1       1.497   4.582  18.904  0.00  0.00    +0.000 OA
ATOM      9  N   UNL     1       3.106   6.041  19.729  0.00  0.00    +0.000 N 
ATOM     10  H   UNL     1       4.106   6.191  19.652  0.00  0.00    +0.000 HD
BRANCH   7  11
ATOM     11  C   UNL     1       3.703   3.704  19.355  0.00  0.00    +0.000 C 
BRANCH  11  12
ATOM     12  O   UNL     1       5.014   4.230  19.354  0.00  0.00    +0.000 OA
BRANCH  12  19
ATOM     13  C   UNL     1       7.800   5.698  18.943  0.00  0.00    +0.000 C 
ATOM     14  C   UNL     1       6.917   5.044  17.918  0.00  0.00    +0.000 A 
ATOM     15  C   UNL     1       7.386   5.096  16.587  0.00  0.00    +0.000 A 
ATOM     16  C   UNL     1       6.669   4.539  15.524  0.00  0.00    +0.000 A 
ATOM     17  C   UNL     1       5.468   3.905  15.781  0.00  0.00    +0.000 A 
ATOM     18  C   UNL     1       4.989   3.837  17.093  0.00  0.00    +0.000 A 
ATOM     19  C   UNL     1       5.692   4.402  18.175  0.00  0.00    +0.000 A 
ENDBRANCH  12  19
ENDBRANCH  11  12
ENDBRANCH   7  11
ENDBRANCH   1   9
BRANCH   4  20
ATOM     20  S   UNL     1      -0.103  11.088  19.920  0.00  0.00    +0.000 S 
ATOM     21  O   UNL     1      -0.929  11.013  21.104  0.00  0.00    +0.000 OA
ATOM     22  O   UNL     1       0.864  12.171  19.779  0.00  0.00    +0.000 OA
BRANCH  20  23
ATOM     23  N   UNL     1      -1.042  11.030  18.595  0.00  0.00    +0.000 NA
ATOM     24  C   UNL     1      -1.945  11.925  18.395  0.00  0.00    +0.000 C 
ATOM     25  N   UNL     1      -2.256  13.019  19.134  0.00  0.00    +0.000 N 
ATOM     26  N   UNL     1      -2.780  11.829  17.335  0.00  0.00    +0.000 N 
ATOM     27  H   UNL     1      -1.538  13.302  19.802  0.00  0.00    +0.000 HD
ATOM     28  H   UNL     1      -2.636  13.816  18.646  0.00  0.00    +0.000 HD
ATOM     29  H   UNL     1      -2.581  11.110  16.651  0.00  0.00    +0.000 HD
ATOM     30  H   UNL     1      -3.325  12.613  17.021  0.00  0.00    +0.000 HD
ENDBRANCH  20  23
ENDBRANCH   4  20
TORSDOF 6
ENDMDL
MODEL 4
REMARK VINA RESULT:      -7.7      1.301      1.484
REMARK  Name = 
REMARK  7 active torsions:
REMARK  status: ('A' for Active; 'I' for Inactive)
REMARK    1  A    between atoms: C_1  and  C_2
REMARK    2  A    between atoms: C_7  and  O_8
REMARK    3  A    between atoms: O_8  and  C_9
REMARK    4  A    between atoms: C_9  and  C_10
REMARK    5  A    between atoms: N_12  and  C_13
REMARK    6  A    between atoms: C_16  and  S_17
REMARK    7  A    between atoms: S_17  and  N_20
REMARK                            x       y       z     vdW  Elec       q    Type
REMARK                         _______ _______ _______ _____ _____    ______ ____
ROOT
ATOM      1  C   UNL     1       2.347   7.394  19.511  0.00  0.00    +0.000 A 
ATOM      2  C   UNL     1       1.589   7.784  20.622  0.00  0.00    +0.000 A 
ATOM      3  C   UNL     1       0.827   8.955  20.568  0.00  0.00    +0.000 A 
ATOM      4  C   UNL     1       0.795   9.710  19.399  0.00  0.00    +0.000 A 
ATOM      5  C   UNL     1       1.497   9.291  18.262  0.00  0.00    +0.000 A 
ATOM      6  C   UNL     1       2.302   8.147  18.334  0.00  0.00    +0.000 A 
ENDROOT
BRANCH   1   9
ATOM      7  C   UNL     1       3.023   5.140  18.846  0.00  0.00    +0.000 C 
ATOM      8  O   UNL     1       2.097   4.962  18.054  0.00  0.00    +0.000 OA
ATOM      9  N   UNL     1       3.217   6.293  19.595  0.00  0.00    +0.000 N 
ATOM     10  H   UNL     1       4.170   6.477  19.889  0.00  0.00    +0.000 HD
BRANCH   7  11
ATOM     11  C   UNL     1       4.091   4.071  19.090  0.00  0.00    +0.000 C 
BRANCH  11  12
ATOM     12  O   UNL     1       5.111   4.106  18.114  0.00  0.00    +0.000 OA
BRANCH  12  19
ATOM     13  C   UNL     1       5.003   6.521  16.054  0.00  0.00    +0.000 C 
ATOM     14  C   UNL     1       5.986   6.268  17.162  0.00  0.00    +0.000 A 
ATOM     15  C   UNL     1       7.009   7.232  17.301  0.00  0.00    +0.000 A 
ATOM     16  C   UNL     1       8.002   7.126  18.281  0.00  0.00    +0.000 A 
ATOM     17  C   UNL     1       7.977   6.052  19.150  0.00  0.00    +0.000 A 
ATOM     18  C   UNL     1       6.970   5.089  19.033  0.00  0.00    +0.000 A 
ATOM     19  C   UNL     1       5.969   5.173  18.045  0.00  0.00    +0.000 A 
ENDBRANCH  12  19
ENDBRANCH  11  12
ENDBRANCH   7  11
ENDBRANCH   1   9
BRANCH   4  20
ATOM     20  S   UNL     1      -0.213  11.189  19.334  0.00  0.00    +0.000 S 
ATOM     21  O   UNL     1      -1.059  11.068  18.167  0.00  0.00    +0.000 OA
ATOM     22  O   UNL     1      -0.817  11.328  20.654  0.00  0.00    +0.000 OA
BRANCH  20  23
ATOM     23  N   UNL     1       0.863  12.386  19.105  0.00  0.00    +0.000 NA
ATOM     24  C   UNL     1       0.463  13.593  18.907  0.00  0.00    +0.000 C 
ATOM     25  N   UNL     1      -0.797  14.095  18.888  0.00  0.00    +0.000 N 
ATOM     26  N   UNL     1       1.356  14.572  18.636  0.00  0.00    +0.000 N 
ATOM     27  H   UNL     1      -1.503  13.494  19.316  0.00  0.00    +0.000 HD
ATOM     28  H   UNL     1      -0.917  15.057  19.168  0.00  0.00    +0.000 HD
ATOM     29  H   UNL     1       2.338  14.343  18.724  0.00  0.00    +0.000 HD
ATOM     30  H   UNL     1       1.111  15.545  18.711  0.00  0.00    +0.000 HD
ENDBRANCH  20  23
ENDBRANCH   4  20
TORSDOF 6
ENDMDL
MODEL 5
REMARK VINA RESULT:      -7.6      1.162      2.036
REMARK  Name = 
REMARK  7 active torsions:
REMARK  status: ('A' for Active; 'I' for Inactive)
REMARK    1  A    between atoms: C_1  and  C_2
REMARK    2  A    between atoms: C_7  and  O_8
REMARK    3  A    between atoms: O_8  and  C_9
REMARK    4  A    between atoms: C_9  and  C_10
REMARK    5  A    between atoms: N_12  and  C_13
REMARK    6  A    between atoms: C_16  and  S_17
REMARK    7  A    between atoms: S_17  and  N_20
REMARK                            x       y       z     vdW  Elec       q    Type
REMARK                         _______ _______ _______ _____ _____    ______ ____
ROOT
ATOM      1  C   UNL     1       2.651   7.063  19.048  0.00  0.00    +0.000 A 
ATOM      2  C   UNL     1       2.631   7.981  17.993  0.00  0.00    +0.000 A 
ATOM      3  C   UNL     1       1.877   9.153  18.103  0.00  0.00    +0.000 A 
ATOM      4  C   UNL     1       1.179   9.422  19.278  0.00  0.00    +0.000 A 
ATOM      5  C   UNL     1       1.248   8.540  20.364  0.00  0.00    +0.000 A 
ATOM      6  C   UNL     1       1.960   7.341  20.232  0.00  0.00    +0.000 A 
ENDROOT
BRANCH   1   9
ATOM      7  C   UNL     1       2.704   4.755  18.239  0.00  0.00    +0.000 C 
ATOM      8  O   UNL     1       1.583   4.778  17.729  0.00  0.00    +0.000 OA
ATOM      9  N   UNL     1       3.297   5.823  18.901  0.00  0.00    +0.000 N 
ATOM     10  H   UNL     1       4.311   5.823  18.924  0.00  0.00    +0.000 HD
BRANCH   7  11
ATOM     11  C   UNL     1       3.585   3.505  18.191  0.00  0.00    +0.000 C 
BRANCH  11  12
ATOM     12  O   UNL     1       4.952   3.812  18.369  0.00  0.00    +0.000 OA
BRANCH  12  19
ATOM     13  C   UNL     1       7.282   5.967  18.473  0.00  0.00    +0.000 C 
ATOM     14  C   UNL     1       6.739   5.220  17.287  0.00  0.00    +0.000 A 
ATOM     15  C   UNL     1       7.341   5.524  16.047  0.00  0.00    +0.000 A 
ATOM     16  C   UNL     1       6.936   4.915  14.855  0.00  0.00    +0.000 A 
ATOM     17  C   UNL     1       5.922   3.977  14.890  0.00  0.00    +0.000 A 
ATOM     18  C   UNL     1       5.316   3.657  16.108  0.00  0.00    +0.000 A 
ATOM     19  C   UNL     1       5.704   4.268  17.317  0.00  0.00    +0.000 A 
ENDBRANCH  12  19
ENDBRANCH  11  12
ENDBRANCH   7  11
ENDBRANCH   1   9
BRANCH   4  20
ATOM     20  S   UNL     1       0.246  10.944  19.418  0.00  0.00    +0.000 S 
ATOM     21  O   UNL     1      -0.422  10.908  20.700  0.00  0.00    +0.000 OA
ATOM     22  O   UNL     1       1.180  12.023  19.119  0.00  0.00    +0.000 OA
BRANCH  20  23
ATOM     23  N   UNL     1      -0.855  10.839  18.227  0.00  0.00    +0.000 NA
ATOM     24  C   UNL     1      -1.311  11.902  17.664  0.00  0.00    +0.000 C 
ATOM     25  N   UNL     1      -0.987  13.202  17.880  0.00  0.00    +0.000 N 
ATOM     26  N   UNL     1      -2.287  11.817  16.731  0.00  0.00    +0.000 N 
ATOM     27  H   UNL     1      -0.107  13.346  18.377  0.00  0.00    +0.000 HD
ATOM     28  H   UNL     1      -1.074  13.837  17.100  0.00  0.00    +0.000 HD
ATOM     29  H   UNL     1      -2.542  10.892  16.409  0.00  0.00    +0.000 HD
ATOM     30  H   UNL     1      -2.494  12.583  16.113  0.00  0.00    +0.000 HD
ENDBRANCH  20  23
ENDBRANCH   4  20
TORSDOF 6
ENDMDL
MODEL 6
REMARK VINA RESULT:      -7.6      4.971      7.143
REMARK  Name = 
REMARK  7 active torsions:
REMARK  status: ('A' for Active; 'I' for Inactive)
REMARK    1  A    between atoms: C_1  and  C_2
REMARK    2  A    between atoms: C_7  and  O_8
REMARK    3  A    between atoms: O_8  and  C_9
REMARK    4  A    between atoms: C_9  and  C_10
REMARK    5  A    between atoms: N_12  and  C_13
REMARK    6  A    between atoms: C_16  and  S_17
REMARK    7  A    between atoms: S_17  and  N_20
REMARK                            x       y       z     vdW  Elec       q    Type
REMARK                         _______ _______ _______ _____ _____    ______ ____
ROOT
ATOM      1  C   UNL     1       5.355   6.283  17.254  0.00  0.00    +0.000 A 
ATOM      2  C   UNL     1       5.680   4.963  16.923  0.00  0.00    +0.000 A 
ATOM      3  C   UNL     1       4.789   3.929  17.227  0.00  0.00    +0.000 A 
ATOM      4  C   UNL     1       3.564   4.221  17.822  0.00  0.00    +0.000 A 
ATOM      5  C   UNL     1       3.203   5.546  18.095  0.00  0.00    +0.000 A 
ATOM      6  C   UNL     1       4.119   6.575  17.839  0.00  0.00    +0.000 A 
ENDROOT
BRANCH   1   9
ATOM      7  C   UNL     1       7.460   7.391  17.827  0.00  0.00    +0.000 C 
ATOM      8  O   UNL     1       7.783   6.592  18.706  0.00  0.00    +0.000 OA
ATOM      9  N   UNL     1       6.295   7.314  17.074  0.00  0.00    +0.000 N 
ATOM     10  H   UNL     1       6.323   7.761  16.164  0.00  0.00    +0.000 HD
BRANCH   7  11
ATOM     11  C   UNL     1       8.340   8.588  17.462  0.00  0.00    +0.000 C 
BRANCH  11  12
ATOM     12  O   UNL     1       7.881   9.785  18.057  0.00  0.00    +0.000 OA
BRANCH  12  19
ATOM     13  C   UNL     1       7.618  12.783  17.042  0.00  0.00    +0.000 C 
ATOM     14  C   UNL     1       8.702  12.160  17.876  0.00  0.00    +0.000 A 
ATOM     15  C   UNL     1       9.754  13.023  18.254  0.00  0.00    +0.000 A 
ATOM     16  C   UNL     1      10.837  12.585  19.022  0.00  0.00    +0.000 A 
ATOM     17  C   UNL     1      10.877  11.268  19.437  0.00  0.00    +0.000 A 
ATOM     18  C   UNL     1       9.843  10.397  19.080  0.00  0.00    +0.000 A 
ATOM     19  C   UNL     1       8.751  10.818  18.297  0.00  0.00    +0.000 A 
ENDBRANCH  12  19
ENDBRANCH  11  12
ENDBRANCH   7  11
ENDBRANCH   1   9
BRANCH   4  20
ATOM     20  S   UNL     1       2.418   2.890  18.173  0.00  0.00    +0.000 S 
ATOM     21  O   UNL     1       1.090   3.405  17.924  0.00  0.00    +0.000 OA
ATOM     22  O   UNL     1       2.897   1.733  17.427  0.00  0.00    +0.000 OA
BRANCH  20  23
ATOM     23  N   UNL     1       2.608   2.620  19.765  0.00  0.00    +0.000 NA
ATOM     24  C   UNL     1       1.759   3.088  20.611  0.00  0.00    +0.000 C 
ATOM     25  N   UNL     1       0.621   3.794  20.395  0.00  0.00    +0.000 N 
ATOM     26  N   UNL     1       1.962   2.932  21.940  0.00  0.00    +0.000 N 
ATOM     27  H   UNL     1       0.265   3.748  19.439  0.00  0.00    +0.000 HD
ATOM     28  H   UNL     1      -0.124   3.691  21.068  0.00  0.00    +0.000 HD
ATOM     29  H   UNL     1       2.725   2.333  22.226  0.00  0.00    +0.000 HD
ATOM     30  H   UNL     1       1.221   3.070  22.606  0.00  0.00    +0.000 HD
ENDBRANCH  20  23
ENDBRANCH   4  20
TORSDOF 6
ENDMDL
MODEL 7
REMARK VINA RESULT:      -7.6      1.206      1.580
REMARK  Name = 
REMARK  7 active torsions:
REMARK  status: ('A' for Active; 'I' for Inactive)
REMARK    1  A    between atoms: C_1  and  C_2
REMARK    2  A    between atoms: C_7  and  O_8
REMARK    3  A    between atoms: O_8  and  C_9
REMARK    4  A    between atoms: C_9  and  C_10
REMARK    5  A    between atoms: N_12  and  C_13
REMARK    6  A    between atoms: C_16  and  S_17
REMARK    7  A    between atoms: S_17  and  N_20
REMARK                            x       y       z     vdW  Elec       q    Type
REMARK                         _______ _______ _______ _____ _____    ______ ____
ROOT
ATOM      1  C   UNL     1       2.229   7.570  19.430  0.00  0.00    +0.000 A 
ATOM      2  C   UNL     1       1.471   8.034  20.511  0.00  0.00    +0.000 A 
ATOM      3  C   UNL     1       0.714   9.202  20.380  0.00  0.00    +0.000 A 
ATOM      4  C   UNL     1       0.685   9.878  19.163  0.00  0.00    +0.000 A 
ATOM      5  C   UNL     1       1.386   9.382  18.057  0.00  0.00    +0.000 A 
ATOM      6  C   UNL     1       2.187   8.243  18.205  0.00  0.00    +0.000 A 
ENDROOT
BRANCH   1   9
ATOM      7  C   UNL     1       2.931   5.294  18.873  0.00  0.00    +0.000 C 
ATOM      8  O   UNL     1       2.036   5.086  18.053  0.00  0.00    +0.000 OA
ATOM      9  N   UNL     1       3.095   6.474  19.587  0.00  0.00    +0.000 N 
ATOM     10  H   UNL     1       4.036   6.670  19.911  0.00  0.00    +0.000 HD
BRANCH   7  11
ATOM     11  C   UNL     1       3.988   4.236  19.196  0.00  0.00    +0.000 C 
BRANCH  11  12
ATOM     12  O   UNL     1       5.015   4.198  18.228  0.00  0.00    +0.000 OA
BRANCH  12  19
ATOM     13  C   UNL     1       4.972   6.539  16.083  0.00  0.00    +0.000 C 
ATOM     14  C   UNL     1       5.951   6.297  17.196  0.00  0.00    +0.000 A 
ATOM     15  C   UNL     1       7.002   7.234  17.298  0.00  0.00    +0.000 A 
ATOM     16  C   UNL     1       7.995   7.135  18.278  0.00  0.00    +0.000 A 
ATOM     17  C   UNL     1       7.941   6.094  19.186  0.00  0.00    +0.000 A 
ATOM     18  C   UNL     1       6.906   5.158  19.106  0.00  0.00    +0.000 A 
ATOM     19  C   UNL     1       5.905   5.236  18.119  0.00  0.00    +0.000 A 
ENDBRANCH  12  19
ENDBRANCH  11  12
ENDBRANCH   7  11
ENDBRANCH   1   9
BRANCH   4  20
ATOM     20  S   UNL     1      -0.318  11.353  19.000  0.00  0.00    +0.000 S 
ATOM     21  O   UNL     1       0.594  12.458  18.802  0.00  0.00    +0.000 OA
ATOM     22  O   UNL     1      -1.322  11.053  17.986  0.00  0.00    +0.000 OA
BRANCH  20  23
ATOM     23  N   UNL     1      -1.041  11.496  20.449  0.00  0.00    +0.000 NA
ATOM     24  C   UNL     1      -2.018  12.318  20.612  0.00  0.00    +0.000 C 
ATOM     25  N   UNL     1      -2.627  13.128  19.710  0.00  0.00    +0.000 N 
ATOM     26  N   UNL     1      -2.564  12.495  21.837  0.00  0.00    +0.000 N 
ATOM     27  H   UNL     1      -2.451  12.888  18.733  0.00  0.00    +0.000 HD
ATOM     28  H   UNL     1      -3.600  13.344  19.864  0.00  0.00    +0.000 HD
ATOM     29  H   UNL     1      -2.264  11.871  22.574  0.00  0.00    +0.000 HD
ATOM     30  H   UNL     1      -3.460  12.936  21.956  0.00  0.00    +0.000 HD
ENDBRANCH  20  23
ENDBRANCH   4  20
TORSDOF 6
ENDMDL
MODEL 8
REMARK VINA RESULT:      -7.6      3.648      5.292
REMARK  Name = 
REMARK  7 active torsions:
REMARK  status: ('A' for Active; 'I' for Inactive)
REMARK    1  A    between atoms: C_1  and  C_2
REMARK    2  A    between atoms: C_7  and  O_8
REMARK    3  A    between atoms: O_8  and  C_9
REMARK    4  A    between atoms: C_9  and  C_10
REMARK    5  A    between atoms: N_12  and  C_13
REMARK    6  A    between atoms: C_16  and  S_17
REMARK    7  A    between atoms: S_17  and  N_20
REMARK                            x       y       z     vdW  Elec       q    Type
REMARK                         _______ _______ _______ _____ _____    ______ ____
ROOT
ATOM      1  C   UNL     1       0.649   9.382  21.419  0.00  0.00    +0.000 A 
ATOM      2  C   UNL     1       0.566  10.584  20.706  0.00  0.00    +0.000 A 
ATOM      3  C   UNL     1      -0.273  11.606  21.161  0.00  0.00    +0.000 A 
ATOM      4  C   UNL     1      -0.993  11.440  22.341  0.00  0.00    +0.000 A 
ATOM      5  C   UNL     1      -0.863  10.267  23.095  0.00  0.00    +0.000 A 
ATOM      6  C   UNL     1      -0.065   9.223  22.611  0.00  0.00    +0.000 A 
ENDROOT
BRANCH   1   9
ATOM      7  C   UNL     1       1.729   8.213  19.561  0.00  0.00    +0.000 C 
ATOM      8  O   UNL     1       1.435   9.046  18.704  0.00  0.00    +0.000 OA
ATOM      9  N   UNL     1       1.385   8.300  20.904  0.00  0.00    +0.000 N 
ATOM     10  H   UNL     1       1.985   7.799  21.551  0.00  0.00    +0.000 HD
BRANCH   7  11
ATOM     11  C   UNL     1       2.533   6.956  19.221  0.00  0.00    +0.000 C 
BRANCH  11  12
ATOM     12  O   UNL     1       2.121   5.840  19.983  0.00  0.00    +0.000 OA
BRANCH  12  19
ATOM     13  C   UNL     1       1.502   3.098  21.461  0.00  0.00    +0.000 C 
ATOM     14  C   UNL     1       1.873   3.333  20.024  0.00  0.00    +0.000 A 
ATOM     15  C   UNL     1       1.969   2.175  19.222  0.00  0.00    +0.000 A 
ATOM     16  C   UNL     1       2.313   2.234  17.868  0.00  0.00    +0.000 A 
ATOM     17  C   UNL     1       2.558   3.466  17.290  0.00  0.00    +0.000 A 
ATOM     18  C   UNL     1       2.463   4.625  18.065  0.00  0.00    +0.000 A 
ATOM     19  C   UNL     1       2.128   4.583  19.432  0.00  0.00    +0.000 A 
ENDBRANCH  12  19
ENDBRANCH  11  12
ENDBRANCH   7  11
ENDBRANCH   1   9
BRANCH   4  20
ATOM     20  S   UNL     1      -2.036  12.772  22.930  0.00  0.00    +0.000 S 
ATOM     21  O   UNL     1      -1.258  13.518  23.894  0.00  0.00    +0.000 OA
ATOM     22  O   UNL     1      -2.549  13.443  21.741  0.00  0.00    +0.000 OA
BRANCH  20  23
ATOM     23  N   UNL     1      -3.256  12.009  23.686  0.00  0.00    +0.000 NA
ATOM     24  C   UNL     1      -4.150  12.680  24.323  0.00  0.00    +0.000 C 
ATOM     25  N   UNL     1      -4.289  14.023  24.460  0.00  0.00    +0.000 N 
ATOM     26  N   UNL     1      -5.116  12.040  25.020  0.00  0.00    +0.000 N 
ATOM     27  H   UNL     1      -3.764  14.578  23.783  0.00  0.00    +0.000 HD
ATOM     28  H   UNL     1      -5.225  14.381  24.580  0.00  0.00    +0.000 HD
ATOM     29  H   UNL     1      -5.180  11.036  24.912  0.00  0.00    +0.000 HD
ATOM     30  H   UNL     1      -5.950  12.515  25.324  0.00  0.00    +0.000 HD
ENDBRANCH  20  23
ENDBRANCH   4  20
TORSDOF 6
ENDMDL
MODEL 9
REMARK VINA RESULT:      -7.4      3.071      8.834
REMARK  Name = 
REMARK  7 active torsions:
REMARK  status: ('A' for Active; 'I' for Inactive)
REMARK    1  A    between atoms: C_1  and  C_2
REMARK    2  A    between atoms: C_7  and  O_8
REMARK    3  A    between atoms: O_8  and  C_9
REMARK    4  A    between atoms: C_9  and  C_10
REMARK    5  A    between atoms: N_12  and  C_13
REMARK    6  A    between atoms: C_16  and  S_17
REMARK    7  A    between atoms: S_17  and  N_20
REMARK                            x       y       z     vdW  Elec       q    Type
REMARK                         _______ _______ _______ _____ _____    ______ ____
ROOT
ATOM      1  C   UNL     1       2.275   7.662  19.164  0.00  0.00    +0.000 A 
ATOM      2  C   UNL     1       2.308   6.555  20.020  0.00  0.00    +0.000 A 
ATOM      3  C   UNL     1       3.113   5.456  19.706  0.00  0.00    +0.000 A 
ATOM      4  C   UNL     1       3.909   5.482  18.564  0.00  0.00    +0.000 A 
ATOM      5  C   UNL     1       3.933   6.612  17.738  0.00  0.00    +0.000 A 
ATOM      6  C   UNL     1       3.086   7.691  18.024  0.00  0.00    +0.000 A 
ENDROOT
BRANCH   1   9
ATOM      7  C   UNL     1       1.187   9.745  18.483  0.00  0.00    +0.000 C 
ATOM      8  O   UNL     1       1.774   9.843  17.405  0.00  0.00    +0.000 OA
ATOM      9  N   UNL     1       1.374   8.716  19.397  0.00  0.00    +0.000 N 
ATOM     10  H   UNL     1       0.597   8.530  20.022  0.00  0.00    +0.000 HD
BRANCH   7  11
ATOM     11  C   UNL     1       0.158  10.782  18.937  0.00  0.00    +0.000 C 
BRANCH  11  12
ATOM     12  O   UNL     1      -1.138  10.230  19.049  0.00  0.00    +0.000 OA
BRANCH  12  19
ATOM     13  C   UNL     1      -3.590  12.204  19.469  0.00  0.00    +0.000 C 
ATOM     14  C   UNL     1      -3.220  11.403  18.252  0.00  0.00    +0.000 A 
ATOM     15  C   UNL     1      -4.087  11.539  17.146  0.00  0.00    +0.000 A 
ATOM     16  C   UNL     1      -3.877  10.850  15.947  0.00  0.00    +0.000 A 
ATOM     17  C   UNL     1      -2.780  10.016  15.834  0.00  0.00    +0.000 A 
ATOM     18  C   UNL     1      -1.907   9.871  16.916  0.00  0.00    +0.000 A 
ATOM     19  C   UNL     1      -2.109  10.549  18.134  0.00  0.00    +0.000 A 
ENDBRANCH  12  19
ENDBRANCH  11  12
ENDBRANCH   7  11
ENDBRANCH   1   9
BRANCH   4  20
ATOM     20  S   UNL     1       4.962   4.080  18.195  0.00  0.00    +0.000 S 
ATOM     21  O   UNL     1       5.960   4.020  19.240  0.00  0.00    +0.000 OA
ATOM     22  O   UNL     1       4.071   2.947  17.980  0.00  0.00    +0.000 OA
BRANCH  20  23
ATOM     23  N   UNL     1       5.670   4.483  16.788  0.00  0.00    +0.000 NA
ATOM     24  C   UNL     1       6.951   4.557  16.700  0.00  0.00    +0.000 C 
ATOM     25  N   UNL     1       7.898   4.305  17.638  0.00  0.00    +0.000 N 
ATOM     26  N   UNL     1       7.535   4.972  15.552  0.00  0.00    +0.000 N 
ATOM     27  H   UNL     1       7.573   3.763  18.440  0.00  0.00    +0.000 HD
ATOM     28  H   UNL     1       8.796   3.976  17.315  0.00  0.00    +0.000 HD
ATOM     29  H   UNL     1       6.937   5.092  14.744  0.00  0.00    +0.000 HD
ATOM     30  H   UNL     1       8.512   4.818  15.372  0.00  0.00    +0.000 HD
ENDBRANCH  20  23
ENDBRANCH   4  20
TORSDOF 6
ENDMDL
