MODEL 1
REMARK VINA RESULT:      -8.0      0.000      0.000
REMARK  Name = 
REMARK  9 active torsions:
REMARK  status: ('A' for Active; 'I' for Inactive)
REMARK    1  A    between atoms: C_1  and  C_2
REMARK    2  A    between atoms: C_2  and  O_3
REMARK    3  A    between atoms: O_3  and  C_4
REMARK    4  A    between atoms: C_9  and  C_10
REMARK    5  A    between atoms: N_12  and  C_13
REMARK    6  A    between atoms: C_16  and  O_17
REMARK    7  A    between atoms: O_17  and  C_18
REMARK    8  A    between atoms: C_19  and  S_20
REMARK    9  A    between atoms: S_20  and  N_23
REMARK                            x       y       z     vdW  Elec       q    Type
REMARK                         _______ _______ _______ _____ _____    ______ ____
ROOT
ATOM      1  C   UNL     1       2.067   7.037  19.829  0.00  0.00    +0.000 A 
ATOM      2  C   UNL     1       1.466   6.227  20.782  0.00  0.00    +0.000 A 
ATOM      3  C   UNL     1       1.738   4.866  20.850  0.00  0.00    +0.000 A 
ATOM      4  C   UNL     1       2.680   4.235  20.016  0.00  0.00    +0.000 A 
ATOM      5  C   UNL     1       3.281   5.033  19.024  0.00  0.00    +0.000 A 
ATOM      6  C   UNL     1       2.935   6.414  18.912  0.00  0.00    +0.000 A 
ENDROOT
BRANCH   1   9
ATOM      7  C   UNL     1       1.532   9.142  18.601  0.00  0.00    +0.000 C 
ATOM      8  O   UNL     1       1.466   8.629  17.489  0.00  0.00    +0.000 OA
ATOM      9  N   UNL     1       1.825   8.438  19.778  0.00  0.00    +0.000 N 
ATOM     10  H   UNL     1       1.734   8.933  20.661  0.00  0.00    +0.000 HD
BRANCH   7  16
ATOM     11  C   UNL     1       0.022  11.189  19.005  0.00  0.00    +0.000 A 
ATOM     12  N   UNL     1      -0.173  12.535  19.090  0.00  0.00    +0.000 NA
ATOM     13  C   UNL     1       0.839  13.347  18.730  0.00  0.00    +0.000 A 
ATOM     14  C   UNL     1       2.054  12.877  18.288  0.00  0.00    +0.000 A 
ATOM     15  C   UNL     1       2.252  11.497  18.271  0.00  0.00    +0.000 A 
ATOM     16  C   UNL     1       1.229  10.606  18.656  0.00  0.00    +0.000 A 
BRANCH  11  17
ATOM     17  O   UNL     1      -1.081  10.392  19.227  0.00  0.00    +0.000 OA
BRANCH  17  19
ATOM     18  C   UNL     1      -1.950   9.925  17.046  0.00  0.00    +0.000 C 
ATOM     19  C   UNL     1      -2.129  10.736  18.309  0.00  0.00    +0.000 C 
ENDBRANCH  17  19
ENDBRANCH  11  17
ENDBRANCH   7  16
ENDBRANCH   1   9
BRANCH   5  20
ATOM     20  S   UNL     1       4.557   4.476  17.881  0.00  0.00    +0.000 S 
ATOM     21  O   UNL     1       5.744   4.299  18.695  0.00  0.00    +0.000 OA
ATOM     22  O   UNL     1       3.987   3.344  17.178  0.00  0.00    +0.000 OA
BRANCH  20  23
ATOM     23  N   UNL     1       4.925   5.652  16.706  0.00  0.00    +0.000 NA
ATOM     24  C   UNL     1       5.375   5.202  15.357  0.00  0.00    +0.000 C 
ATOM     25  C   UNL     1       6.872   4.859  15.324  0.00  0.00    +0.000 C 
ATOM     26  O   UNL     1       7.703   5.920  15.810  0.00  0.00    +0.000 OA
ATOM     27  C   UNL     1       7.293   6.454  17.074  0.00  0.00    +0.000 C 
ATOM     28  C   UNL     1       5.798   6.794  17.134  0.00  0.00    +0.000 C 
ENDBRANCH  20  23
ENDBRANCH   5  20
BRANCH   4  29
ATOM     29  O   UNL     1       2.961   2.914  20.122  0.00  0.00    +0.000 OA
ATOM     30  C   UNL     1       1.929   2.035  19.637  0.00  0.00    +0.000 C 
ENDBRANCH   4  29
TORSDOF 7
ENDMDL
MODEL 2
REMARK VINA RESULT:      -7.9      1.266      1.694
REMARK  Name = 
REMARK  9 active torsions:
REMARK  status: ('A' for Active; 'I' for Inactive)
REMARK    1  A    between atoms: C_1  and  C_2
REMARK    2  A    between atoms: C_2  and  O_3
REMARK    3  A    between atoms: O_3  and  C_4
REMARK    4  A    between atoms: C_9  and  C_10
REMARK    5  A    between atoms: N_12  and  C_13
REMARK    6  A    between atoms: C_16  and  O_17
REMARK    7  A    between atoms: O_17  and  C_18
REMARK    8  A    between atoms: C_19  and  S_20
REMARK    9  A    between atoms: S_20  and  N_23
REMARK                            x       y       z     vdW  Elec       q    Type
REMARK                         _______ _______ _______ _____ _____    ______ ____
ROOT
ATOM      1  C   UNL     1       2.019   6.825  20.019  0.00  0.00    +0.000 A 
ATOM      2  C   UNL     1       1.204   5.934  20.704  0.00  0.00    +0.000 A 
ATOM      3  C   UNL     1       1.424   4.564  20.648  0.00  0.00    +0.000 A 
ATOM      4  C   UNL     1       2.512   3.995  19.960  0.00  0.00    +0.000 A 
ATOM      5  C   UNL     1       3.334   4.877  19.236  0.00  0.00    +0.000 A 
ATOM      6  C   UNL     1       3.053   6.278  19.236  0.00  0.00    +0.000 A 
ENDROOT
BRANCH   1   9
ATOM      7  C   UNL     1       1.524   9.050  19.004  0.00  0.00    +0.000 C 
ATOM      8  O   UNL     1       1.408   8.644  17.854  0.00  0.00    +0.000 OA
ATOM      9  N   UNL     1       1.825   8.232  20.103  0.00  0.00    +0.000 N 
ATOM     10  H   UNL     1       1.778   8.646  21.030  0.00  0.00    +0.000 HD
BRANCH   7  16
ATOM     11  C   UNL     1       0.413  11.088  20.120  0.00  0.00    +0.000 A 
ATOM     12  N   UNL     1       0.273  12.434  20.288  0.00  0.00    +0.000 NA
ATOM     13  C   UNL     1       0.946  13.251  19.456  0.00  0.00    +0.000 A 
ATOM     14  C   UNL     1       1.766  12.787  18.453  0.00  0.00    +0.000 A 
ATOM     15  C   UNL     1       1.944  11.408  18.343  0.00  0.00    +0.000 A 
ATOM     16  C   UNL     1       1.275  10.513  19.203  0.00  0.00    +0.000 A 
BRANCH  11  17
ATOM     17  O   UNL     1      -0.410  10.284  20.881  0.00  0.00    +0.000 OA
BRANCH  17  19
ATOM     18  C   UNL     1      -0.100   9.543  23.136  0.00  0.00    +0.000 C 
ATOM     19  C   UNL     1      -0.403  10.727  22.246  0.00  0.00    +0.000 C 
ENDBRANCH  17  19
ENDBRANCH  11  17
ENDBRANCH   7  16
ENDBRANCH   1   9
BRANCH   5  20
ATOM     20  S   UNL     1       4.818   4.403  18.332  0.00  0.00    +0.000 S 
ATOM     21  O   UNL     1       5.721   3.873  19.336  0.00  0.00    +0.000 OA
ATOM     22  O   UNL     1       4.363   3.554  17.249  0.00  0.00    +0.000 OA
BRANCH  20  23
ATOM     23  N   UNL     1       5.592   5.741  17.618  0.00  0.00    +0.000 NA
ATOM     24  C   UNL     1       5.022   6.314  16.364  0.00  0.00    +0.000 C 
ATOM     25  C   UNL     1       5.457   5.535  15.114  0.00  0.00    +0.000 C 
ATOM     26  O   UNL     1       6.878   5.390  15.007  0.00  0.00    +0.000 OA
ATOM     27  C   UNL     1       7.510   4.909  16.198  0.00  0.00    +0.000 C 
ATOM     28  C   UNL     1       7.082   5.665  17.463  0.00  0.00    +0.000 C 
ENDBRANCH  20  23
ENDBRANCH   5  20
BRANCH   4  29
ATOM     29  O   UNL     1       2.732   2.657  19.949  0.00  0.00    +0.000 OA
ATOM     30  C   UNL     1       1.848   1.906  19.097  0.00  0.00    +0.000 C 
ENDBRANCH   4  29
TORSDOF 7
ENDMDL
MODEL 3
REMARK VINA RESULT:      -7.6      1.922      2.622
REMARK  Name = 
REMARK  9 active torsions:
REMARK  status: ('A' for Active; 'I' for Inactive)
REMARK    1  A    between atoms: C_1  and  C_2
REMARK    2  A    between atoms: C_2  and  O_3
REMARK    3  A    between atoms: O_3  and  C_4
REMARK    4  A    between atoms: C_9  and  C_10
REMARK    5  A    between atoms: N_12  and  C_13
REMARK    6  A    between atoms: C_16  and  O_17
REMARK    7  A    between atoms: O_17  and  C_18
REMARK    8  A    between atoms: C_19  and  S_20
REMARK    9  A    between atoms: S_20  and  N_23
REMARK                            x       y       z     vdW  Elec       q    Type
REMARK                         _______ _______ _______ _____ _____    ______ ____
ROOT
ATOM      1  C   UNL     1       1.979   5.571  20.631  0.00  0.00    +0.000 A 
ATOM      2  C   UNL     1       2.066   4.378  21.335  0.00  0.00    +0.000 A 
ATOM      3  C   UNL     1       2.783   3.296  20.840  0.00  0.00    +0.000 A 
ATOM      4  C   UNL     1       3.518   3.355  19.640  0.00  0.00    +0.000 A 
ATOM      5  C   UNL     1       3.421   4.545  18.897  0.00  0.00    +0.000 A 
ATOM      6  C   UNL     1       2.617   5.624  19.377  0.00  0.00    +0.000 A 
ENDROOT
BRANCH   1   9
ATOM      7  C   UNL     1       1.338   7.982  20.592  0.00  0.00    +0.000 C 
ATOM      8  O   UNL     1       2.006   8.276  19.608  0.00  0.00    +0.000 OA
ATOM      9  N   UNL     1       1.280   6.696  21.150  0.00  0.00    +0.000 N 
ATOM     10  H   UNL     1       0.603   6.530  21.889  0.00  0.00    +0.000 HD
BRANCH   7  16
ATOM     11  C   UNL     1      -0.037  10.156  20.486  0.00  0.00    +0.000 A 
ATOM     12  N   UNL     1      -0.824  11.106  21.066  0.00  0.00    +0.000 NA
ATOM     13  C   UNL     1      -1.002  11.055  22.400  0.00  0.00    +0.000 A 
ATOM     14  C   UNL     1      -0.430  10.087  23.194  0.00  0.00    +0.000 A 
ATOM     15  C   UNL     1       0.318   9.089  22.569  0.00  0.00    +0.000 A 
ATOM     16  C   UNL     1       0.517   9.090  21.173  0.00  0.00    +0.000 A 
BRANCH  11  17
ATOM     17  O   UNL     1       0.252  10.331  19.148  0.00  0.00    +0.000 OA
BRANCH  17  19
ATOM     18  C   UNL     1      -1.577  10.113  17.619  0.00  0.00    +0.000 C 
ATOM     19  C   UNL     1      -0.804  11.061  18.508  0.00  0.00    +0.000 C 
ENDBRANCH  17  19
ENDBRANCH  11  17
ENDBRANCH   7  16
ENDBRANCH   1   9
BRANCH   5  20
ATOM     20  S   UNL     1       4.312   4.886  17.369  0.00  0.00    +0.000 S 
ATOM     21  O   UNL     1       3.814   3.915  16.414  0.00  0.00    +0.000 OA
ATOM     22  O   UNL     1       4.133   6.302  17.118  0.00  0.00    +0.000 OA
BRANCH  20  23
ATOM     23  N   UNL     1       5.987   4.622  17.529  0.00  0.00    +0.000 NA
ATOM     24  C   UNL     1       6.813   5.650  18.226  0.00  0.00    +0.000 C 
ATOM     25  C   UNL     1       7.196   6.816  17.303  0.00  0.00    +0.000 C 
ATOM     26  O   UNL     1       7.830   6.391  16.091  0.00  0.00    +0.000 OA
ATOM     27  C   UNL     1       7.131   5.352  15.396  0.00  0.00    +0.000 C 
ATOM     28  C   UNL     1       6.727   4.180  16.301  0.00  0.00    +0.000 C 
ENDBRANCH  20  23
ENDBRANCH   5  20
BRANCH   4  29
ATOM     29  O   UNL     1       4.243   2.301  19.192  0.00  0.00    +0.000 OA
ATOM     30  C   UNL     1       3.483   1.295  18.499  0.00  0.00    +0.000 C 
ENDBRANCH   4  29
TORSDOF 7
ENDMDL
MODEL 4
REMARK VINA RESULT:      -7.5      1.114      1.278
REMARK  Name = 
REMARK  9 active torsions:
REMARK  status: ('A' for Active; 'I' for Inactive)
REMARK    1  A    between atoms: C_1  and  C_2
REMARK    2  A    between atoms: C_2  and  O_3
REMARK    3  A    between atoms: O_3  and  C_4
REMARK    4  A    between atoms: C_9  and  C_10
REMARK    5  A    between atoms: N_12  and  C_13
REMARK    6  A    between atoms: C_16  and  O_17
REMARK    7  A    between atoms: O_17  and  C_18
REMARK    8  A    between atoms: C_19  and  S_20
REMARK    9  A    between atoms: S_20  and  N_23
REMARK                            x       y       z     vdW  Elec       q    Type
REMARK                         _______ _______ _______ _____ _____    ______ ____
ROOT
ATOM      1  C   UNL     1       1.983   7.062  19.666  0.00  0.00    +0.000 A 
ATOM      2  C   UNL     1       1.502   6.358  20.762  0.00  0.00    +0.000 A 
ATOM      3  C   UNL     1       1.891   5.048  21.007  0.00  0.00    +0.000 A 
ATOM      4  C   UNL     1       2.838   4.374  20.213  0.00  0.00    +0.000 A 
ATOM      5  C   UNL     1       3.317   5.059  19.081  0.00  0.00    +0.000 A 
ATOM      6  C   UNL     1       2.851   6.378  18.794  0.00  0.00    +0.000 A 
ENDROOT
BRANCH   1   9
ATOM      7  C   UNL     1       0.771   9.160  20.264  0.00  0.00    +0.000 C 
ATOM      8  O   UNL     1       0.241   8.717  21.276  0.00  0.00    +0.000 OA
ATOM      9  N   UNL     1       1.620   8.418  19.430  0.00  0.00    +0.000 N 
ATOM     10  H   UNL     1       2.104   8.912  18.685  0.00  0.00    +0.000 HD
BRANCH   7  16
ATOM     11  C   UNL     1      -0.231  11.102  18.902  0.00  0.00    +0.000 A 
ATOM     12  N   UNL     1      -0.491  12.427  18.718  0.00  0.00    +0.000 NA
ATOM     13  C   UNL     1       0.065  13.308  19.571  0.00  0.00    +0.000 A 
ATOM     14  C   UNL     1       0.876  12.926  20.616  0.00  0.00    +0.000 A 
ATOM     15  C   UNL     1       1.075  11.562  20.822  0.00  0.00    +0.000 A 
ATOM     16  C   UNL     1       0.498  10.601  19.967  0.00  0.00    +0.000 A 
BRANCH  11  17
ATOM     17  O   UNL     1      -0.684  10.244  17.921  0.00  0.00    +0.000 OA
BRANCH  17  19
ATOM     18  C   UNL     1      -3.000   9.711  17.638  0.00  0.00    +0.000 C 
ATOM     19  C   UNL     1      -1.917  10.731  17.373  0.00  0.00    +0.000 C 
ENDBRANCH  17  19
ENDBRANCH  11  17
ENDBRANCH   7  16
ENDBRANCH   1   9
BRANCH   5  20
ATOM     20  S   UNL     1       4.575   4.437  17.951  0.00  0.00    +0.000 S 
ATOM     21  O   UNL     1       5.779   4.318  18.751  0.00  0.00    +0.000 OA
ATOM     22  O   UNL     1       4.000   3.260  17.333  0.00  0.00    +0.000 OA
BRANCH  20  23
ATOM     23  N   UNL     1       4.913   5.538  16.697  0.00  0.00    +0.000 NA
ATOM     24  C   UNL     1       5.381   5.009  15.383  0.00  0.00    +0.000 C 
ATOM     25  C   UNL     1       6.888   4.708  15.377  0.00  0.00    +0.000 C 
ATOM     26  O   UNL     1       7.686   5.824  15.789  0.00  0.00    +0.000 OA
ATOM     27  C   UNL     1       7.256   6.434  17.012  0.00  0.00    +0.000 C 
ATOM     28  C   UNL     1       5.751   6.733  17.046  0.00  0.00    +0.000 C 
ENDBRANCH  20  23
ENDBRANCH   5  20
BRANCH   4  29
ATOM     29  O   UNL     1       3.235   3.108  20.490  0.00  0.00    +0.000 OA
ATOM     30  C   UNL     1       2.561   2.493  21.603  0.00  0.00    +0.000 C 
ENDBRANCH   4  29
TORSDOF 7
ENDMDL
MODEL 5
REMARK VINA RESULT:      -7.5      1.794      2.237
REMARK  Name = 
REMARK  9 active torsions:
REMARK  status: ('A' for Active; 'I' for Inactive)
REMARK    1  A    between atoms: C_1  and  C_2
REMARK    2  A    between atoms: C_2  and  O_3
REMARK    3  A    between atoms: O_3  and  C_4
REMARK    4  A    between atoms: C_9  and  C_10
REMARK    5  A    between atoms: N_12  and  C_13
REMARK    6  A    between atoms: C_16  and  O_17
REMARK    7  A    between atoms: O_17  and  C_18
REMARK    8  A    between atoms: C_19  and  S_20
REMARK    9  A    between atoms: S_20  and  N_23
REMARK                            x       y       z     vdW  Elec       q    Type
REMARK                         _______ _______ _______ _____ _____    ______ ____
ROOT
ATOM      1  C   UNL     1       2.005   6.526  20.171  0.00  0.00    +0.000 A 
ATOM      2  C   UNL     1       1.028   5.557  20.355  0.00  0.00    +0.000 A 
ATOM      3  C   UNL     1       1.292   4.212  20.129  0.00  0.00    +0.000 A 
ATOM      4  C   UNL     1       2.567   3.737  19.768  0.00  0.00    +0.000 A 
ATOM      5  C   UNL     1       3.565   4.705  19.549  0.00  0.00    +0.000 A 
ATOM      6  C   UNL     1       3.261   6.091  19.709  0.00  0.00    +0.000 A 
ENDROOT
BRANCH   1   9
ATOM      7  C   UNL     1       1.462   8.853  19.452  0.00  0.00    +0.000 C 
ATOM      8  O   UNL     1       1.405   8.606  18.253  0.00  0.00    +0.000 OA
ATOM      9  N   UNL     1       1.754   7.901  20.440  0.00  0.00    +0.000 N 
ATOM     10  H   UNL     1       1.657   8.180  21.412  0.00  0.00    +0.000 HD
BRANCH   7  16
ATOM     11  C   UNL     1       1.123  10.784  21.122  0.00  0.00    +0.000 A 
ATOM     12  N   UNL     1       0.885  12.096  21.404  0.00  0.00    +0.000 NA
ATOM     13  C   UNL     1       0.573  12.918  20.384  0.00  0.00    +0.000 A 
ATOM     14  C   UNL     1       0.489  12.491  19.078  0.00  0.00    +0.000 A 
ATOM     15  C   UNL     1       0.799  11.159  18.807  0.00  0.00    +0.000 A 
ATOM     16  C   UNL     1       1.150  10.265  19.839  0.00  0.00    +0.000 A 
BRANCH  11  17
ATOM     17  O   UNL     1       1.283   9.942  22.203  0.00  0.00    +0.000 OA
BRANCH  17  19
ATOM     18  C   UNL     1      -0.785   8.771  22.486  0.00  0.00    +0.000 C 
ATOM     19  C   UNL     1       0.078   9.908  22.982  0.00  0.00    +0.000 C 
ENDBRANCH  17  19
ENDBRANCH  11  17
ENDBRANCH   7  16
ENDBRANCH   1   9
BRANCH   5  20
ATOM     20  S   UNL     1       5.283   4.347  19.144  0.00  0.00    +0.000 S 
ATOM     21  O   UNL     1       6.037   5.473  19.661  0.00  0.00    +0.000 OA
ATOM     22  O   UNL     1       5.536   3.014  19.651  0.00  0.00    +0.000 OA
BRANCH  20  23
ATOM     23  N   UNL     1       5.549   4.294  17.463  0.00  0.00    +0.000 NA
ATOM     24  C   UNL     1       6.923   4.562  16.945  0.00  0.00    +0.000 C 
ATOM     25  C   UNL     1       7.225   6.063  16.835  0.00  0.00    +0.000 C 
ATOM     26  O   UNL     1       6.246   6.780  16.074  0.00  0.00    +0.000 OA
ATOM     27  C   UNL     1       4.893   6.523  16.467  0.00  0.00    +0.000 C 
ATOM     28  C   UNL     1       4.571   5.029  16.594  0.00  0.00    +0.000 C 
ENDBRANCH  20  23
ENDBRANCH   5  20
BRANCH   4  29
ATOM     29  O   UNL     1       2.816   2.417  19.588  0.00  0.00    +0.000 OA
ATOM     30  C   UNL     1       2.527   1.921  18.268  0.00  0.00    +0.000 C 
ENDBRANCH   4  29
TORSDOF 7
ENDMDL
MODEL 6
REMARK VINA RESULT:      -7.5      1.018      1.069
REMARK  Name = 
REMARK  9 active torsions:
REMARK  status: ('A' for Active; 'I' for Inactive)
REMARK    1  A    between atoms: C_1  and  C_2
REMARK    2  A    between atoms: C_2  and  O_3
REMARK    3  A    between atoms: O_3  and  C_4
REMARK    4  A    between atoms: C_9  and  C_10
REMARK    5  A    between atoms: N_12  and  C_13
REMARK    6  A    between atoms: C_16  and  O_17
REMARK    7  A    between atoms: O_17  and  C_18
REMARK    8  A    between atoms: C_19  and  S_20
REMARK    9  A    between atoms: S_20  and  N_23
REMARK                            x       y       z     vdW  Elec       q    Type
REMARK                         _______ _______ _______ _____ _____    ______ ____
ROOT
ATOM      1  C   UNL     1       2.038   7.190  19.772  0.00  0.00    +0.000 A 
ATOM      2  C   UNL     1       1.222   6.490  20.650  0.00  0.00    +0.000 A 
ATOM      3  C   UNL     1       1.309   5.109  20.773  0.00  0.00    +0.000 A 
ATOM      4  C   UNL     1       2.262   4.341  20.077  0.00  0.00    +0.000 A 
ATOM      5  C   UNL     1       3.081   5.028  19.161  0.00  0.00    +0.000 A 
ATOM      6  C   UNL     1       2.930   6.437  18.985  0.00  0.00    +0.000 A 
ENDROOT
BRANCH   1   9
ATOM      7  C   UNL     1       1.439   9.296  18.576  0.00  0.00    +0.000 C 
ATOM      8  O   UNL     1       0.966   8.751  17.586  0.00  0.00    +0.000 OA
ATOM      9  N   UNL     1       1.983   8.608  19.670  0.00  0.00    +0.000 N 
ATOM     10  H   UNL     1       2.238   9.149  20.492  0.00  0.00    +0.000 HD
BRANCH   7  16
ATOM     11  C   UNL     1       0.292  11.566  18.983  0.00  0.00    +0.000 A 
ATOM     12  N   UNL     1       0.312  12.928  19.022  0.00  0.00    +0.000 NA
ATOM     13  C   UNL     1       1.411  13.560  18.569  0.00  0.00    +0.000 A 
ATOM     14  C   UNL     1       2.508  12.892  18.075  0.00  0.00    +0.000 A 
ATOM     15  C   UNL     1       2.490  11.498  18.105  0.00  0.00    +0.000 A 
ATOM     16  C   UNL     1       1.369  10.791  18.588  0.00  0.00    +0.000 A 
BRANCH  11  17
ATOM     17  O   UNL     1      -0.904  10.958  19.304  0.00  0.00    +0.000 OA
BRANCH  17  19
ATOM     18  C   UNL     1      -3.077  11.930  19.060  0.00  0.00    +0.000 C 
ATOM     19  C   UNL     1      -1.804  11.918  19.875  0.00  0.00    +0.000 C 
ENDBRANCH  17  19
ENDBRANCH  11  17
ENDBRANCH   7  16
ENDBRANCH   1   9
BRANCH   5  20
ATOM     20  S   UNL     1       4.412   4.283  18.203  0.00  0.00    +0.000 S 
ATOM     21  O   UNL     1       5.213   3.554  19.168  0.00  0.00    +0.000 OA
ATOM     22  O   UNL     1       3.764   3.572  17.118  0.00  0.00    +0.000 OA
BRANCH  20  23
ATOM     23  N   UNL     1       5.424   5.453  17.491  0.00  0.00    +0.000 NA
ATOM     24  C   UNL     1       5.572   5.468  16.007  0.00  0.00    +0.000 C 
ATOM     25  C   UNL     1       6.596   4.437  15.510  0.00  0.00    +0.000 C 
ATOM     26  O   UNL     1       7.872   4.560  16.148  0.00  0.00    +0.000 OA
ATOM     27  C   UNL     1       7.810   4.622  17.578  0.00  0.00    +0.000 C 
ATOM     28  C   UNL     1       6.784   5.637  18.098  0.00  0.00    +0.000 C 
ENDBRANCH  20  23
ENDBRANCH   5  20
BRANCH   4  29
ATOM     29  O   UNL     1       2.357   2.999  20.238  0.00  0.00    +0.000 OA
ATOM     30  C   UNL     1       2.533   2.564  21.598  0.00  0.00    +0.000 C 
ENDBRANCH   4  29
TORSDOF 7
ENDMDL
MODEL 7
REMARK VINA RESULT:      -7.4      2.039      2.783
REMARK  Name = 
REMARK  9 active torsions:
REMARK  status: ('A' for Active; 'I' for Inactive)
REMARK    1  A    between atoms: C_1  and  C_2
REMARK    2  A    between atoms: C_2  and  O_3
REMARK    3  A    between atoms: O_3  and  C_4
REMARK    4  A    between atoms: C_9  and  C_10
REMARK    5  A    between atoms: N_12  and  C_13
REMARK    6  A    between atoms: C_16  and  O_17
REMARK    7  A    between atoms: O_17  and  C_18
REMARK    8  A    between atoms: C_19  and  S_20
REMARK    9  A    between atoms: S_20  and  N_23
REMARK                            x       y       z     vdW  Elec       q    Type
REMARK                         _______ _______ _______ _____ _____    ______ ____
ROOT
ATOM      1  C   UNL     1       1.710   6.130  20.206  0.00  0.00    +0.000 A 
ATOM      2  C   UNL     1       1.356   4.883  20.703  0.00  0.00    +0.000 A 
ATOM      3  C   UNL     1       2.191   3.782  20.555  0.00  0.00    +0.000 A 
ATOM      4  C   UNL     1       3.464   3.867  19.961  0.00  0.00    +0.000 A 
ATOM      5  C   UNL     1       3.831   5.115  19.427  0.00  0.00    +0.000 A 
ATOM      6  C   UNL     1       2.933   6.222  19.514  0.00  0.00    +0.000 A 
ENDROOT
BRANCH   1   9
ATOM      7  C   UNL     1       1.133   8.285  21.323  0.00  0.00    +0.000 C 
ATOM      8  O   UNL     1       2.089   8.292  22.091  0.00  0.00    +0.000 OA
ATOM      9  N   UNL     1       0.880   7.271  20.389  0.00  0.00    +0.000 N 
ATOM     10  H   UNL     1       0.131   7.420  19.718  0.00  0.00    +0.000 HD
BRANCH   7  16
ATOM     11  C   UNL     1      -0.322  10.164  20.332  0.00  0.00    +0.000 A 
ATOM     12  N   UNL     1      -1.180  11.214  20.470  0.00  0.00    +0.000 NA
ATOM     13  C   UNL     1      -1.434  11.667  21.712  0.00  0.00    +0.000 A 
ATOM     14  C   UNL     1      -0.871  11.115  22.840  0.00  0.00    +0.000 A 
ATOM     15  C   UNL     1      -0.047  10.001  22.678  0.00  0.00    +0.000 A 
ATOM     16  C   UNL     1       0.234   9.479  21.399  0.00  0.00    +0.000 A 
BRANCH  11  17
ATOM     17  O   UNL     1       0.039   9.830  19.043  0.00  0.00    +0.000 OA
BRANCH  17  19
ATOM     18  C   UNL     1       2.149   9.712  17.920  0.00  0.00    +0.000 C 
ATOM     19  C   UNL     1       1.166  10.615  18.629  0.00  0.00    +0.000 C 
ENDBRANCH  17  19
ENDBRANCH  11  17
ENDBRANCH   7  16
ENDBRANCH   1   9
BRANCH   5  20
ATOM     20  S   UNL     1       5.426   5.492  18.677  0.00  0.00    +0.000 S 
ATOM     21  O   UNL     1       5.247   6.778  18.031  0.00  0.00    +0.000 OA
ATOM     22  O   UNL     1       6.402   5.346  19.738  0.00  0.00    +0.000 OA
BRANCH  20  23
ATOM     23  N   UNL     1       5.845   4.374  17.462  0.00  0.00    +0.000 NA
ATOM     24  C   UNL     1       7.240   4.379  16.933  0.00  0.00    +0.000 C 
ATOM     25  C   UNL     1       7.455   5.458  15.862  0.00  0.00    +0.000 C 
ATOM     26  O   UNL     1       6.506   5.386  14.792  0.00  0.00    +0.000 OA
ATOM     27  C   UNL     1       5.142   5.309  15.221  0.00  0.00    +0.000 C 
ATOM     28  C   UNL     1       4.904   4.245  16.301  0.00  0.00    +0.000 C 
ENDBRANCH  20  23
ENDBRANCH   5  20
BRANCH   4  29
ATOM     29  O   UNL     1       4.281   2.789  19.860  0.00  0.00    +0.000 OA
ATOM     30  C   UNL     1       3.788   1.735  19.013  0.00  0.00    +0.000 C 
ENDBRANCH   4  29
TORSDOF 7
ENDMDL
MODEL 8
REMARK VINA RESULT:      -7.4      2.031      4.034
REMARK  Name = 
REMARK  9 active torsions:
REMARK  status: ('A' for Active; 'I' for Inactive)
REMARK    1  A    between atoms: C_1  and  C_2
REMARK    2  A    between atoms: C_2  and  O_3
REMARK    3  A    between atoms: O_3  and  C_4
REMARK    4  A    between atoms: C_9  and  C_10
REMARK    5  A    between atoms: N_12  and  C_13
REMARK    6  A    between atoms: C_16  and  O_17
REMARK    7  A    between atoms: O_17  and  C_18
REMARK    8  A    between atoms: C_19  and  S_20
REMARK    9  A    between atoms: S_20  and  N_23
REMARK                            x       y       z     vdW  Elec       q    Type
REMARK                         _______ _______ _______ _____ _____    ______ ____
ROOT
ATOM      1  C   UNL     1       2.653   7.541  17.920  0.00  0.00    +0.000 A 
ATOM      2  C   UNL     1       3.963   7.732  17.500  0.00  0.00    +0.000 A 
ATOM      3  C   UNL     1       4.783   6.658  17.181  0.00  0.00    +0.000 A 
ATOM      4  C   UNL     1       4.332   5.324  17.194  0.00  0.00    +0.000 A 
ATOM      5  C   UNL     1       3.016   5.106  17.643  0.00  0.00    +0.000 A 
ATOM      6  C   UNL     1       2.206   6.211  18.044  0.00  0.00    +0.000 A 
ENDROOT
BRANCH   1   9
ATOM      7  C   UNL     1       1.321   8.946  19.494  0.00  0.00    +0.000 C 
ATOM      8  O   UNL     1       1.587   8.298  20.500  0.00  0.00    +0.000 OA
ATOM      9  N   UNL     1       1.794   8.637  18.210  0.00  0.00    +0.000 N 
ATOM     10  H   UNL     1       1.616   9.306  17.466  0.00  0.00    +0.000 HD
BRANCH   7  16
ATOM     11  C   UNL     1      -0.602  10.564  18.937  0.00  0.00    +0.000 A 
ATOM     12  N   UNL     1      -1.373  11.652  19.220  0.00  0.00    +0.000 NA
ATOM     13  C   UNL     1      -1.018  12.427  20.262  0.00  0.00    +0.000 A 
ATOM     14  C   UNL     1       0.080  12.165  21.050  0.00  0.00    +0.000 A 
ATOM     15  C   UNL     1       0.815  11.011  20.779  0.00  0.00    +0.000 A 
ATOM     16  C   UNL     1       0.471  10.158  19.711  0.00  0.00    +0.000 A 
BRANCH  11  17
ATOM     17  O   UNL     1      -0.900   9.886  17.773  0.00  0.00    +0.000 OA
BRANCH  17  19
ATOM     18  C   UNL     1      -2.533   9.960  16.024  0.00  0.00    +0.000 C 
ATOM     19  C   UNL     1      -2.311   9.940  17.520  0.00  0.00    +0.000 C 
ENDBRANCH  17  19
ENDBRANCH  11  17
ENDBRANCH   7  16
ENDBRANCH   1   9
BRANCH   5  20
ATOM     20  S   UNL     1       2.191   3.505  17.692  0.00  0.00    +0.000 S 
ATOM     21  O   UNL     1       0.782   3.810  17.851  0.00  0.00    +0.000 OA
ATOM     22  O   UNL     1       2.648   2.793  16.516  0.00  0.00    +0.000 OA
BRANCH  20  23
ATOM     23  N   UNL     1       2.661   2.581  19.043  0.00  0.00    +0.000 NA
ATOM     24  C   UNL     1       1.602   1.987  19.910  0.00  0.00    +0.000 C 
ATOM     25  C   UNL     1       1.048   2.993  20.929  0.00  0.00    +0.000 C 
ATOM     26  O   UNL     1       2.068   3.610  21.723  0.00  0.00    +0.000 OA
ATOM     27  C   UNL     1       3.158   4.146  20.965  0.00  0.00    +0.000 C 
ATOM     28  C   UNL     1       3.721   3.162  19.931  0.00  0.00    +0.000 C 
ENDBRANCH  20  23
ENDBRANCH   5  20
BRANCH   4  29
ATOM     29  O   UNL     1       5.136   4.291  16.842  0.00  0.00    +0.000 OA
ATOM     30  C   UNL     1       5.646   4.353  15.498  0.00  0.00    +0.000 C 
ENDBRANCH   4  29
TORSDOF 7
ENDMDL
MODEL 9
REMARK VINA RESULT:      -7.3      1.998      2.641
REMARK  Name = 
REMARK  9 active torsions:
REMARK  status: ('A' for Active; 'I' for Inactive)
REMARK    1  A    between atoms: C_1  and  C_2
REMARK    2  A    between atoms: C_2  and  O_3
REMARK    3  A    between atoms: O_3  and  C_4
REMARK    4  A    between atoms: C_9  and  C_10
REMARK    5  A    between atoms: N_12  and  C_13
REMARK    6  A    between atoms: C_16  and  O_17
REMARK    7  A    between atoms: O_17  and  C_18
REMARK    8  A    between atoms: C_19  and  S_20
REMARK    9  A    between atoms: S_20  and  N_23
REMARK                            x       y       z     vdW  Elec       q    Type
REMARK                         _______ _______ _______ _____ _____    ______ ____
ROOT
ATOM      1  C   UNL     1       1.811   7.089  20.330  0.00  0.00    +0.000 A 
ATOM      2  C   UNL     1       1.593   6.037  21.210  0.00  0.00    +0.000 A 
ATOM      3  C   UNL     1       2.067   4.760  20.942  0.00  0.00    +0.000 A 
ATOM      4  C   UNL     1       2.848   4.459  19.809  0.00  0.00    +0.000 A 
ATOM      5  C   UNL     1       3.057   5.504  18.890  0.00  0.00    +0.000 A 
ATOM      6  C   UNL     1       2.499   6.795  19.137  0.00  0.00    +0.000 A 
ENDROOT
BRANCH   1   9
ATOM      7  C   UNL     1       0.153   8.705  21.259  0.00  0.00    +0.000 C 
ATOM      8  O   UNL     1      -0.655   7.861  21.629  0.00  0.00    +0.000 OA
ATOM      9  N   UNL     1       1.364   8.409  20.617  0.00  0.00    +0.000 N 
ATOM     10  H   UNL     1       2.017   9.171  20.461  0.00  0.00    +0.000 HD
BRANCH   7  16
ATOM     11  C   UNL     1       0.042  11.233  20.782  0.00  0.00    +0.000 A 
ATOM     12  N   UNL     1      -0.358  12.497  21.102  0.00  0.00    +0.000 NA
ATOM     13  C   UNL     1      -0.947  12.692  22.297  0.00  0.00    +0.000 A 
ATOM     14  C   UNL     1      -1.164  11.676  23.199  0.00  0.00    +0.000 A 
ATOM     15  C   UNL     1      -0.805  10.382  22.822  0.00  0.00    +0.000 A 
ATOM     16  C   UNL     1      -0.203  10.125  21.574  0.00  0.00    +0.000 A 
BRANCH  11  17
ATOM     17  O   UNL     1       0.781  11.097  19.626  0.00  0.00    +0.000 OA
BRANCH  17  19
ATOM     18  C   UNL     1      -0.783  10.250  18.024  0.00  0.00    +0.000 C 
ATOM     19  C   UNL     1      -0.013  11.465  18.489  0.00  0.00    +0.000 C 
ENDBRANCH  17  19
ENDBRANCH  11  17
ENDBRANCH   7  16
ENDBRANCH   1   9
BRANCH   5  20
ATOM     20  S   UNL     1       4.069   5.388  17.404  0.00  0.00    +0.000 S 
ATOM     21  O   UNL     1       3.506   4.287  16.647  0.00  0.00    +0.000 OA
ATOM     22  O   UNL     1       4.086   6.721  16.836  0.00  0.00    +0.000 OA
BRANCH  20  23
ATOM     23  N   UNL     1       5.684   4.981  17.757  0.00  0.00    +0.000 NA
ATOM     24  C   UNL     1       6.576   6.025  18.341  0.00  0.00    +0.000 C 
ATOM     25  C   UNL     1       7.160   6.961  17.273  0.00  0.00    +0.000 C 
ATOM     26  O   UNL     1       7.822   6.261  16.213  0.00  0.00    +0.000 OA
ATOM     27  C   UNL     1       7.055   5.195  15.644  0.00  0.00    +0.000 C 
ATOM     28  C   UNL     1       6.452   4.252  16.693  0.00  0.00    +0.000 C 
ENDBRANCH  20  23
ENDBRANCH   5  20
BRANCH   4  29
ATOM     29  O   UNL     1       3.333   3.215  19.583  0.00  0.00    +0.000 OA
ATOM     30  C   UNL     1       2.331   2.200  19.388  0.00  0.00    +0.000 C 
ENDBRANCH   4  29
TORSDOF 7
ENDMDL
