MODEL 1
REMARK VINA RESULT:      -7.8      0.000      0.000
REMARK  Name = 
REMARK  6 active torsions:
REMARK  status: ('A' for Active; 'I' for Inactive)
REMARK    1  A    between atoms: C_1  and  C_2
REMARK    2  A    between atoms: C_2  and  C_3
REMARK    3  A    between atoms: C_2  and  C_4
REMARK    4  A    between atoms: C_2  and  N_5
REMARK    5  A    between atoms: C_9  and  N_10
REMARK    6  A    between atoms: C_11  and  C_13
REMARK                            x       y       z     vdW  Elec       q    Type
REMARK                         _______ _______ _______ _____ _____    ______ ____
ROOT
ATOM      1  N   UNL     1       3.039   4.082  19.004  0.00  0.00    +0.000 N 
ATOM      2  N   UNL     1       3.802   3.376  18.118  0.00  0.00    +0.000 NA
ATOM      3  C   UNL     1       4.610   4.282  17.592  0.00  0.00    +0.000 A 
ATOM      4  C   UNL     1       4.374   5.569  18.073  0.00  0.00    +0.000 A 
ATOM      5  C   UNL     1       3.367   5.447  19.012  0.00  0.00    +0.000 A 
ATOM      6  C   UNL     1       5.200   6.620  17.449  0.00  0.00    +0.000 C 
ATOM      7  S   UNL     1       5.967   5.807  15.946  0.00  0.00    +0.000 S 
ATOM      8  O   UNL     1       7.514   6.074  16.006  0.00  0.00    +0.000 OA
ATOM      9  C   UNL     1       5.657   4.084  16.576  0.00  0.00    +0.000 C 
ENDROOT
BRANCH   1  11
ATOM     10  C   UNL     1       2.848   2.847  21.129  0.00  0.00    +0.000 C 
ATOM     11  C   UNL     1       2.115   3.280  19.837  0.00  0.00    +0.000 C 
ATOM     12  C   UNL     1       1.687   2.011  19.064  0.00  0.00    +0.000 C 
ATOM     13  C   UNL     1       0.828   4.005  20.262  0.00  0.00    +0.000 C 
ENDBRANCH   1  11
BRANCH   5  14
ATOM     14  N   UNL     1       2.782   6.465  19.761  0.00  0.00    +0.000 N 
ATOM     15  C   UNL     1       2.088   7.603  19.222  0.00  0.00    +0.000 C 
ATOM     16  O   UNL     1       1.994   7.794  18.023  0.00  0.00    +0.000 OA
ATOM     17  H   UNL     1       2.861   6.464  20.767  0.00  0.00    +0.000 HD
BRANCH  15  18
ATOM     18  C   UNL     1       1.553   8.475  20.244  0.00  0.00    +0.000 A 
ATOM     19  C   UNL     1       1.384   8.298  21.604  0.00  0.00    +0.000 A 
ATOM     20  C   UNL     1       0.851   9.510  22.105  0.00  0.00    +0.000 A 
ATOM     21  C   UNL     1       0.706  10.347  21.025  0.00  0.00    +0.000 A 
ATOM     22 BR   UNL     1       0.057  12.092  21.095  0.00  0.00    +0.000 Br
ATOM     23  O   UNL     1       1.121   9.727  19.885  0.00  0.00    +0.000 OA
ENDBRANCH  15  18
ENDBRANCH   5  14
TORSDOF 3
ENDMDL
MODEL 2
REMARK VINA RESULT:      -7.7      4.943      7.811
REMARK  Name = 
REMARK  6 active torsions:
REMARK  status: ('A' for Active; 'I' for Inactive)
REMARK    1  A    between atoms: C_1  and  C_2
REMARK    2  A    between atoms: C_2  and  C_3
REMARK    3  A    between atoms: C_2  and  C_4
REMARK    4  A    between atoms: C_2  and  N_5
REMARK    5  A    between atoms: C_9  and  N_10
REMARK    6  A    between atoms: C_11  and  C_13
REMARK                            x       y       z     vdW  Elec       q    Type
REMARK                         _______ _______ _______ _____ _____    ______ ____
ROOT
ATOM      1  N   UNL     1       5.735   4.953  18.273  0.00  0.00    +0.000 N 
ATOM      2  N   UNL     1       4.960   5.045  19.394  0.00  0.00    +0.000 NA
ATOM      3  C   UNL     1       3.836   4.432  19.062  0.00  0.00    +0.000 A 
ATOM      4  C   UNL     1       3.829   3.977  17.745  0.00  0.00    +0.000 A 
ATOM      5  C   UNL     1       5.072   4.290  17.227  0.00  0.00    +0.000 A 
ATOM      6  C   UNL     1       2.561   3.362  17.312  0.00  0.00    +0.000 C 
ATOM      7  S   UNL     1       1.321   3.819  18.639  0.00  0.00    +0.000 S 
ATOM      8  O   UNL     1       0.610   2.493  19.095  0.00  0.00    +0.000 OA
ATOM      9  C   UNL     1       2.637   4.223  19.891  0.00  0.00    +0.000 C 
ENDROOT
BRANCH   1  11
ATOM     10  C   UNL     1       7.227   6.828  17.696  0.00  0.00    +0.000 C 
ATOM     11  C   UNL     1       7.120   5.458  18.406  0.00  0.00    +0.000 C 
ATOM     12  C   UNL     1       8.100   4.472  17.728  0.00  0.00    +0.000 C 
ATOM     13  C   UNL     1       7.604   5.652  19.852  0.00  0.00    +0.000 C 
ENDBRANCH   1  11
BRANCH   5  14
ATOM     14  N   UNL     1       5.538   4.043  15.938  0.00  0.00    +0.000 N 
ATOM     15  C   UNL     1       5.696   5.029  14.904  0.00  0.00    +0.000 C 
ATOM     16  O   UNL     1       5.380   6.194  15.069  0.00  0.00    +0.000 OA
ATOM     17  H   UNL     1       5.758   3.100  15.651  0.00  0.00    +0.000 HD
BRANCH  15  18
ATOM     18  C   UNL     1       6.235   4.483  13.679  0.00  0.00    +0.000 A 
ATOM     19  C   UNL     1       7.202   4.957  12.812  0.00  0.00    +0.000 A 
ATOM     20  C   UNL     1       7.349   3.979  11.799  0.00  0.00    +0.000 A 
ATOM     21  C   UNL     1       6.453   2.979  12.092  0.00  0.00    +0.000 A 
ATOM     22 BR   UNL     1       6.219   1.420  11.099  0.00  0.00    +0.000 Br
ATOM     23  O   UNL     1       5.763   3.277  13.227  0.00  0.00    +0.000 OA
ENDBRANCH  15  18
ENDBRANCH   5  14
TORSDOF 3
ENDMDL
MODEL 3
REMARK VINA RESULT:      -7.5      0.977      1.172
REMARK  Name = 
REMARK  6 active torsions:
REMARK  status: ('A' for Active; 'I' for Inactive)
REMARK    1  A    between atoms: C_1  and  C_2
REMARK    2  A    between atoms: C_2  and  C_3
REMARK    3  A    between atoms: C_2  and  C_4
REMARK    4  A    between atoms: C_2  and  N_5
REMARK    5  A    between atoms: C_9  and  N_10
REMARK    6  A    between atoms: C_11  and  C_13
REMARK                            x       y       z     vdW  Elec       q    Type
REMARK                         _______ _______ _______ _____ _____    ______ ____
ROOT
ATOM      1  N   UNL     1       2.909   4.303  18.840  0.00  0.00    +0.000 N 
ATOM      2  N   UNL     1       3.694   3.503  18.060  0.00  0.00    +0.000 NA
ATOM      3  C   UNL     1       4.525   4.343  17.467  0.00  0.00    +0.000 A 
ATOM      4  C   UNL     1       4.285   5.675  17.799  0.00  0.00    +0.000 A 
ATOM      5  C   UNL     1       3.247   5.660  18.711  0.00  0.00    +0.000 A 
ATOM      6  C   UNL     1       5.138   6.649  17.093  0.00  0.00    +0.000 C 
ATOM      7  S   UNL     1       5.947   5.677  15.712  0.00  0.00    +0.000 S 
ATOM      8  O   UNL     1       7.494   5.942  15.794  0.00  0.00    +0.000 OA
ATOM      9  C   UNL     1       5.603   4.033  16.513  0.00  0.00    +0.000 C 
ENDROOT
BRANCH   1  11
ATOM     10  C   UNL     1       2.742   2.791  20.779  0.00  0.00    +0.000 C 
ATOM     11  C   UNL     1       1.952   3.599  19.723  0.00  0.00    +0.000 C 
ATOM     12  C   UNL     1       1.098   2.617  18.888  0.00  0.00    +0.000 C 
ATOM     13  C   UNL     1       0.976   4.513  20.482  0.00  0.00    +0.000 C 
ENDBRANCH   1  11
BRANCH   5  14
ATOM     14  N   UNL     1       2.646   6.755  19.327  0.00  0.00    +0.000 N 
ATOM     15  C   UNL     1       2.041   7.866  18.646  0.00  0.00    +0.000 C 
ATOM     16  O   UNL     1       2.048   7.961  17.431  0.00  0.00    +0.000 OA
ATOM     17  H   UNL     1       2.647   6.834  20.334  0.00  0.00    +0.000 HD
BRANCH  15  18
ATOM     18  C   UNL     1       1.464   8.837  19.548  0.00  0.00    +0.000 A 
ATOM     19  C   UNL     1       1.136  10.169  19.374  0.00  0.00    +0.000 A 
ATOM     20  C   UNL     1       0.562  10.605  20.593  0.00  0.00    +0.000 A 
ATOM     21  C   UNL     1       0.592   9.527  21.444  0.00  0.00    +0.000 A 
ATOM     22 BR   UNL     1      -0.050   9.520  23.192  0.00  0.00    +0.000 Br
ATOM     23  O   UNL     1       1.146   8.448  20.825  0.00  0.00    +0.000 OA
ENDBRANCH  15  18
ENDBRANCH   5  14
TORSDOF 3
ENDMDL
MODEL 4
REMARK VINA RESULT:      -7.3      3.466      6.361
REMARK  Name = 
REMARK  6 active torsions:
REMARK  status: ('A' for Active; 'I' for Inactive)
REMARK    1  A    between atoms: C_1  and  C_2
REMARK    2  A    between atoms: C_2  and  C_3
REMARK    3  A    between atoms: C_2  and  C_4
REMARK    4  A    between atoms: C_2  and  N_5
REMARK    5  A    between atoms: C_9  and  N_10
REMARK    6  A    between atoms: C_11  and  C_13
REMARK                            x       y       z     vdW  Elec       q    Type
REMARK                         _______ _______ _______ _____ _____    ______ ____
ROOT
ATOM      1  N   UNL     1       2.750   4.516  19.776  0.00  0.00    +0.000 N 
ATOM      2  N   UNL     1       2.023   5.166  20.732  0.00  0.00    +0.000 NA
ATOM      3  C   UNL     1       1.839   6.377  20.233  0.00  0.00    +0.000 A 
ATOM      4  C   UNL     1       2.459   6.558  18.997  0.00  0.00    +0.000 A 
ATOM      5  C   UNL     1       3.036   5.343  18.678  0.00  0.00    +0.000 A 
ATOM      6  C   UNL     1       2.347   7.921  18.447  0.00  0.00    +0.000 C 
ATOM      7  S   UNL     1       1.733   8.972  19.869  0.00  0.00    +0.000 S 
ATOM      8  O   UNL     1       0.485   9.777  19.355  0.00  0.00    +0.000 OA
ATOM      9  C   UNL     1       1.113   7.507  20.835  0.00  0.00    +0.000 C 
ENDROOT
BRANCH   1  11
ATOM     10  C   UNL     1       2.160   2.243  19.028  0.00  0.00    +0.000 C 
ATOM     11  C   UNL     1       2.997   3.078  20.025  0.00  0.00    +0.000 C 
ATOM     12  C   UNL     1       2.557   2.716  21.463  0.00  0.00    +0.000 C 
ATOM     13  C   UNL     1       4.462   2.636  19.876  0.00  0.00    +0.000 C 
ENDBRANCH   1  11
BRANCH   5  14
ATOM     14  N   UNL     1       3.776   5.031  17.541  0.00  0.00    +0.000 N 
ATOM     15  C   UNL     1       5.146   5.399  17.310  0.00  0.00    +0.000 C 
ATOM     16  O   UNL     1       5.776   6.076  18.105  0.00  0.00    +0.000 OA
ATOM     17  H   UNL     1       3.342   4.541  16.772  0.00  0.00    +0.000 HD
BRANCH  15  18
ATOM     18  C   UNL     1       5.662   4.904  16.054  0.00  0.00    +0.000 A 
ATOM     19  C   UNL     1       5.355   3.775  15.317  0.00  0.00    +0.000 A 
ATOM     20  C   UNL     1       6.148   3.830  14.146  0.00  0.00    +0.000 A 
ATOM     21  C   UNL     1       6.906   4.972  14.244  0.00  0.00    +0.000 A 
ATOM     22 BR   UNL     1       8.130   5.561  12.969  0.00  0.00    +0.000 Br
ATOM     23  O   UNL     1       6.627   5.630  15.402  0.00  0.00    +0.000 OA
ENDBRANCH  15  18
ENDBRANCH   5  14
TORSDOF 3
ENDMDL
MODEL 5
REMARK VINA RESULT:      -7.2      3.542      6.327
REMARK  Name = 
REMARK  6 active torsions:
REMARK  status: ('A' for Active; 'I' for Inactive)
REMARK    1  A    between atoms: C_1  and  C_2
REMARK    2  A    between atoms: C_2  and  C_3
REMARK    3  A    between atoms: C_2  and  C_4
REMARK    4  A    between atoms: C_2  and  N_5
REMARK    5  A    between atoms: C_9  and  N_10
REMARK    6  A    between atoms: C_11  and  C_13
REMARK                            x       y       z     vdW  Elec       q    Type
REMARK                         _______ _______ _______ _____ _____    ______ ____
ROOT
ATOM      1  N   UNL     1       2.614   4.475  19.894  0.00  0.00    +0.000 N 
ATOM      2  N   UNL     1       1.815   5.029  20.853  0.00  0.00    +0.000 NA
ATOM      3  C   UNL     1       1.644   6.278  20.451  0.00  0.00    +0.000 A 
ATOM      4  C   UNL     1       2.341   6.575  19.281  0.00  0.00    +0.000 A 
ATOM      5  C   UNL     1       2.958   5.401  18.896  0.00  0.00    +0.000 A 
ATOM      6  C   UNL     1       2.242   7.981  18.846  0.00  0.00    +0.000 C 
ATOM      7  S   UNL     1       1.518   8.894  20.312  0.00  0.00    +0.000 S 
ATOM      8  O   UNL     1       0.292   9.727  19.788  0.00  0.00    +0.000 OA
ATOM      9  C   UNL     1       0.860   7.342  21.100  0.00  0.00    +0.000 C 
ENDROOT
BRANCH   1  11
ATOM     10  C   UNL     1       2.063   2.266  18.950  0.00  0.00    +0.000 C 
ATOM     11  C   UNL     1       2.869   3.024  20.031  0.00  0.00    +0.000 C 
ATOM     12  C   UNL     1       2.400   2.542  21.424  0.00  0.00    +0.000 C 
ATOM     13  C   UNL     1       4.341   2.606  19.882  0.00  0.00    +0.000 C 
ENDBRANCH   1  11
BRANCH   5  14
ATOM     14  N   UNL     1       3.777   5.200  17.787  0.00  0.00    +0.000 N 
ATOM     15  C   UNL     1       5.210   5.315  17.776  0.00  0.00    +0.000 C 
ATOM     16  O   UNL     1       5.838   5.654  18.764  0.00  0.00    +0.000 OA
ATOM     17  H   UNL     1       3.369   4.993  16.887  0.00  0.00    +0.000 HD
BRANCH  15  18
ATOM     18  C   UNL     1       5.793   5.013  16.488  0.00  0.00    +0.000 A 
ATOM     19  C   UNL     1       7.079   5.166  16.006  0.00  0.00    +0.000 A 
ATOM     20  C   UNL     1       7.077   4.660  14.684  0.00  0.00    +0.000 A 
ATOM     21  C   UNL     1       5.790   4.249  14.428  0.00  0.00    +0.000 A 
ATOM     22 BR   UNL     1       5.204   3.481  12.836  0.00  0.00    +0.000 Br
ATOM     23  O   UNL     1       4.997   4.466  15.513  0.00  0.00    +0.000 OA
ENDBRANCH  15  18
ENDBRANCH   5  14
TORSDOF 3
ENDMDL
MODEL 6
REMARK VINA RESULT:      -6.9      1.430      1.638
REMARK  Name = 
REMARK  6 active torsions:
REMARK  status: ('A' for Active; 'I' for Inactive)
REMARK    1  A    between atoms: C_1  and  C_2
REMARK    2  A    between atoms: C_2  and  C_3
REMARK    3  A    between atoms: C_2  and  C_4
REMARK    4  A    between atoms: C_2  and  N_5
REMARK    5  A    between atoms: C_9  and  N_10
REMARK    6  A    between atoms: C_11  and  C_13
REMARK                            x       y       z     vdW  Elec       q    Type
REMARK                         _______ _______ _______ _____ _____    ______ ____
ROOT
ATOM      1  N   UNL     1       3.256   3.817  17.936  0.00  0.00    +0.000 N 
ATOM      2  N   UNL     1       4.139   3.007  17.281  0.00  0.00    +0.000 NA
ATOM      3  C   UNL     1       4.892   3.844  16.586  0.00  0.00    +0.000 A 
ATOM      4  C   UNL     1       4.506   5.175  16.731  0.00  0.00    +0.000 A 
ATOM      5  C   UNL     1       3.454   5.172  17.627  0.00  0.00    +0.000 A 
ATOM      6  C   UNL     1       5.270   6.130  15.906  0.00  0.00    +0.000 C 
ATOM      7  S   UNL     1       6.208   5.073  14.679  0.00  0.00    +0.000 S 
ATOM      8  O   UNL     1       7.716   5.509  14.739  0.00  0.00    +0.000 OA
ATOM      9  C   UNL     1       6.019   3.524  15.693  0.00  0.00    +0.000 C 
ENDROOT
BRANCH   1  11
ATOM     10  C   UNL     1       3.093   2.982  20.250  0.00  0.00    +0.000 C 
ATOM     11  C   UNL     1       2.357   3.140  18.899  0.00  0.00    +0.000 C 
ATOM     12  C   UNL     1       1.991   1.735  18.368  0.00  0.00    +0.000 C 
ATOM     13  C   UNL     1       1.036   3.875  19.180  0.00  0.00    +0.000 C 
ENDBRANCH   1  11
BRANCH   5  14
ATOM     14  N   UNL     1       2.728   6.270  18.082  0.00  0.00    +0.000 N 
ATOM     15  C   UNL     1       2.735   6.775  19.427  0.00  0.00    +0.000 C 
ATOM     16  O   UNL     1       3.368   6.235  20.317  0.00  0.00    +0.000 OA
ATOM     17  H   UNL     1       2.101   6.756  17.458  0.00  0.00    +0.000 HD
BRANCH  15  18
ATOM     18  C   UNL     1       1.910   7.950  19.596  0.00  0.00    +0.000 A 
ATOM     19  C   UNL     1       1.487   8.910  18.695  0.00  0.00    +0.000 A 
ATOM     20  C   UNL     1       0.661   9.805  19.418  0.00  0.00    +0.000 A 
ATOM     21  C   UNL     1       0.645   9.355  20.716  0.00  0.00    +0.000 A 
ATOM     22 BR   UNL     1      -0.299  10.143  22.115  0.00  0.00    +0.000 Br
ATOM     23  O   UNL     1       1.407   8.233  20.840  0.00  0.00    +0.000 OA
ENDBRANCH  15  18
ENDBRANCH   5  14
TORSDOF 3
ENDMDL
MODEL 7
REMARK VINA RESULT:      -6.8      3.731      6.431
REMARK  Name = 
REMARK  6 active torsions:
REMARK  status: ('A' for Active; 'I' for Inactive)
REMARK    1  A    between atoms: C_1  and  C_2
REMARK    2  A    between atoms: C_2  and  C_3
REMARK    3  A    between atoms: C_2  and  C_4
REMARK    4  A    between atoms: C_2  and  N_5
REMARK    5  A    between atoms: C_9  and  N_10
REMARK    6  A    between atoms: C_11  and  C_13
REMARK                            x       y       z     vdW  Elec       q    Type
REMARK                         _______ _______ _______ _____ _____    ______ ____
ROOT
ATOM      1  N   UNL     1       2.679   4.384  20.093  0.00  0.00    +0.000 N 
ATOM      2  N   UNL     1       1.755   4.924  20.941  0.00  0.00    +0.000 NA
ATOM      3  C   UNL     1       1.618   6.170  20.521  0.00  0.00    +0.000 A 
ATOM      4  C   UNL     1       2.454   6.481  19.450  0.00  0.00    +0.000 A 
ATOM      5  C   UNL     1       3.135   5.317  19.147  0.00  0.00    +0.000 A 
ATOM      6  C   UNL     1       2.391   7.886  19.007  0.00  0.00    +0.000 C 
ATOM      7  S   UNL     1       1.470   8.784  20.367  0.00  0.00    +0.000 S 
ATOM      8  O   UNL     1       0.310   9.600  19.691  0.00  0.00    +0.000 OA
ATOM      9  C   UNL     1       0.741   7.221  21.064  0.00  0.00    +0.000 C 
ENDROOT
BRANCH   1  11
ATOM     10  C   UNL     1       2.038   2.147  19.280  0.00  0.00    +0.000 C 
ATOM     11  C   UNL     1       2.936   2.936  20.261  0.00  0.00    +0.000 C 
ATOM     12  C   UNL     1       2.583   2.509  21.705  0.00  0.00    +0.000 C 
ATOM     13  C   UNL     1       4.388   2.500  20.004  0.00  0.00    +0.000 C 
ENDBRANCH   1  11
BRANCH   5  14
ATOM     14  N   UNL     1       4.092   5.130  18.153  0.00  0.00    +0.000 N 
ATOM     15  C   UNL     1       3.907   4.366  16.950  0.00  0.00    +0.000 C 
ATOM     16  O   UNL     1       2.874   3.762  16.721  0.00  0.00    +0.000 OA
ATOM     17  H   UNL     1       5.019   5.515  18.264  0.00  0.00    +0.000 HD
BRANCH  15  18
ATOM     18  C   UNL     1       5.066   4.381  16.086  0.00  0.00    +0.000 A 
ATOM     19  C   UNL     1       6.390   4.692  16.333  0.00  0.00    +0.000 A 
ATOM     20  C   UNL     1       7.085   4.490  15.116  0.00  0.00    +0.000 A 
ATOM     21  C   UNL     1       6.147   4.089  14.196  0.00  0.00    +0.000 A 
ATOM     22 BR   UNL     1       6.501   3.664  12.416  0.00  0.00    +0.000 Br
ATOM     23  O   UNL     1       4.914   4.027  14.769  0.00  0.00    +0.000 OA
ENDBRANCH  15  18
ENDBRANCH   5  14
TORSDOF 3
ENDMDL
MODEL 8
REMARK VINA RESULT:      -6.7      1.362      1.380
REMARK  Name = 
REMARK  6 active torsions:
REMARK  status: ('A' for Active; 'I' for Inactive)
REMARK    1  A    between atoms: C_1  and  C_2
REMARK    2  A    between atoms: C_2  and  C_3
REMARK    3  A    between atoms: C_2  and  C_4
REMARK    4  A    between atoms: C_2  and  N_5
REMARK    5  A    between atoms: C_9  and  N_10
REMARK    6  A    between atoms: C_11  and  C_13
REMARK                            x       y       z     vdW  Elec       q    Type
REMARK                         _______ _______ _______ _____ _____    ______ ____
ROOT
ATOM      1  N   UNL     1       3.097   3.748  18.119  0.00  0.00    +0.000 N 
ATOM      2  N   UNL     1       3.974   2.986  17.401  0.00  0.00    +0.000 NA
ATOM      3  C   UNL     1       4.713   3.869  16.751  0.00  0.00    +0.000 A 
ATOM      4  C   UNL     1       4.324   5.187  16.985  0.00  0.00    +0.000 A 
ATOM      5  C   UNL     1       3.285   5.122  17.894  0.00  0.00    +0.000 A 
ATOM      6  C   UNL     1       5.072   6.196  16.213  0.00  0.00    +0.000 C 
ATOM      7  S   UNL     1       5.997   5.224  14.908  0.00  0.00    +0.000 S 
ATOM      8  O   UNL     1       7.505   5.663  14.974  0.00  0.00    +0.000 OA
ATOM      9  C   UNL     1       5.829   3.613  15.824  0.00  0.00    +0.000 C 
ENDROOT
BRANCH   1  11
ATOM     10  C   UNL     1       2.989   2.720  20.357  0.00  0.00    +0.000 C 
ATOM     11  C   UNL     1       2.215   3.007  19.049  0.00  0.00    +0.000 C 
ATOM     12  C   UNL     1       1.804   1.659  18.412  0.00  0.00    +0.000 C 
ATOM     13  C   UNL     1       0.918   3.738  19.434  0.00  0.00    +0.000 C 
ENDBRANCH   1  11
BRANCH   5  14
ATOM     14  N   UNL     1       2.561   6.184  18.428  0.00  0.00    +0.000 N 
ATOM     15  C   UNL     1       2.592   6.608  19.801  0.00  0.00    +0.000 C 
ATOM     16  O   UNL     1       3.246   6.020  20.644  0.00  0.00    +0.000 OA
ATOM     17  H   UNL     1       1.918   6.703  17.847  0.00  0.00    +0.000 HD
BRANCH  15  18
ATOM     18  C   UNL     1       1.762   7.765  20.056  0.00  0.00    +0.000 A 
ATOM     19  C   UNL     1       1.013   8.131  21.158  0.00  0.00    +0.000 A 
ATOM     20  C   UNL     1       0.440   9.389  20.856  0.00  0.00    +0.000 A 
ATOM     21  C   UNL     1       0.852   9.708  19.585  0.00  0.00    +0.000 A 
ATOM     22 BR   UNL     1       0.410  11.271  18.672  0.00  0.00    +0.000 Br
ATOM     23  O   UNL     1       1.649   8.725  19.083  0.00  0.00    +0.000 OA
ENDBRANCH  15  18
ENDBRANCH   5  14
TORSDOF 3
ENDMDL
MODEL 9
REMARK VINA RESULT:      -6.5      2.618      4.220
REMARK  Name = 
REMARK  6 active torsions:
REMARK  status: ('A' for Active; 'I' for Inactive)
REMARK    1  A    between atoms: C_1  and  C_2
REMARK    2  A    between atoms: C_2  and  C_3
REMARK    3  A    between atoms: C_2  and  C_4
REMARK    4  A    between atoms: C_2  and  N_5
REMARK    5  A    between atoms: C_9  and  N_10
REMARK    6  A    between atoms: C_11  and  C_13
REMARK                            x       y       z     vdW  Elec       q    Type
REMARK                         _______ _______ _______ _____ _____    ______ ____
ROOT
ATOM      1  N   UNL     1       4.564   5.145  17.323  0.00  0.00    +0.000 N 
ATOM      2  N   UNL     1       4.698   3.788  17.382  0.00  0.00    +0.000 NA
ATOM      3  C   UNL     1       3.537   3.367  17.855  0.00  0.00    +0.000 A 
ATOM      4  C   UNL     1       2.657   4.407  18.149  0.00  0.00    +0.000 A 
ATOM      5  C   UNL     1       3.307   5.571  17.785  0.00  0.00    +0.000 A 
ATOM      6  C   UNL     1       1.382   3.982  18.756  0.00  0.00    +0.000 C 
ATOM      7  S   UNL     1       1.650   2.196  19.251  0.00  0.00    +0.000 S 
ATOM      8  O   UNL     1       0.456   1.361  18.663  0.00  0.00    +0.000 OA
ATOM      9  C   UNL     1       3.112   1.982  18.121  0.00  0.00    +0.000 C 
ENDROOT
BRANCH   1  11
ATOM     10  C   UNL     1       5.192   6.585  15.424  0.00  0.00    +0.000 C 
ATOM     11  C   UNL     1       5.692   5.876  16.704  0.00  0.00    +0.000 C 
ATOM     12  C   UNL     1       6.806   4.877  16.312  0.00  0.00    +0.000 C 
ATOM     13  C   UNL     1       6.340   6.947  17.597  0.00  0.00    +0.000 C 
ENDBRANCH   1  11
BRANCH   5  14
ATOM     14  N   UNL     1       2.833   6.876  17.898  0.00  0.00    +0.000 N 
ATOM     15  C   UNL     1       2.329   7.478  19.101  0.00  0.00    +0.000 C 
ATOM     16  O   UNL     1       2.232   6.856  20.144  0.00  0.00    +0.000 OA
ATOM     17  H   UNL     1       2.786   7.470  17.083  0.00  0.00    +0.000 HD
BRANCH  15  18
ATOM     18  C   UNL     1       1.941   8.860  18.922  0.00  0.00    +0.000 A 
ATOM     19  C   UNL     1       2.182   9.755  17.897  0.00  0.00    +0.000 A 
ATOM     20  C   UNL     1       1.520  10.956  18.246  0.00  0.00    +0.000 A 
ATOM     21  C   UNL     1       0.933  10.734  19.469  0.00  0.00    +0.000 A 
ATOM     22 BR   UNL     1      -0.088  11.975  20.412  0.00  0.00    +0.000 Br
ATOM     23  O   UNL     1       1.189   9.467  19.896  0.00  0.00    +0.000 OA
ENDBRANCH  15  18
ENDBRANCH   5  14
TORSDOF 3
ENDMDL
