MODEL 1
REMARK VINA RESULT:      -8.1      0.000      0.000
REMARK  Name = 
REMARK  7 active torsions:
REMARK  status: ('A' for Active; 'I' for Inactive)
REMARK    1  A    between atoms: C_6  and  N_7
REMARK    2  A    between atoms: N_11  and  C_12
REMARK    3  A    between atoms: C_12  and  C_13
REMARK    4  A    between atoms: C_13  and  C_14
REMARK    5  A    between atoms: C_14  and  C_15
REMARK    6  A    between atoms: C_15  and  O_16
REMARK    7  A    between atoms: O_16  and  C_17
REMARK                            x       y       z     vdW  Elec       q    Type
REMARK                         _______ _______ _______ _____ _____    ______ ____
ROOT
ATOM      1  N   UNL     1       4.833   4.938  18.146  0.00  0.00    +0.000 N 
ATOM      2  C   UNL     1       5.896   5.192  19.123  0.00  0.00    +0.000 C 
ATOM      3  C   UNL     1       7.275   5.211  18.470  0.00  0.00    +0.000 C 
ATOM      4  C   UNL     1       7.392   5.782  17.055  0.00  0.00    +0.000 C 
ATOM      5  N   UNL     1       6.622   6.980  16.706  0.00  0.00    +0.000 NA
ATOM      6  C   UNL     1       5.236   6.638  16.347  0.00  0.00    +0.000 C 
ATOM      7  C   UNL     1       4.304   6.154  17.478  0.00  0.00    +0.000 C 
ENDROOT
BRANCH   1  13
ATOM      8 CL   UNL     1       0.873   3.157  21.057  0.00  0.00    +0.000 Cl
ATOM      9  C   UNL     1       1.994   3.075  19.739  0.00  0.00    +0.000 A 
ATOM     10  C   UNL     1       1.926   1.948  18.920  0.00  0.00    +0.000 A 
ATOM     11  C   UNL     1       2.808   1.811  17.857  0.00  0.00    +0.000 A 
ATOM     12  C   UNL     1       3.773   2.792  17.619  0.00  0.00    +0.000 A 
ATOM     13  C   UNL     1       3.866   3.953  18.411  0.00  0.00    +0.000 A 
ATOM     14  C   UNL     1       2.938   4.085  19.482  0.00  0.00    +0.000 A 
ATOM     15 CL   UNL     1       2.907   5.535  20.448  0.00  0.00    +0.000 Cl
ENDBRANCH   1  13
BRANCH   5  16
ATOM     16  C   UNL     1       6.728   8.097  17.640  0.00  0.00    +0.000 C 
BRANCH  16  17
ATOM     17  C   UNL     1       8.058   8.853  17.500  0.00  0.00    +0.000 C 
BRANCH  17  18
ATOM     18  C   UNL     1       8.801   9.042  18.827  0.00  0.00    +0.000 C 
BRANCH  18  19
ATOM     19  C   UNL     1       8.997  10.524  19.134  0.00  0.00    +0.000 C 
BRANCH  19  20
ATOM     20  O   UNL     1      10.387  10.852  19.103  0.00  0.00    +0.000 OA
BRANCH  20  21
ATOM     21  C   UNL     1      10.647  12.063  18.508  0.00  0.00    +0.000 A 
ATOM     22  C   UNL     1      11.597  12.256  17.505  0.00  0.00    +0.000 A 
ATOM     23  C   UNL     1      11.798  13.512  16.927  0.00  0.00    +0.000 A 
ATOM     24  C   UNL     1      11.006  14.577  17.373  0.00  0.00    +0.000 A 
ATOM     25  S   UNL     1      11.010  16.219  16.855  0.00  0.00    +0.000 S 
ATOM     26  C   UNL     1       9.761  16.561  17.971  0.00  0.00    +0.000 A 
ATOM     27  N   UNL     1       9.335  15.557  18.703  0.00  0.00    +0.000 NA
ATOM     28  C   UNL     1      10.039  14.411  18.368  0.00  0.00    +0.000 A 
ATOM     29  C   UNL     1       9.858  13.133  18.937  0.00  0.00    +0.000 A 
ENDBRANCH  20  21
ENDBRANCH  19  20
ENDBRANCH  18  19
ENDBRANCH  17  18
ENDBRANCH  16  17
ENDBRANCH   5  16
TORSDOF 7
ENDMDL
MODEL 2
REMARK VINA RESULT:      -8.0      1.575      2.058
REMARK  Name = 
REMARK  7 active torsions:
REMARK  status: ('A' for Active; 'I' for Inactive)
REMARK    1  A    between atoms: C_6  and  N_7
REMARK    2  A    between atoms: N_11  and  C_12
REMARK    3  A    between atoms: C_12  and  C_13
REMARK    4  A    between atoms: C_13  and  C_14
REMARK    5  A    between atoms: C_14  and  C_15
REMARK    6  A    between atoms: C_15  and  O_16
REMARK    7  A    between atoms: O_16  and  C_17
REMARK                            x       y       z     vdW  Elec       q    Type
REMARK                         _______ _______ _______ _____ _____    ______ ____
ROOT
ATOM      1  N   UNL     1       4.593   5.375  18.512  0.00  0.00    +0.000 N 
ATOM      2  C   UNL     1       5.843   4.701  18.879  0.00  0.00    +0.000 C 
ATOM      3  C   UNL     1       6.669   4.329  17.652  0.00  0.00    +0.000 C 
ATOM      4  C   UNL     1       6.644   5.281  16.454  0.00  0.00    +0.000 C 
ATOM      5  N   UNL     1       6.669   6.726  16.694  0.00  0.00    +0.000 NA
ATOM      6  C   UNL     1       5.324   7.240  17.004  0.00  0.00    +0.000 C 
ATOM      7  C   UNL     1       4.707   6.848  18.363  0.00  0.00    +0.000 C 
ENDROOT
BRANCH   1  13
ATOM      8 CL   UNL     1       0.575   2.031  18.540  0.00  0.00    +0.000 Cl
ATOM      9  C   UNL     1       1.473   3.388  19.134  0.00  0.00    +0.000 A 
ATOM     10  C   UNL     1       0.930   4.083  20.214  0.00  0.00    +0.000 A 
ATOM     11  C   UNL     1       1.590   5.192  20.727  0.00  0.00    +0.000 A 
ATOM     12  C   UNL     1       2.787   5.620  20.150  0.00  0.00    +0.000 A 
ATOM     13  C   UNL     1       3.379   4.939  19.069  0.00  0.00    +0.000 A 
ATOM     14  C   UNL     1       2.697   3.791  18.573  0.00  0.00    +0.000 A 
ATOM     15 CL   UNL     1       3.407   2.823  17.309  0.00  0.00    +0.000 Cl
ENDBRANCH   1  13
BRANCH   5  16
ATOM     16  C   UNL     1       7.704   7.200  17.607  0.00  0.00    +0.000 C 
BRANCH  16  17
ATOM     17  C   UNL     1       7.898   8.722  17.534  0.00  0.00    +0.000 C 
BRANCH  17  18
ATOM     18  C   UNL     1       8.747   9.290  18.677  0.00  0.00    +0.000 C 
BRANCH  18  19
ATOM     19  C   UNL     1       9.113  10.747  18.409  0.00  0.00    +0.000 C 
BRANCH  19  20
ATOM     20  O   UNL     1      10.334  11.076  19.073  0.00  0.00    +0.000 OA
BRANCH  20  21
ATOM     21  C   UNL     1      10.582  12.427  19.120  0.00  0.00    +0.000 A 
ATOM     22  C   UNL     1      10.818  13.140  20.296  0.00  0.00    +0.000 A 
ATOM     23  C   UNL     1      11.084  14.511  20.273  0.00  0.00    +0.000 A 
ATOM     24  C   UNL     1      11.122  15.154  19.029  0.00  0.00    +0.000 A 
ATOM     25  S   UNL     1      11.430  16.811  18.677  0.00  0.00    +0.000 S 
ATOM     26  C   UNL     1      11.244  16.478  17.010  0.00  0.00    +0.000 A 
ATOM     27  N   UNL     1      10.970  15.236  16.685  0.00  0.00    +0.000 NA
ATOM     28  C   UNL     1      10.900  14.463  17.834  0.00  0.00    +0.000 A 
ATOM     29  C   UNL     1      10.631  13.080  17.886  0.00  0.00    +0.000 A 
ENDBRANCH  20  21
ENDBRANCH  19  20
ENDBRANCH  18  19
ENDBRANCH  17  18
ENDBRANCH  16  17
ENDBRANCH   5  16
TORSDOF 7
ENDMDL
MODEL 3
REMARK VINA RESULT:      -7.7      2.728      3.369
REMARK  Name = 
REMARK  7 active torsions:
REMARK  status: ('A' for Active; 'I' for Inactive)
REMARK    1  A    between atoms: C_6  and  N_7
REMARK    2  A    between atoms: N_11  and  C_12
REMARK    3  A    between atoms: C_12  and  C_13
REMARK    4  A    between atoms: C_13  and  C_14
REMARK    5  A    between atoms: C_14  and  C_15
REMARK    6  A    between atoms: C_15  and  O_16
REMARK    7  A    between atoms: O_16  and  C_17
REMARK                            x       y       z     vdW  Elec       q    Type
REMARK                         _______ _______ _______ _____ _____    ______ ____
ROOT
ATOM      1  N   UNL     1       4.837   4.933  18.099  0.00  0.00    +0.000 N 
ATOM      2  C   UNL     1       5.910   5.199  19.062  0.00  0.00    +0.000 C 
ATOM      3  C   UNL     1       7.283   5.207  18.397  0.00  0.00    +0.000 C 
ATOM      4  C   UNL     1       7.387   5.758  16.973  0.00  0.00    +0.000 C 
ATOM      5  N   UNL     1       6.615   6.951  16.614  0.00  0.00    +0.000 NA
ATOM      6  C   UNL     1       5.225   6.607  16.273  0.00  0.00    +0.000 C 
ATOM      7  C   UNL     1       4.304   6.141  17.419  0.00  0.00    +0.000 C 
ENDROOT
BRANCH   1  13
ATOM      8 CL   UNL     1       0.906   3.196  21.076  0.00  0.00    +0.000 Cl
ATOM      9  C   UNL     1       2.012   3.095  19.746  0.00  0.00    +0.000 A 
ATOM     10  C   UNL     1       1.934   1.959  18.943  0.00  0.00    +0.000 A 
ATOM     11  C   UNL     1       2.804   1.807  17.871  0.00  0.00    +0.000 A 
ATOM     12  C   UNL     1       3.767   2.783  17.611  0.00  0.00    +0.000 A 
ATOM     13  C   UNL     1       3.871   3.953  18.387  0.00  0.00    +0.000 A 
ATOM     14  C   UNL     1       2.955   4.100  19.467  0.00  0.00    +0.000 A 
ATOM     15 CL   UNL     1       2.938   5.563  20.415  0.00  0.00    +0.000 Cl
ENDBRANCH   1  13
BRANCH   5  16
ATOM     16  C   UNL     1       6.732   8.082  17.531  0.00  0.00    +0.000 C 
BRANCH  16  17
ATOM     17  C   UNL     1       8.194   8.458  17.814  0.00  0.00    +0.000 C 
BRANCH  17  18
ATOM     18  C   UNL     1       8.400   9.948  18.109  0.00  0.00    +0.000 C 
BRANCH  18  19
ATOM     19  C   UNL     1       9.383  10.143  19.260  0.00  0.00    +0.000 C 
BRANCH  19  20
ATOM     20  O   UNL     1       9.760  11.518  19.355  0.00  0.00    +0.000 OA
BRANCH  20  21
ATOM     21  C   UNL     1       9.200  12.162  20.432  0.00  0.00    +0.000 A 
ATOM     22  C   UNL     1       8.880  13.520  20.454  0.00  0.00    +0.000 A 
ATOM     23  C   UNL     1       8.293  14.110  21.576  0.00  0.00    +0.000 A 
ATOM     24  C   UNL     1       8.017  13.294  22.680  0.00  0.00    +0.000 A 
ATOM     25  S   UNL     1       7.297  13.719  24.185  0.00  0.00    +0.000 S 
ATOM     26  C   UNL     1       7.442  12.095  24.699  0.00  0.00    +0.000 A 
ATOM     27  N   UNL     1       7.983  11.255  23.847  0.00  0.00    +0.000 NA
ATOM     28  C   UNL     1       8.315  11.929  22.682  0.00  0.00    +0.000 A 
ATOM     29  C   UNL     1       8.910  11.359  21.538  0.00  0.00    +0.000 A 
ENDBRANCH  20  21
ENDBRANCH  19  20
ENDBRANCH  18  19
ENDBRANCH  17  18
ENDBRANCH  16  17
ENDBRANCH   5  16
TORSDOF 7
ENDMDL
MODEL 4
REMARK VINA RESULT:      -7.7      1.119      1.387
REMARK  Name = 
REMARK  7 active torsions:
REMARK  status: ('A' for Active; 'I' for Inactive)
REMARK    1  A    between atoms: C_6  and  N_7
REMARK    2  A    between atoms: N_11  and  C_12
REMARK    3  A    between atoms: C_12  and  C_13
REMARK    4  A    between atoms: C_13  and  C_14
REMARK    5  A    between atoms: C_14  and  C_15
REMARK    6  A    between atoms: C_15  and  O_16
REMARK    7  A    between atoms: O_16  and  C_17
REMARK                            x       y       z     vdW  Elec       q    Type
REMARK                         _______ _______ _______ _____ _____    ______ ____
ROOT
ATOM      1  N   UNL     1       4.799   4.855  18.012  0.00  0.00    +0.000 N 
ATOM      2  C   UNL     1       5.943   5.013  18.915  0.00  0.00    +0.000 C 
ATOM      3  C   UNL     1       7.270   4.991  18.162  0.00  0.00    +0.000 C 
ATOM      4  C   UNL     1       7.313   5.615  16.765  0.00  0.00    +0.000 C 
ATOM      5  N   UNL     1       6.584   6.863  16.522  0.00  0.00    +0.000 NA
ATOM      6  C   UNL     1       5.159   6.607  16.255  0.00  0.00    +0.000 C 
ATOM      7  C   UNL     1       4.288   6.123  17.434  0.00  0.00    +0.000 C 
ENDROOT
BRANCH   1  13
ATOM      8 CL   UNL     1       0.738   3.334  20.931  0.00  0.00    +0.000 Cl
ATOM      9  C   UNL     1       1.883   3.151  19.644  0.00  0.00    +0.000 A 
ATOM     10  C   UNL     1       1.806   1.981  18.889  0.00  0.00    +0.000 A 
ATOM     11  C   UNL     1       2.706   1.764  17.855  0.00  0.00    +0.000 A 
ATOM     12  C   UNL     1       3.699   2.707  17.584  0.00  0.00    +0.000 A 
ATOM     13  C   UNL     1       3.804   3.909  18.311  0.00  0.00    +0.000 A 
ATOM     14  C   UNL     1       2.856   4.122  19.352  0.00  0.00    +0.000 A 
ATOM     15 CL   UNL     1       2.841   5.626  20.233  0.00  0.00    +0.000 Cl
ENDBRANCH   1  13
BRANCH   5  16
ATOM     16  C   UNL     1       6.817   7.933  17.487  0.00  0.00    +0.000 C 
BRANCH  16  17
ATOM     17  C   UNL     1       8.289   8.370  17.534  0.00  0.00    +0.000 C 
BRANCH  17  18
ATOM     18  C   UNL     1       8.599   9.373  18.651  0.00  0.00    +0.000 C 
BRANCH  18  19
ATOM     19  C   UNL     1       8.669  10.794  18.101  0.00  0.00    +0.000 C 
BRANCH  19  20
ATOM     20  O   UNL     1      10.015  11.118  17.749  0.00  0.00    +0.000 OA
BRANCH  20  21
ATOM     21  C   UNL     1      10.448  12.307  18.285  0.00  0.00    +0.000 A 
ATOM     22  C   UNL     1      10.438  12.601  19.649  0.00  0.00    +0.000 A 
ATOM     23  C   UNL     1      10.911  13.823  20.132  0.00  0.00    +0.000 A 
ATOM     24  C   UNL     1      11.414  14.746  19.207  0.00  0.00    +0.000 A 
ATOM     25  S   UNL     1      12.070  16.313  19.491  0.00  0.00    +0.000 S 
ATOM     26  C   UNL     1      12.333  16.493  17.811  0.00  0.00    +0.000 A 
ATOM     27  N   UNL     1      11.974  15.486  17.048  0.00  0.00    +0.000 NA
ATOM     28  C   UNL     1      11.448  14.474  17.837  0.00  0.00    +0.000 A 
ATOM     29  C   UNL     1      10.961  13.234  17.376  0.00  0.00    +0.000 A 
ENDBRANCH  20  21
ENDBRANCH  19  20
ENDBRANCH  18  19
ENDBRANCH  17  18
ENDBRANCH  16  17
ENDBRANCH   5  16
TORSDOF 7
ENDMDL
MODEL 5
REMARK VINA RESULT:      -7.4      6.105      9.349
REMARK  Name = 
REMARK  7 active torsions:
REMARK  status: ('A' for Active; 'I' for Inactive)
REMARK    1  A    between atoms: C_6  and  N_7
REMARK    2  A    between atoms: N_11  and  C_12
REMARK    3  A    between atoms: C_12  and  C_13
REMARK    4  A    between atoms: C_13  and  C_14
REMARK    5  A    between atoms: C_14  and  C_15
REMARK    6  A    between atoms: C_15  and  O_16
REMARK    7  A    between atoms: O_16  and  C_17
REMARK                            x       y       z     vdW  Elec       q    Type
REMARK                         _______ _______ _______ _____ _____    ______ ____
ROOT
ATOM      1  N   UNL     1       1.095   9.403  19.459  0.00  0.00    +0.000 N 
ATOM      2  C   UNL     1       0.909   8.811  18.130  0.00  0.00    +0.000 C 
ATOM      3  C   UNL     1       2.194   8.176  17.607  0.00  0.00    +0.000 C 
ATOM      4  C   UNL     1       3.123   7.499  18.617  0.00  0.00    +0.000 C 
ATOM      5  N   UNL     1       2.538   6.702  19.698  0.00  0.00    +0.000 NA
ATOM      6  C   UNL     1       2.106   7.554  20.817  0.00  0.00    +0.000 C 
ATOM      7  C   UNL     1       0.880   8.464  20.589  0.00  0.00    +0.000 C 
ENDROOT
BRANCH   1  13
ATOM      8 CL   UNL     1       1.608  14.553  18.719  0.00  0.00    +0.000 Cl
ATOM      9  C   UNL     1       0.844  13.145  19.379  0.00  0.00    +0.000 A 
ATOM     10  C   UNL     1      -0.254  13.353  20.212  0.00  0.00    +0.000 A 
ATOM     11  C   UNL     1      -0.901  12.268  20.789  0.00  0.00    +0.000 A 
ATOM     12  C   UNL     1      -0.440  10.973  20.548  0.00  0.00    +0.000 A 
ATOM     13  C   UNL     1       0.656  10.716  19.702  0.00  0.00    +0.000 A 
ATOM     14  C   UNL     1       1.290  11.841  19.103  0.00  0.00    +0.000 A 
ATOM     15 CL   UNL     1       2.585  11.615  17.957  0.00  0.00    +0.000 Cl
ENDBRANCH   1  13
BRANCH   5  16
ATOM     16  C   UNL     1       1.541   5.716  19.291  0.00  0.00    +0.000 C 
BRANCH  16  17
ATOM     17  C   UNL     1       1.225   4.707  20.406  0.00  0.00    +0.000 C 
BRANCH  17  18
ATOM     18  C   UNL     1       1.082   3.265  19.909  0.00  0.00    +0.000 C 
BRANCH  18  19
ATOM     19  C   UNL     1       2.364   2.475  20.155  0.00  0.00    +0.000 C 
BRANCH  19  20
ATOM     20  O   UNL     1       2.950   2.090  18.911  0.00  0.00    +0.000 OA
BRANCH  20  21
ATOM     21  C   UNL     1       3.793   3.041  18.388  0.00  0.00    +0.000 A 
ATOM     22  C   UNL     1       3.697   3.545  17.091  0.00  0.00    +0.000 A 
ATOM     23  C   UNL     1       4.575   4.529  16.627  0.00  0.00    +0.000 A 
ATOM     24  C   UNL     1       5.550   5.010  17.510  0.00  0.00    +0.000 A 
ATOM     25  S   UNL     1       6.753   6.211  17.241  0.00  0.00    +0.000 S 
ATOM     26  C   UNL     1       7.308   5.997  18.845  0.00  0.00    +0.000 A 
ATOM     27  N   UNL     1       6.676   5.105  19.571  0.00  0.00    +0.000 NA
ATOM     28  C   UNL     1       5.662   4.532  18.819  0.00  0.00    +0.000 A 
ATOM     29  C   UNL     1       4.765   3.538  19.260  0.00  0.00    +0.000 A 
ENDBRANCH  20  21
ENDBRANCH  19  20
ENDBRANCH  18  19
ENDBRANCH  17  18
ENDBRANCH  16  17
ENDBRANCH   5  16
TORSDOF 7
ENDMDL
MODEL 6
REMARK VINA RESULT:      -7.4      2.065      2.615
REMARK  Name = 
REMARK  7 active torsions:
REMARK  status: ('A' for Active; 'I' for Inactive)
REMARK    1  A    between atoms: C_6  and  N_7
REMARK    2  A    between atoms: N_11  and  C_12
REMARK    3  A    between atoms: C_12  and  C_13
REMARK    4  A    between atoms: C_13  and  C_14
REMARK    5  A    between atoms: C_14  and  C_15
REMARK    6  A    between atoms: C_15  and  O_16
REMARK    7  A    between atoms: O_16  and  C_17
REMARK                            x       y       z     vdW  Elec       q    Type
REMARK                         _______ _______ _______ _____ _____    ______ ____
ROOT
ATOM      1  N   UNL     1       4.930   5.086  18.157  0.00  0.00    +0.000 N 
ATOM      2  C   UNL     1       5.877   5.404  19.230  0.00  0.00    +0.000 C 
ATOM      3  C   UNL     1       7.320   5.409  18.732  0.00  0.00    +0.000 C 
ATOM      4  C   UNL     1       7.586   5.910  17.310  0.00  0.00    +0.000 C 
ATOM      5  N   UNL     1       6.850   7.077  16.818  0.00  0.00    +0.000 NA
ATOM      6  C   UNL     1       5.514   6.698  16.327  0.00  0.00    +0.000 C 
ATOM      7  C   UNL     1       4.468   6.260  17.373  0.00  0.00    +0.000 C 
ENDROOT
BRANCH   1  13
ATOM      8 CL   UNL     1       0.563   3.491  20.548  0.00  0.00    +0.000 Cl
ATOM      9  C   UNL     1       1.892   3.307  19.451  0.00  0.00    +0.000 A 
ATOM     10  C   UNL     1       1.982   2.098  18.764  0.00  0.00    +0.000 A 
ATOM     11  C   UNL     1       3.034   1.879  17.884  0.00  0.00    +0.000 A 
ATOM     12  C   UNL     1       4.009   2.861  17.703  0.00  0.00    +0.000 A 
ATOM     13  C   UNL     1       3.948   4.103  18.365  0.00  0.00    +0.000 A 
ATOM     14  C   UNL     1       2.850   4.316  19.245  0.00  0.00    +0.000 A 
ATOM     15 CL   UNL     1       2.633   5.860  20.025  0.00  0.00    +0.000 Cl
ENDBRANCH   1  13
BRANCH   5  16
ATOM     16  C   UNL     1       6.843   8.242  17.699  0.00  0.00    +0.000 C 
BRANCH  16  17
ATOM     17  C   UNL     1       8.260   8.687  18.092  0.00  0.00    +0.000 C 
BRANCH  17  18
ATOM     18  C   UNL     1       8.550  10.161  17.785  0.00  0.00    +0.000 C 
BRANCH  18  19
ATOM     19  C   UNL     1       9.657  10.696  18.688  0.00  0.00    +0.000 C 
BRANCH  19  20
ATOM     20  O   UNL     1       9.368  10.390  20.053  0.00  0.00    +0.000 OA
BRANCH  20  21
ATOM     21  C   UNL     1       9.282  11.503  20.854  0.00  0.00    +0.000 A 
ATOM     22  C   UNL     1       8.517  11.574  22.019  0.00  0.00    +0.000 A 
ATOM     23  C   UNL     1       8.489  12.731  22.800  0.00  0.00    +0.000 A 
ATOM     24  C   UNL     1       9.267  13.822  22.390  0.00  0.00    +0.000 A 
ATOM     25  S   UNL     1       9.449  15.362  23.137  0.00  0.00    +0.000 S 
ATOM     26  C   UNL     1      10.526  15.825  21.892  0.00  0.00    +0.000 A 
ATOM     27  N   UNL     1      10.766  14.932  20.960  0.00  0.00    +0.000 NA
ATOM     28  C   UNL     1      10.053  13.775  21.235  0.00  0.00    +0.000 A 
ATOM     29  C   UNL     1      10.060  12.595  20.463  0.00  0.00    +0.000 A 
ENDBRANCH  20  21
ENDBRANCH  19  20
ENDBRANCH  18  19
ENDBRANCH  17  18
ENDBRANCH  16  17
ENDBRANCH   5  16
TORSDOF 7
ENDMDL
MODEL 7
REMARK VINA RESULT:      -7.3      1.251      1.634
REMARK  Name = 
REMARK  7 active torsions:
REMARK  status: ('A' for Active; 'I' for Inactive)
REMARK    1  A    between atoms: C_6  and  N_7
REMARK    2  A    between atoms: N_11  and  C_12
REMARK    3  A    between atoms: C_12  and  C_13
REMARK    4  A    between atoms: C_13  and  C_14
REMARK    5  A    between atoms: C_14  and  C_15
REMARK    6  A    between atoms: C_15  and  O_16
REMARK    7  A    between atoms: O_16  and  C_17
REMARK                            x       y       z     vdW  Elec       q    Type
REMARK                         _______ _______ _______ _____ _____    ______ ____
ROOT
ATOM      1  N   UNL     1       4.269   5.590  18.651  0.00  0.00    +0.000 N 
ATOM      2  C   UNL     1       5.422   5.803  19.531  0.00  0.00    +0.000 C 
ATOM      3  C   UNL     1       6.735   5.429  18.849  0.00  0.00    +0.000 C 
ATOM      4  C   UNL     1       6.865   5.698  17.348  0.00  0.00    +0.000 C 
ATOM      5  N   UNL     1       6.315   6.940  16.798  0.00  0.00    +0.000 NA
ATOM      6  C   UNL     1       4.869   6.820  16.549  0.00  0.00    +0.000 C 
ATOM      7  C   UNL     1       3.938   6.745  17.778  0.00  0.00    +0.000 C 
ENDROOT
BRANCH   1  13
ATOM      8 CL   UNL     1       1.204   1.358  18.509  0.00  0.00    +0.000 Cl
ATOM      9  C   UNL     1       1.686   2.910  19.110  0.00  0.00    +0.000 A 
ATOM     10  C   UNL     1       0.893   3.476  20.107  0.00  0.00    +0.000 A 
ATOM     11  C   UNL     1       1.213   4.726  20.619  0.00  0.00    +0.000 A 
ATOM     12  C   UNL     1       2.316   5.423  20.122  0.00  0.00    +0.000 A 
ATOM     13  C   UNL     1       3.153   4.881  19.126  0.00  0.00    +0.000 A 
ATOM     14  C   UNL     1       2.820   3.589  18.632  0.00  0.00    +0.000 A 
ATOM     15 CL   UNL     1       3.857   2.794  17.477  0.00  0.00    +0.000 Cl
ENDBRANCH   1  13
BRANCH   5  16
ATOM     16  C   UNL     1       6.691   8.166  17.497  0.00  0.00    +0.000 C 
BRANCH  16  17
ATOM     17  C   UNL     1       8.212   8.311  17.648  0.00  0.00    +0.000 C 
BRANCH  17  18
ATOM     18  C   UNL     1       8.686   9.767  17.733  0.00  0.00    +0.000 C 
BRANCH  18  19
ATOM     19  C   UNL     1       8.996  10.153  19.177  0.00  0.00    +0.000 C 
BRANCH  19  20
ATOM     20  O   UNL     1      10.320  10.680  19.270  0.00  0.00    +0.000 OA
BRANCH  20  21
ATOM     21  C   UNL     1      10.453  11.922  18.696  0.00  0.00    +0.000 A 
ATOM     22  C   UNL     1      11.278  12.198  17.606  0.00  0.00    +0.000 A 
ATOM     23  C   UNL     1      11.352  13.480  17.057  0.00  0.00    +0.000 A 
ATOM     24  C   UNL     1      10.559  14.486  17.624  0.00  0.00    +0.000 A 
ATOM     25  S   UNL     1      10.424  16.141  17.170  0.00  0.00    +0.000 S 
ATOM     26  C   UNL     1       9.287  16.380  18.424  0.00  0.00    +0.000 A 
ATOM     27  N   UNL     1       8.994  15.332  19.160  0.00  0.00    +0.000 NA
ATOM     28  C   UNL     1       9.715  14.237  18.709  0.00  0.00    +0.000 A 
ATOM     29  C   UNL     1       9.661  12.934  19.246  0.00  0.00    +0.000 A 
ENDBRANCH  20  21
ENDBRANCH  19  20
ENDBRANCH  18  19
ENDBRANCH  17  18
ENDBRANCH  16  17
ENDBRANCH   5  16
TORSDOF 7
ENDMDL
MODEL 8
REMARK VINA RESULT:      -7.3      1.718      2.162
REMARK  Name = 
REMARK  7 active torsions:
REMARK  status: ('A' for Active; 'I' for Inactive)
REMARK    1  A    between atoms: C_6  and  N_7
REMARK    2  A    between atoms: N_11  and  C_12
REMARK    3  A    between atoms: C_12  and  C_13
REMARK    4  A    between atoms: C_13  and  C_14
REMARK    5  A    between atoms: C_14  and  C_15
REMARK    6  A    between atoms: C_15  and  O_16
REMARK    7  A    between atoms: O_16  and  C_17
REMARK                            x       y       z     vdW  Elec       q    Type
REMARK                         _______ _______ _______ _____ _____    ______ ____
ROOT
ATOM      1  N   UNL     1       4.828   5.518  18.513  0.00  0.00    +0.000 N 
ATOM      2  C   UNL     1       6.093   4.972  19.015  0.00  0.00    +0.000 C 
ATOM      3  C   UNL     1       7.003   4.509  17.881  0.00  0.00    +0.000 C 
ATOM      4  C   UNL     1       6.985   5.309  16.576  0.00  0.00    +0.000 C 
ATOM      5  N   UNL     1       6.915   6.771  16.639  0.00  0.00    +0.000 NA
ATOM      6  C   UNL     1       5.529   7.232  16.823  0.00  0.00    +0.000 C 
ATOM      7  C   UNL     1       4.865   6.967  18.190  0.00  0.00    +0.000 C 
ENDROOT
BRANCH   1  13
ATOM      8 CL   UNL     1       0.948   2.018  18.679  0.00  0.00    +0.000 Cl
ATOM      9  C   UNL     1       1.770   3.455  19.191  0.00  0.00    +0.000 A 
ATOM     10  C   UNL     1       1.161   4.209  20.193  0.00  0.00    +0.000 A 
ATOM     11  C   UNL     1       1.757   5.382  20.637  0.00  0.00    +0.000 A 
ATOM     12  C   UNL     1       2.956   5.814  20.066  0.00  0.00    +0.000 A 
ATOM     13  C   UNL     1       3.613   5.075  19.063  0.00  0.00    +0.000 A 
ATOM     14  C   UNL     1       2.996   3.865  18.639  0.00  0.00    +0.000 A 
ATOM     15 CL   UNL     1       3.789   2.831  17.481  0.00  0.00    +0.000 Cl
ENDBRANCH   1  13
BRANCH   5  16
ATOM     16  C   UNL     1       7.873   7.415  17.533  0.00  0.00    +0.000 C 
BRANCH  16  17
ATOM     17  C   UNL     1       7.604   8.918  17.695  0.00  0.00    +0.000 C 
BRANCH  17  18
ATOM     18  C   UNL     1       8.606   9.627  18.614  0.00  0.00    +0.000 C 
BRANCH  18  19
ATOM     19  C   UNL     1       9.479  10.595  17.820  0.00  0.00    +0.000 C 
BRANCH  19  20
ATOM     20  O   UNL     1       8.875  11.889  17.790  0.00  0.00    +0.000 OA
BRANCH  20  21
ATOM     21  C   UNL     1       9.544  12.820  18.548  0.00  0.00    +0.000 A 
ATOM     22  C   UNL     1      10.263  12.519  19.705  0.00  0.00    +0.000 A 
ATOM     23  C   UNL     1      10.939  13.511  20.419  0.00  0.00    +0.000 A 
ATOM     24  C   UNL     1      10.890  14.823  19.930  0.00  0.00    +0.000 A 
ATOM     25  S   UNL     1      11.621  16.244  20.572  0.00  0.00    +0.000 S 
ATOM     26  C   UNL     1      10.957  17.152  19.284  0.00  0.00    +0.000 A 
ATOM     27  N   UNL     1      10.233  16.491  18.411  0.00  0.00    +0.000 NA
ATOM     28  C   UNL     1      10.189  15.152  18.767  0.00  0.00    +0.000 A 
ATOM     29  C   UNL     1       9.512  14.132  18.068  0.00  0.00    +0.000 A 
ENDBRANCH  20  21
ENDBRANCH  19  20
ENDBRANCH  18  19
ENDBRANCH  17  18
ENDBRANCH  16  17
ENDBRANCH   5  16
TORSDOF 7
ENDMDL
MODEL 9
REMARK VINA RESULT:      -7.3      1.282      1.613
REMARK  Name = 
REMARK  7 active torsions:
REMARK  status: ('A' for Active; 'I' for Inactive)
REMARK    1  A    between atoms: C_6  and  N_7
REMARK    2  A    between atoms: N_11  and  C_12
REMARK    3  A    between atoms: C_12  and  C_13
REMARK    4  A    between atoms: C_13  and  C_14
REMARK    5  A    between atoms: C_14  and  C_15
REMARK    6  A    between atoms: C_15  and  O_16
REMARK    7  A    between atoms: O_16  and  C_17
REMARK                            x       y       z     vdW  Elec       q    Type
REMARK                         _______ _______ _______ _____ _____    ______ ____
ROOT
ATOM      1  N   UNL     1       4.079   4.688  17.736  0.00  0.00    +0.000 N 
ATOM      2  C   UNL     1       5.099   3.856  17.090  0.00  0.00    +0.000 C 
ATOM      3  C   UNL     1       5.442   4.361  15.692  0.00  0.00    +0.000 C 
ATOM      4  C   UNL     1       5.431   5.872  15.452  0.00  0.00    +0.000 C 
ATOM      5  N   UNL     1       5.971   6.760  16.485  0.00  0.00    +0.000 NA
ATOM      6  C   UNL     1       4.976   7.021  17.539  0.00  0.00    +0.000 C 
ATOM      7  C   UNL     1       4.615   5.855  18.482  0.00  0.00    +0.000 C 
ENDROOT
BRANCH   1  13
ATOM      8 CL   UNL     1       1.951   2.066  21.727  0.00  0.00    +0.000 Cl
ATOM      9  C   UNL     1       1.907   2.857  20.186  0.00  0.00    +0.000 A 
ATOM     10  C   UNL     1       0.688   2.859  19.510  0.00  0.00    +0.000 A 
ATOM     11  C   UNL     1       0.589   3.460  18.262  0.00  0.00    +0.000 A 
ATOM     12  C   UNL     1       1.715   4.045  17.679  0.00  0.00    +0.000 A 
ATOM     13  C   UNL     1       2.962   4.079  18.333  0.00  0.00    +0.000 A 
ATOM     14  C   UNL     1       3.035   3.478  19.621  0.00  0.00    +0.000 A 
ATOM     15 CL   UNL     1       4.507   3.566  20.551  0.00  0.00    +0.000 Cl
ENDBRANCH   1  13
BRANCH   5  16
ATOM     16  C   UNL     1       7.292   6.408  16.998  0.00  0.00    +0.000 C 
BRANCH  16  17
ATOM     17  C   UNL     1       7.830   7.447  17.993  0.00  0.00    +0.000 C 
BRANCH  17  18
ATOM     18  C   UNL     1       8.165   8.799  17.351  0.00  0.00    +0.000 C 
BRANCH  18  19
ATOM     19  C   UNL     1       8.100   9.921  18.383  0.00  0.00    +0.000 C 
BRANCH  19  20
ATOM     20  O   UNL     1       9.401  10.172  18.917  0.00  0.00    +0.000 OA
BRANCH  20  21
ATOM     21  C   UNL     1       9.954  11.348  18.473  0.00  0.00    +0.000 A 
ATOM     22  C   UNL     1      11.238  11.457  17.936  0.00  0.00    +0.000 A 
ATOM     23  C   UNL     1      11.734  12.682  17.483  0.00  0.00    +0.000 A 
ATOM     24  C   UNL     1      10.898  13.803  17.567  0.00  0.00    +0.000 A 
ATOM     25  S   UNL     1      11.214  15.425  17.087  0.00  0.00    +0.000 S 
ATOM     26  C   UNL     1       9.646  15.870  17.603  0.00  0.00    +0.000 A 
ATOM     27  N   UNL     1       8.899  14.915  18.106  0.00  0.00    +0.000 NA
ATOM     28  C   UNL     1       9.604  13.721  18.088  0.00  0.00    +0.000 A 
ATOM     29  C   UNL     1       9.129  12.473  18.542  0.00  0.00    +0.000 A 
ENDBRANCH  20  21
ENDBRANCH  19  20
ENDBRANCH  18  19
ENDBRANCH  17  18
ENDBRANCH  16  17
ENDBRANCH   5  16
TORSDOF 7
ENDMDL
