MODEL 1
REMARK VINA RESULT:      -8.2      0.000      0.000
REMARK  Name = 
REMARK  2 active torsions:
REMARK  status: ('A' for Active; 'I' for Inactive)
REMARK    1  A    between atoms: C_12  and  S_13
REMARK    2  A    between atoms: S_13  and  C_16
REMARK                            x       y       z     vdW  Elec       q    Type
REMARK                         _______ _______ _______ _____ _____    ______ ____
ROOT
ATOM      1  O   UNL     1       2.186   5.328  20.537  0.00  0.00    +0.000 OA
ATOM      2  C   UNL     1       2.858   5.822  19.647  0.00  0.00    +0.000 C 
ATOM      3  C   UNL     1       2.494   7.147  19.039  0.00  0.00    +0.000 A 
ATOM      4  C   UNL     1       1.462   7.913  19.591  0.00  0.00    +0.000 A 
ATOM      5  C   UNL     1       1.190   9.185  19.077  0.00  0.00    +0.000 A 
ATOM      6  C   UNL     1       1.941   9.698  18.016  0.00  0.00    +0.000 A 
ATOM      7  C   UNL     1       2.947   8.932  17.439  0.00  0.00    +0.000 A 
ATOM      8  C   UNL     1       3.218   7.653  17.938  0.00  0.00    +0.000 A 
ATOM      9  C   UNL     1       4.281   6.852  17.277  0.00  0.00    +0.000 C 
ATOM     10  O   UNL     1       4.641   7.112  16.140  0.00  0.00    +0.000 OA
ATOM     11  C   UNL     1       4.768   5.737  18.030  0.00  0.00    +0.000 A 
ATOM     12  C   UNL     1       5.915   4.925  17.975  0.00  0.00    +0.000 A 
ATOM     13  N   UNL     1       5.861   3.953  18.909  0.00  0.00    +0.000 NA
ATOM     14  O   UNL     1       4.685   4.180  19.625  0.00  0.00    +0.000 OA
ATOM     15  C   UNL     1       4.061   5.260  19.100  0.00  0.00    +0.000 A 
ENDROOT
BRANCH  12  16
ATOM     16  S   UNL     1       7.268   5.157  16.907  0.00  0.00    +0.000 S 
ATOM     17  O   UNL     1       7.522   6.585  16.917  0.00  0.00    +0.000 OA
ATOM     18  O   UNL     1       8.280   4.215  17.347  0.00  0.00    +0.000 OA
BRANCH  16  19
ATOM     19  C   UNL     1       6.686   4.647  15.318  0.00  0.00    +0.000 A 
ATOM     20  C   UNL     1       5.520   3.888  15.202  0.00  0.00    +0.000 A 
ATOM     21  C   UNL     1       5.132   3.408  13.952  0.00  0.00    +0.000 A 
ATOM     22  C   UNL     1       5.883   3.726  12.819  0.00  0.00    +0.000 A 
ATOM     23  C   UNL     1       7.007   4.546  12.929  0.00  0.00    +0.000 A 
ATOM     24  C   UNL     1       7.411   5.012  14.179  0.00  0.00    +0.000 A 
ENDBRANCH  16  19
ENDBRANCH  12  16
TORSDOF 2
ENDMDL
MODEL 2
REMARK VINA RESULT:      -7.9      1.793      3.099
REMARK  Name = 
REMARK  2 active torsions:
REMARK  status: ('A' for Active; 'I' for Inactive)
REMARK    1  A    between atoms: C_12  and  S_13
REMARK    2  A    between atoms: S_13  and  C_16
REMARK                            x       y       z     vdW  Elec       q    Type
REMARK                         _______ _______ _______ _____ _____    ______ ____
ROOT
ATOM      1  O   UNL     1       2.528   8.310  18.158  0.00  0.00    +0.000 OA
ATOM      2  C   UNL     1       3.114   7.243  18.248  0.00  0.00    +0.000 C 
ATOM      3  C   UNL     1       2.782   6.259  19.332  0.00  0.00    +0.000 A 
ATOM      4  C   UNL     1       1.684   6.482  20.170  0.00  0.00    +0.000 A 
ATOM      5  C   UNL     1       1.326   5.517  21.118  0.00  0.00    +0.000 A 
ATOM      6  C   UNL     1       2.055   4.331  21.235  0.00  0.00    +0.000 A 
ATOM      7  C   UNL     1       3.167   4.113  20.429  0.00  0.00    +0.000 A 
ATOM      8  C   UNL     1       3.541   5.079  19.487  0.00  0.00    +0.000 A 
ATOM      9  C   UNL     1       4.752   4.825  18.664  0.00  0.00    +0.000 C 
ATOM     10  O   UNL     1       5.597   4.023  19.030  0.00  0.00    +0.000 OA
ATOM     11  C   UNL     1       4.880   5.636  17.492  0.00  0.00    +0.000 A 
ATOM     12  C   UNL     1       5.630   5.556  16.305  0.00  0.00    +0.000 A 
ATOM     13  N   UNL     1       5.413   6.636  15.526  0.00  0.00    +0.000 NA
ATOM     14  O   UNL     1       4.453   7.398  16.193  0.00  0.00    +0.000 OA
ATOM     15  C   UNL     1       4.132   6.772  17.350  0.00  0.00    +0.000 A 
ENDROOT
BRANCH  12  16
ATOM     16  S   UNL     1       6.655   4.229  15.844  0.00  0.00    +0.000 S 
ATOM     17  O   UNL     1       7.920   4.474  16.509  0.00  0.00    +0.000 OA
ATOM     18  O   UNL     1       5.887   3.029  16.115  0.00  0.00    +0.000 OA
BRANCH  16  19
ATOM     19  C   UNL     1       6.842   4.387  14.092  0.00  0.00    +0.000 A 
ATOM     20  C   UNL     1       6.110   3.571  13.227  0.00  0.00    +0.000 A 
ATOM     21  C   UNL     1       6.345   3.637  11.854  0.00  0.00    +0.000 A 
ATOM     22  C   UNL     1       7.274   4.549  11.350  0.00  0.00    +0.000 A 
ATOM     23  C   UNL     1       7.950   5.414  12.212  0.00  0.00    +0.000 A 
ATOM     24  C   UNL     1       7.734   5.338  13.587  0.00  0.00    +0.000 A 
ENDBRANCH  16  19
ENDBRANCH  12  16
TORSDOF 2
ENDMDL
MODEL 3
REMARK VINA RESULT:      -7.9      1.755      3.278
REMARK  Name = 
REMARK  2 active torsions:
REMARK  status: ('A' for Active; 'I' for Inactive)
REMARK    1  A    between atoms: C_12  and  S_13
REMARK    2  A    between atoms: S_13  and  C_16
REMARK                            x       y       z     vdW  Elec       q    Type
REMARK                         _______ _______ _______ _____ _____    ______ ____
ROOT
ATOM      1  O   UNL     1       1.550   7.001  18.966  0.00  0.00    +0.000 OA
ATOM      2  C   UNL     1       2.503   6.242  18.901  0.00  0.00    +0.000 C 
ATOM      3  C   UNL     1       2.551   4.977  19.709  0.00  0.00    +0.000 A 
ATOM      4  C   UNL     1       1.430   4.567  20.438  0.00  0.00    +0.000 A 
ATOM      5  C   UNL     1       1.450   3.342  21.114  0.00  0.00    +0.000 A 
ATOM      6  C   UNL     1       2.582   2.524  21.067  0.00  0.00    +0.000 A 
ATOM      7  C   UNL     1       3.713   2.937  20.372  0.00  0.00    +0.000 A 
ATOM      8  C   UNL     1       3.706   4.166  19.704  0.00  0.00    +0.000 A 
ATOM      9  C   UNL     1       4.944   4.588  18.996  0.00  0.00    +0.000 C 
ATOM     10  O   UNL     1       6.024   4.098  19.285  0.00  0.00    +0.000 OA
ATOM     11  C   UNL     1       4.778   5.641  18.043  0.00  0.00    +0.000 A 
ATOM     12  C   UNL     1       5.534   6.134  16.964  0.00  0.00    +0.000 A 
ATOM     13  N   UNL     1       4.934   7.206  16.406  0.00  0.00    +0.000 NA
ATOM     14  O   UNL     1       3.733   7.371  17.098  0.00  0.00    +0.000 OA
ATOM     15  C   UNL     1       3.650   6.415  18.053  0.00  0.00    +0.000 A 
ENDROOT
BRANCH  12  16
ATOM     16  S   UNL     1       7.010   5.437  16.361  0.00  0.00    +0.000 S 
ATOM     17  O   UNL     1       7.936   6.547  16.246  0.00  0.00    +0.000 OA
ATOM     18  O   UNL     1       7.295   4.312  17.232  0.00  0.00    +0.000 OA
BRANCH  16  19
ATOM     19  C   UNL     1       6.596   4.812  14.760  0.00  0.00    +0.000 A 
ATOM     20  C   UNL     1       5.391   4.140  14.553  0.00  0.00    +0.000 A 
ATOM     21  C   UNL     1       5.128   3.564  13.310  0.00  0.00    +0.000 A 
ATOM     22  C   UNL     1       6.047   3.703  12.269  0.00  0.00    +0.000 A 
ATOM     23  C   UNL     1       7.218   4.439  12.459  0.00  0.00    +0.000 A 
ATOM     24  C   UNL     1       7.495   4.999  13.705  0.00  0.00    +0.000 A 
ENDBRANCH  16  19
ENDBRANCH  12  16
TORSDOF 2
ENDMDL
MODEL 4
REMARK VINA RESULT:      -7.8      1.784      3.194
REMARK  Name = 
REMARK  2 active torsions:
REMARK  status: ('A' for Active; 'I' for Inactive)
REMARK    1  A    between atoms: C_12  and  S_13
REMARK    2  A    between atoms: S_13  and  C_16
REMARK                            x       y       z     vdW  Elec       q    Type
REMARK                         _______ _______ _______ _____ _____    ______ ____
ROOT
ATOM      1  O   UNL     1       2.606   8.461  17.951  0.00  0.00    +0.000 OA
ATOM      2  C   UNL     1       3.172   7.388  18.083  0.00  0.00    +0.000 C 
ATOM      3  C   UNL     1       2.824   6.456  19.208  0.00  0.00    +0.000 A 
ATOM      4  C   UNL     1       1.732   6.733  20.037  0.00  0.00    +0.000 A 
ATOM      5  C   UNL     1       1.357   5.815  21.024  0.00  0.00    +0.000 A 
ATOM      6  C   UNL     1       2.065   4.622  21.189  0.00  0.00    +0.000 A 
ATOM      7  C   UNL     1       3.171   4.351  20.392  0.00  0.00    +0.000 A 
ATOM      8  C   UNL     1       3.561   5.270  19.411  0.00  0.00    +0.000 A 
ATOM      9  C   UNL     1       4.766   4.960  18.598  0.00  0.00    +0.000 C 
ATOM     10  O   UNL     1       5.597   4.158  18.995  0.00  0.00    +0.000 OA
ATOM     11  C   UNL     1       4.906   5.719  17.393  0.00  0.00    +0.000 A 
ATOM     12  C   UNL     1       5.653   5.577  16.210  0.00  0.00    +0.000 A 
ATOM     13  N   UNL     1       5.454   6.627  15.387  0.00  0.00    +0.000 NA
ATOM     14  O   UNL     1       4.510   7.434  16.023  0.00  0.00    +0.000 OA
ATOM     15  C   UNL     1       4.180   6.863  17.205  0.00  0.00    +0.000 A 
ENDROOT
BRANCH  12  16
ATOM     16  S   UNL     1       6.653   4.213  15.802  0.00  0.00    +0.000 S 
ATOM     17  O   UNL     1       7.897   4.425  16.516  0.00  0.00    +0.000 OA
ATOM     18  O   UNL     1       5.837   3.041  16.053  0.00  0.00    +0.000 OA
BRANCH  16  19
ATOM     19  C   UNL     1       6.915   4.347  14.058  0.00  0.00    +0.000 A 
ATOM     20  C   UNL     1       7.815   5.284  13.548  0.00  0.00    +0.000 A 
ATOM     21  C   UNL     1       7.932   5.445  12.168  0.00  0.00    +0.000 A 
ATOM     22  C   UNL     1       7.186   4.640  11.306  0.00  0.00    +0.000 A 
ATOM     23  C   UNL     1       6.343   3.654  11.820  0.00  0.00    +0.000 A 
ATOM     24  C   UNL     1       6.206   3.501  13.199  0.00  0.00    +0.000 A 
ENDBRANCH  16  19
ENDBRANCH  12  16
TORSDOF 2
ENDMDL
MODEL 5
REMARK VINA RESULT:      -7.7      2.343      3.536
REMARK  Name = 
REMARK  2 active torsions:
REMARK  status: ('A' for Active; 'I' for Inactive)
REMARK    1  A    between atoms: C_12  and  S_13
REMARK    2  A    between atoms: S_13  and  C_16
REMARK                            x       y       z     vdW  Elec       q    Type
REMARK                         _______ _______ _______ _____ _____    ______ ____
ROOT
ATOM      1  O   UNL     1       1.643   2.822  19.346  0.00  0.00    +0.000 OA
ATOM      2  C   UNL     1       2.252   3.798  18.940  0.00  0.00    +0.000 C 
ATOM      3  C   UNL     1       1.990   5.169  19.496  0.00  0.00    +0.000 A 
ATOM      4  C   UNL     1       1.150   5.328  20.603  0.00  0.00    +0.000 A 
ATOM      5  C   UNL     1       0.983   6.595  21.172  0.00  0.00    +0.000 A 
ATOM      6  C   UNL     1       1.650   7.704  20.645  0.00  0.00    +0.000 A 
ATOM      7  C   UNL     1       2.462   7.563  19.525  0.00  0.00    +0.000 A 
ATOM      8  C   UNL     1       2.624   6.301  18.941  0.00  0.00    +0.000 A 
ATOM      9  C   UNL     1       3.475   6.194  17.727  0.00  0.00    +0.000 C 
ATOM     10  O   UNL     1       3.714   7.177  17.044  0.00  0.00    +0.000 OA
ATOM     11  C   UNL     1       3.904   4.870  17.393  0.00  0.00    +0.000 A 
ATOM     12  C   UNL     1       4.917   4.328  16.581  0.00  0.00    +0.000 A 
ATOM     13  N   UNL     1       4.858   2.981  16.574  0.00  0.00    +0.000 NA
ATOM     14  O   UNL     1       3.826   2.642  17.450  0.00  0.00    +0.000 OA
ATOM     15  C   UNL     1       3.288   3.781  17.944  0.00  0.00    +0.000 A 
ENDROOT
BRANCH  12  16
ATOM     16  S   UNL     1       6.137   5.241  15.742  0.00  0.00    +0.000 S 
ATOM     17  O   UNL     1       7.018   4.251  15.155  0.00  0.00    +0.000 OA
ATOM     18  O   UNL     1       5.416   6.187  14.911  0.00  0.00    +0.000 OA
BRANCH  16  19
ATOM     19  C   UNL     1       6.981   6.142  17.008  0.00  0.00    +0.000 A 
ATOM     20  C   UNL     1       7.199   7.515  16.872  0.00  0.00    +0.000 A 
ATOM     21  C   UNL     1       7.957   8.189  17.830  0.00  0.00    +0.000 A 
ATOM     22  C   UNL     1       8.450   7.500  18.940  0.00  0.00    +0.000 A 
ATOM     23  C   UNL     1       8.167   6.144  19.109  0.00  0.00    +0.000 A 
ATOM     24  C   UNL     1       7.428   5.460  18.143  0.00  0.00    +0.000 A 
ENDBRANCH  16  19
ENDBRANCH  12  16
TORSDOF 2
ENDMDL
MODEL 6
REMARK VINA RESULT:      -7.6      2.346      3.342
REMARK  Name = 
REMARK  2 active torsions:
REMARK  status: ('A' for Active; 'I' for Inactive)
REMARK    1  A    between atoms: C_12  and  S_13
REMARK    2  A    between atoms: S_13  and  C_16
REMARK                            x       y       z     vdW  Elec       q    Type
REMARK                         _______ _______ _______ _____ _____    ______ ____
ROOT
ATOM      1  O   UNL     1       1.345   3.029  19.693  0.00  0.00    +0.000 OA
ATOM      2  C   UNL     1       2.012   3.919  19.191  0.00  0.00    +0.000 C 
ATOM      3  C   UNL     1       1.859   5.349  19.624  0.00  0.00    +0.000 A 
ATOM      4  C   UNL     1       1.055   5.667  20.724  0.00  0.00    +0.000 A 
ATOM      5  C   UNL     1       0.989   6.988  21.178  0.00  0.00    +0.000 A 
ATOM      6  C   UNL     1       1.720   7.995  20.542  0.00  0.00    +0.000 A 
ATOM      7  C   UNL     1       2.497   7.696  19.428  0.00  0.00    +0.000 A 
ATOM      8  C   UNL     1       2.558   6.379  18.959  0.00  0.00    +0.000 A 
ATOM      9  C   UNL     1       3.375   6.103  17.748  0.00  0.00    +0.000 C 
ATOM     10  O   UNL     1       3.667   7.001  16.975  0.00  0.00    +0.000 OA
ATOM     11  C   UNL     1       3.703   4.727  17.530  0.00  0.00    +0.000 A 
ATOM     12  C   UNL     1       4.659   4.044  16.756  0.00  0.00    +0.000 A 
ATOM     13  N   UNL     1       4.506   2.709  16.871  0.00  0.00    +0.000 NA
ATOM     14  O   UNL     1       3.471   2.524  17.790  0.00  0.00    +0.000 OA
ATOM     15  C   UNL     1       3.024   3.738  18.186  0.00  0.00    +0.000 A 
ENDROOT
BRANCH  12  16
ATOM     16  S   UNL     1       5.922   4.789  15.819  0.00  0.00    +0.000 S 
ATOM     17  O   UNL     1       6.691   3.688  15.272  0.00  0.00    +0.000 OA
ATOM     18  O   UNL     1       5.255   5.741  14.951  0.00  0.00    +0.000 OA
BRANCH  16  19
ATOM     19  C   UNL     1       6.888   5.689  16.995  0.00  0.00    +0.000 A 
ATOM     20  C   UNL     1       7.390   5.054  18.132  0.00  0.00    +0.000 A 
ATOM     21  C   UNL     1       8.061   5.802  19.099  0.00  0.00    +0.000 A 
ATOM     22  C   UNL     1       8.269   7.168  18.903  0.00  0.00    +0.000 A 
ATOM     23  C   UNL     1       7.831   7.785  17.730  0.00  0.00    +0.000 A 
ATOM     24  C   UNL     1       7.140   7.046  16.770  0.00  0.00    +0.000 A 
ENDBRANCH  16  19
ENDBRANCH  12  16
TORSDOF 2
ENDMDL
MODEL 7
REMARK VINA RESULT:      -7.6      2.615      4.233
REMARK  Name = 
REMARK  2 active torsions:
REMARK  status: ('A' for Active; 'I' for Inactive)
REMARK    1  A    between atoms: C_12  and  S_13
REMARK    2  A    between atoms: S_13  and  C_16
REMARK                            x       y       z     vdW  Elec       q    Type
REMARK                         _______ _______ _______ _____ _____    ______ ____
ROOT
ATOM      1  O   UNL     1       3.009   1.321  18.243  0.00  0.00    +0.000 OA
ATOM      2  C   UNL     1       3.283   2.506  18.147  0.00  0.00    +0.000 C 
ATOM      3  C   UNL     1       2.685   3.524  19.076  0.00  0.00    +0.000 A 
ATOM      4  C   UNL     1       1.920   3.110  20.171  0.00  0.00    +0.000 A 
ATOM      5  C   UNL     1       1.443   4.057  21.083  0.00  0.00    +0.000 A 
ATOM      6  C   UNL     1       1.725   5.415  20.911  0.00  0.00    +0.000 A 
ATOM      7  C   UNL     1       2.457   5.840  19.808  0.00  0.00    +0.000 A 
ATOM      8  C   UNL     1       2.927   4.901  18.883  0.00  0.00    +0.000 A 
ATOM      9  C   UNL     1       3.681   5.396  17.701  0.00  0.00    +0.000 C 
ATOM     10  O   UNL     1       3.578   6.556  17.338  0.00  0.00    +0.000 OA
ATOM     11  C   UNL     1       4.442   4.407  17.000  0.00  0.00    +0.000 A 
ATOM     12  C   UNL     1       5.503   4.440  16.078  0.00  0.00    +0.000 A 
ATOM     13  N   UNL     1       5.829   3.194  15.676  0.00  0.00    +0.000 NA
ATOM     14  O   UNL     1       5.005   2.334  16.403  0.00  0.00    +0.000 OA
ATOM     15  C   UNL     1       4.204   3.076  17.202  0.00  0.00    +0.000 A 
ENDROOT
BRANCH  12  16
ATOM     16  S   UNL     1       6.347   5.869  15.556  0.00  0.00    +0.000 S 
ATOM     17  O   UNL     1       7.338   5.402  14.607  0.00  0.00    +0.000 OA
ATOM     18  O   UNL     1       5.315   6.809  15.160  0.00  0.00    +0.000 OA
BRANCH  16  19
ATOM     19  C   UNL     1       7.135   6.488  17.013  0.00  0.00    +0.000 A 
ATOM     20  C   UNL     1       7.478   7.838  17.111  0.00  0.00    +0.000 A 
ATOM     21  C   UNL     1       8.192   8.287  18.222  0.00  0.00    +0.000 A 
ATOM     22  C   UNL     1       8.516   7.399  19.249  0.00  0.00    +0.000 A 
ATOM     23  C   UNL     1       8.106   6.066  19.181  0.00  0.00    +0.000 A 
ATOM     24  C   UNL     1       7.411   5.606  18.063  0.00  0.00    +0.000 A 
ENDBRANCH  16  19
ENDBRANCH  12  16
TORSDOF 2
ENDMDL
MODEL 8
REMARK VINA RESULT:      -7.3      2.721      6.250
REMARK  Name = 
REMARK  2 active torsions:
REMARK  status: ('A' for Active; 'I' for Inactive)
REMARK    1  A    between atoms: C_12  and  S_13
REMARK    2  A    between atoms: S_13  and  C_16
REMARK                            x       y       z     vdW  Elec       q    Type
REMARK                         _______ _______ _______ _____ _____    ______ ____
ROOT
ATOM      1  O   UNL     1       7.972   6.733  16.520  0.00  0.00    +0.000 OA
ATOM      2  C   UNL     1       7.178   5.806  16.528  0.00  0.00    +0.000 C 
ATOM      3  C   UNL     1       6.754   5.132  15.254  0.00  0.00    +0.000 A 
ATOM      4  C   UNL     1       7.383   5.454  14.047  0.00  0.00    +0.000 A 
ATOM      5  C   UNL     1       7.047   4.757  12.881  0.00  0.00    +0.000 A 
ATOM      6  C   UNL     1       6.089   3.740  12.912  0.00  0.00    +0.000 A 
ATOM      7  C   UNL     1       5.435   3.434  14.100  0.00  0.00    +0.000 A 
ATOM      8  C   UNL     1       5.755   4.135  15.268  0.00  0.00    +0.000 A 
ATOM      9  C   UNL     1       5.014   3.801  16.513  0.00  0.00    +0.000 C 
ATOM     10  O   UNL     1       3.934   3.234  16.462  0.00  0.00    +0.000 OA
ATOM     11  C   UNL     1       5.613   4.263  17.728  0.00  0.00    +0.000 A 
ATOM     12  C   UNL     1       5.473   3.942  19.090  0.00  0.00    +0.000 A 
ATOM     13  N   UNL     1       6.258   4.729  19.852  0.00  0.00    +0.000 NA
ATOM     14  O   UNL     1       6.969   5.534  18.960  0.00  0.00    +0.000 OA
ATOM     15  C   UNL     1       6.587   5.223  17.700  0.00  0.00    +0.000 A 
ENDROOT
BRANCH  12  16
ATOM     16  S   UNL     1       4.483   2.663  19.731  0.00  0.00    +0.000 S 
ATOM     17  O   UNL     1       4.379   1.688  18.663  0.00  0.00    +0.000 OA
ATOM     18  O   UNL     1       5.076   2.313  21.008  0.00  0.00    +0.000 OA
BRANCH  16  19
ATOM     19  C   UNL     1       2.911   3.414  20.034  0.00  0.00    +0.000 A 
ATOM     20  C   UNL     1       1.735   2.679  19.874  0.00  0.00    +0.000 A 
ATOM     21  C   UNL     1       0.502   3.315  20.017  0.00  0.00    +0.000 A 
ATOM     22  C   UNL     1       0.450   4.666  20.364  0.00  0.00    +0.000 A 
ATOM     23  C   UNL     1       1.628   5.378  20.595  0.00  0.00    +0.000 A 
ATOM     24  C   UNL     1       2.864   4.753  20.433  0.00  0.00    +0.000 A 
ENDBRANCH  16  19
ENDBRANCH  12  16
TORSDOF 2
ENDMDL
MODEL 9
REMARK VINA RESULT:      -7.2      1.090      1.316
REMARK  Name = 
REMARK  2 active torsions:
REMARK  status: ('A' for Active; 'I' for Inactive)
REMARK    1  A    between atoms: C_12  and  S_13
REMARK    2  A    between atoms: S_13  and  C_16
REMARK                            x       y       z     vdW  Elec       q    Type
REMARK                         _______ _______ _______ _____ _____    ______ ____
ROOT
ATOM      1  O   UNL     1       1.689   4.125  21.204  0.00  0.00    +0.000 OA
ATOM      2  C   UNL     1       2.339   4.869  20.487  0.00  0.00    +0.000 C 
ATOM      3  C   UNL     1       1.897   6.280  20.224  0.00  0.00    +0.000 A 
ATOM      4  C   UNL     1       0.810   6.817  20.922  0.00  0.00    +0.000 A 
ATOM      5  C   UNL     1       0.461   8.160  20.739  0.00  0.00    +0.000 A 
ATOM      6  C   UNL     1       1.190   8.970  19.865  0.00  0.00    +0.000 A 
ATOM      7  C   UNL     1       2.252   8.438  19.141  0.00  0.00    +0.000 A 
ATOM      8  C   UNL     1       2.599   7.093  19.308  0.00  0.00    +0.000 A 
ATOM      9  C   UNL     1       3.721   6.551  18.496  0.00  0.00    +0.000 C 
ATOM     10  O   UNL     1       4.077   7.113  17.473  0.00  0.00    +0.000 OA
ATOM     11  C   UNL     1       4.270   5.313  18.956  0.00  0.00    +0.000 A 
ATOM     12  C   UNL     1       5.469   4.612  18.731  0.00  0.00    +0.000 A 
ATOM     13  N   UNL     1       5.467   3.434  19.386  0.00  0.00    +0.000 NA
ATOM     14  O   UNL     1       4.269   3.399  20.102  0.00  0.00    +0.000 OA
ATOM     15  C   UNL     1       3.583   4.538  19.850  0.00  0.00    +0.000 A 
ENDROOT
BRANCH  12  16
ATOM     16  S   UNL     1       6.817   5.189  17.795  0.00  0.00    +0.000 S 
ATOM     17  O   UNL     1       6.818   6.628  17.974  0.00  0.00    +0.000 OA
ATOM     18  O   UNL     1       7.951   4.383  18.206  0.00  0.00    +0.000 OA
BRANCH  16  19
ATOM     19  C   UNL     1       6.419   4.778  16.122  0.00  0.00    +0.000 A 
ATOM     20  C   UNL     1       5.203   4.163  15.816  0.00  0.00    +0.000 A 
ATOM     21  C   UNL     1       4.951   3.753  14.507  0.00  0.00    +0.000 A 
ATOM     22  C   UNL     1       5.890   4.001  13.505  0.00  0.00    +0.000 A 
ATOM     23  C   UNL     1       7.072   4.681  13.802  0.00  0.00    +0.000 A 
ATOM     24  C   UNL     1       7.339   5.076  15.113  0.00  0.00    +0.000 A 
ENDBRANCH  16  19
ENDBRANCH  12  16
TORSDOF 2
ENDMDL
