MODEL 1
REMARK VINA RESULT:      -7.2      0.000      0.000
REMARK  Name = 
REMARK  4 active torsions:
REMARK  status: ('A' for Active; 'I' for Inactive)
REMARK    1  A    between atoms: C_2  and  C_3
REMARK    2  A    between atoms: N_7  and  C_8
REMARK    3  A    between atoms: C_8  and  C_9
REMARK    4  A    between atoms: N_17  and  C_18
REMARK                            x       y       z     vdW  Elec       q    Type
REMARK                         _______ _______ _______ _____ _____    ______ ____
ROOT
ATOM      1  O   UNL     1       5.837   4.058  19.617  0.00  0.00    +0.000 OA
ATOM      2  C   UNL     1       5.072   4.013  18.657  0.00  0.00    +0.000 C 
ATOM      3  N   UNL     1       5.522   4.373  17.374  0.00  0.00    +0.000 N 
ATOM      4  C   UNL     1       4.665   4.454  16.196  0.00  0.00    +0.000 C 
ATOM      5  C   UNL     1       5.180   5.405  15.109  0.00  0.00    +0.000 C 
ATOM      6  N   UNL     1       6.577   5.187  14.716  0.00  0.00    +0.000 NA
ATOM      7  C   UNL     1       7.434   5.165  15.916  0.00  0.00    +0.000 C 
ATOM      8  C   UNL     1       6.959   4.275  17.088  0.00  0.00    +0.000 C 
ENDROOT
BRANCH   2   9
ATOM      9  C   UNL     1       3.684   3.549  18.809  0.00  0.00    +0.000 A 
ATOM     10  C   UNL     1       3.133   2.335  18.421  0.00  0.00    +0.000 A 
ATOM     11  C   UNL     1       1.770   2.297  18.773  0.00  0.00    +0.000 A 
ATOM     12  C   UNL     1       1.518   3.447  19.470  0.00  0.00    +0.000 A 
ATOM     13  N   UNL     1       2.665   4.216  19.487  0.00  0.00    +0.000 N 
BRANCH  13  14
ATOM     14  C   UNL     1       2.742   5.465  20.246  0.00  0.00    +0.000 C 
BRANCH  14  15
ATOM     15  C   UNL     1       2.294   6.670  19.474  0.00  0.00    +0.000 A 
ATOM     16  C   UNL     1       2.475   6.943  18.131  0.00  0.00    +0.000 A 
ATOM     17  C   UNL     1       2.183   8.304  17.813  0.00  0.00    +0.000 A 
ATOM     18  C   UNL     1       1.718   9.002  18.905  0.00  0.00    +0.000 A 
ATOM     19  S   UNL     1       1.586   8.007  20.287  0.00  0.00    +0.000 S 
ENDBRANCH  14  15
ENDBRANCH  13  14
ENDBRANCH   2   9
BRANCH   6  20
ATOM     20  C   UNL     1       6.787   4.054  13.797  0.00  0.00    +0.000 C 
ATOM     21  C   UNL     1       5.715   3.660  12.814  0.00  0.00    +0.000 C 
ATOM     22  C   UNL     1       6.938   4.373  12.330  0.00  0.00    +0.000 C 
ENDBRANCH   6  20
TORSDOF 4
ENDMDL
MODEL 2
REMARK VINA RESULT:      -6.5      1.125      1.491
REMARK  Name = 
REMARK  4 active torsions:
REMARK  status: ('A' for Active; 'I' for Inactive)
REMARK    1  A    between atoms: C_2  and  C_3
REMARK    2  A    between atoms: N_7  and  C_8
REMARK    3  A    between atoms: C_8  and  C_9
REMARK    4  A    between atoms: N_17  and  C_18
REMARK                            x       y       z     vdW  Elec       q    Type
REMARK                         _______ _______ _______ _____ _____    ______ ____
ROOT
ATOM      1  O   UNL     1       6.191   4.880  19.801  0.00  0.00    +0.000 OA
ATOM      2  C   UNL     1       5.328   4.777  18.932  0.00  0.00    +0.000 C 
ATOM      3  N   UNL     1       5.673   4.888  17.573  0.00  0.00    +0.000 N 
ATOM      4  C   UNL     1       4.708   4.886  16.479  0.00  0.00    +0.000 C 
ATOM      5  C   UNL     1       5.194   5.600  15.212  0.00  0.00    +0.000 C 
ATOM      6  N   UNL     1       6.515   5.172  14.736  0.00  0.00    +0.000 NA
ATOM      7  C   UNL     1       7.487   5.235  15.843  0.00  0.00    +0.000 C 
ATOM      8  C   UNL     1       7.056   4.589  17.180  0.00  0.00    +0.000 C 
ENDROOT
BRANCH   2   9
ATOM      9  C   UNL     1       3.926   4.498  19.280  0.00  0.00    +0.000 A 
ATOM     10  C   UNL     1       3.399   3.376  19.906  0.00  0.00    +0.000 A 
ATOM     11  C   UNL     1       2.009   3.527  20.064  0.00  0.00    +0.000 A 
ATOM     12  C   UNL     1       1.704   4.787  19.627  0.00  0.00    +0.000 A 
ATOM     13  N   UNL     1       2.854   5.378  19.140  0.00  0.00    +0.000 N 
BRANCH  13  14
ATOM     14  C   UNL     1       2.872   6.771  18.693  0.00  0.00    +0.000 C 
BRANCH  14  15
ATOM     15  C   UNL     1       2.093   7.699  19.576  0.00  0.00    +0.000 A 
ATOM     16  C   UNL     1       1.705   7.509  20.889  0.00  0.00    +0.000 A 
ATOM     17  C   UNL     1       0.729   8.465  21.307  0.00  0.00    +0.000 A 
ATOM     18  C   UNL     1       0.464   9.395  20.328  0.00  0.00    +0.000 A 
ATOM     19  S   UNL     1       1.424   9.147  18.936  0.00  0.00    +0.000 S 
ENDBRANCH  14  15
ENDBRANCH  13  14
ENDBRANCH   2   9
BRANCH   6  20
ATOM     20  C   UNL     1       6.518   3.898  13.996  0.00  0.00    +0.000 C 
ATOM     21  C   UNL     1       5.452   3.609  12.971  0.00  0.00    +0.000 C 
ATOM     22  C   UNL     1       6.835   3.956  12.521  0.00  0.00    +0.000 C 
ENDBRANCH   6  20
TORSDOF 4
ENDMDL
MODEL 3
REMARK VINA RESULT:      -6.4      3.340      7.515
REMARK  Name = 
REMARK  4 active torsions:
REMARK  status: ('A' for Active; 'I' for Inactive)
REMARK    1  A    between atoms: C_2  and  C_3
REMARK    2  A    between atoms: N_7  and  C_8
REMARK    3  A    between atoms: C_8  and  C_9
REMARK    4  A    between atoms: N_17  and  C_18
REMARK                            x       y       z     vdW  Elec       q    Type
REMARK                         _______ _______ _______ _____ _____    ______ ____
ROOT
ATOM      1  O   UNL     1       2.615   7.447  17.979  0.00  0.00    +0.000 OA
ATOM      2  C   UNL     1       2.270   7.206  19.133  0.00  0.00    +0.000 C 
ATOM      3  N   UNL     1       1.792   8.237  19.962  0.00  0.00    +0.000 N 
ATOM      4  C   UNL     1       1.461   8.069  21.373  0.00  0.00    +0.000 C 
ATOM      5  C   UNL     1       1.554   9.360  22.196  0.00  0.00    +0.000 C 
ATOM      6  N   UNL     1       0.828  10.502  21.628  0.00  0.00    +0.000 NA
ATOM      7  C   UNL     1       1.219  10.688  20.218  0.00  0.00    +0.000 C 
ATOM      8  C   UNL     1       1.211   9.426  19.326  0.00  0.00    +0.000 C 
ENDROOT
BRANCH   2   9
ATOM      9  C   UNL     1       2.310   5.836  19.670  0.00  0.00    +0.000 A 
ATOM     10  C   UNL     1       1.245   5.011  20.009  0.00  0.00    +0.000 A 
ATOM     11  C   UNL     1       1.730   3.772  20.468  0.00  0.00    +0.000 A 
ATOM     12  C   UNL     1       3.089   3.805  20.309  0.00  0.00    +0.000 A 
ATOM     13  N   UNL     1       3.450   5.052  19.838  0.00  0.00    +0.000 N 
BRANCH  13  14
ATOM     14  C   UNL     1       4.831   5.364  19.470  0.00  0.00    +0.000 C 
BRANCH  14  15
ATOM     15  C   UNL     1       5.172   5.016  18.052  0.00  0.00    +0.000 A 
ATOM     16  C   UNL     1       4.340   4.518  17.067  0.00  0.00    +0.000 A 
ATOM     17  C   UNL     1       5.069   4.029  15.941  0.00  0.00    +0.000 A 
ATOM     18  C   UNL     1       6.423   4.239  16.070  0.00  0.00    +0.000 A 
ATOM     19  S   UNL     1       6.804   5.066  17.515  0.00  0.00    +0.000 S 
ENDBRANCH  14  15
ENDBRANCH  13  14
ENDBRANCH   2   9
BRANCH   6  20
ATOM     20  C   UNL     1      -0.627  10.482  21.858  0.00  0.00    +0.000 C 
ATOM     21  C   UNL     1      -1.178  10.490  23.261  0.00  0.00    +0.000 C 
ATOM     22  C   UNL     1      -1.254  11.731  22.429  0.00  0.00    +0.000 C 
ENDBRANCH   6  20
TORSDOF 4
ENDMDL
MODEL 4
REMARK VINA RESULT:      -6.2      2.963      6.814
REMARK  Name = 
REMARK  4 active torsions:
REMARK  status: ('A' for Active; 'I' for Inactive)
REMARK    1  A    between atoms: C_2  and  C_3
REMARK    2  A    between atoms: N_7  and  C_8
REMARK    3  A    between atoms: C_8  and  C_9
REMARK    4  A    between atoms: N_17  and  C_18
REMARK                            x       y       z     vdW  Elec       q    Type
REMARK                         _______ _______ _______ _____ _____    ______ ____
ROOT
ATOM      1  O   UNL     1       2.088   6.189  20.611  0.00  0.00    +0.000 OA
ATOM      2  C   UNL     1       2.331   6.817  19.583  0.00  0.00    +0.000 C 
ATOM      3  N   UNL     1       1.803   8.107  19.398  0.00  0.00    +0.000 N 
ATOM      4  C   UNL     1       1.947   8.885  18.172  0.00  0.00    +0.000 C 
ATOM      5  C   UNL     1       0.844   9.929  17.958  0.00  0.00    +0.000 C 
ATOM      6  N   UNL     1       0.608  10.814  19.105  0.00  0.00    +0.000 NA
ATOM      7  C   UNL     1       0.409  10.006  20.323  0.00  0.00    +0.000 C 
ATOM      8  C   UNL     1       1.444   8.889  20.588  0.00  0.00    +0.000 C 
ENDROOT
BRANCH   2   9
ATOM      9  C   UNL     1       3.205   6.259  18.538  0.00  0.00    +0.000 A 
ATOM     10  C   UNL     1       4.454   6.707  18.129  0.00  0.00    +0.000 A 
ATOM     11  C   UNL     1       4.950   5.871  17.111  0.00  0.00    +0.000 A 
ATOM     12  C   UNL     1       4.046   4.852  16.972  0.00  0.00    +0.000 A 
ATOM     13  N   UNL     1       2.982   5.084  17.822  0.00  0.00    +0.000 N 
BRANCH  13  14
ATOM     14  C   UNL     1       1.898   4.114  17.978  0.00  0.00    +0.000 C 
BRANCH  14  15
ATOM     15  C   UNL     1       1.929   3.379  19.284  0.00  0.00    +0.000 A 
ATOM     16  C   UNL     1       0.886   3.140  20.159  0.00  0.00    +0.000 A 
ATOM     17  C   UNL     1       1.342   2.674  21.429  0.00  0.00    +0.000 A 
ATOM     18  C   UNL     1       2.707   2.501  21.457  0.00  0.00    +0.000 A 
ATOM     19  S   UNL     1       3.424   2.846  19.945  0.00  0.00    +0.000 S 
ENDBRANCH  14  15
ENDBRANCH  13  14
ENDBRANCH   2   9
BRANCH   6  20
ATOM     20  C   UNL     1       1.586  11.905  19.252  0.00  0.00    +0.000 C 
ATOM     21  C   UNL     1       2.136  12.605  18.036  0.00  0.00    +0.000 C 
ATOM     22  C   UNL     1       1.127  13.298  18.895  0.00  0.00    +0.000 C 
ENDBRANCH   6  20
TORSDOF 4
ENDMDL
MODEL 5
REMARK VINA RESULT:      -6.2      3.400      7.494
REMARK  Name = 
REMARK  4 active torsions:
REMARK  status: ('A' for Active; 'I' for Inactive)
REMARK    1  A    between atoms: C_2  and  C_3
REMARK    2  A    between atoms: N_7  and  C_8
REMARK    3  A    between atoms: C_8  and  C_9
REMARK    4  A    between atoms: N_17  and  C_18
REMARK                            x       y       z     vdW  Elec       q    Type
REMARK                         _______ _______ _______ _____ _____    ______ ____
ROOT
ATOM      1  O   UNL     1       2.529   8.127  17.190  0.00  0.00    +0.000 OA
ATOM      2  C   UNL     1       2.327   7.669  18.312  0.00  0.00    +0.000 C 
ATOM      3  N   UNL     1       1.870   8.502  19.348  0.00  0.00    +0.000 N 
ATOM      4  C   UNL     1       1.704   8.075  20.734  0.00  0.00    +0.000 C 
ATOM      5  C   UNL     1       1.794   9.214  21.756  0.00  0.00    +0.000 C 
ATOM      6  N   UNL     1       0.933  10.367  21.466  0.00  0.00    +0.000 NA
ATOM      7  C   UNL     1       1.157  10.818  20.080  0.00  0.00    +0.000 C 
ATOM      8  C   UNL     1       1.142   9.725  18.986  0.00  0.00    +0.000 C 
ENDROOT
BRANCH   2   9
ATOM      9  C   UNL     1       2.520   6.237  18.596  0.00  0.00    +0.000 A 
ATOM     10  C   UNL     1       1.558   5.241  18.698  0.00  0.00    +0.000 A 
ATOM     11  C   UNL     1       2.178   4.006  18.964  0.00  0.00    +0.000 A 
ATOM     12  C   UNL     1       3.527   4.232  18.921  0.00  0.00    +0.000 A 
ATOM     13  N   UNL     1       3.744   5.580  18.711  0.00  0.00    +0.000 N 
BRANCH  13  14
ATOM     14  C   UNL     1       5.089   6.121  18.515  0.00  0.00    +0.000 C 
BRANCH  14  15
ATOM     15  C   UNL     1       5.697   5.763  17.192  0.00  0.00    +0.000 A 
ATOM     16  C   UNL     1       5.210   6.027  15.925  0.00  0.00    +0.000 A 
ATOM     17  C   UNL     1       5.896   5.282  14.917  0.00  0.00    +0.000 A 
ATOM     18  C   UNL     1       6.929   4.537  15.438  0.00  0.00    +0.000 A 
ATOM     19  S   UNL     1       7.102   4.776  17.121  0.00  0.00    +0.000 S 
ENDBRANCH  14  15
ENDBRANCH  13  14
ENDBRANCH   2   9
BRANCH   6  20
ATOM     20  C   UNL     1      -0.484  10.182  21.825  0.00  0.00    +0.000 C 
ATOM     21  C   UNL     1      -0.864   9.642  23.179  0.00  0.00    +0.000 C 
ATOM     22  C   UNL     1      -1.054  11.095  22.882  0.00  0.00    +0.000 C 
ENDBRANCH   6  20
TORSDOF 4
ENDMDL
MODEL 6
REMARK VINA RESULT:      -6.1      0.970      1.180
REMARK  Name = 
REMARK  4 active torsions:
REMARK  status: ('A' for Active; 'I' for Inactive)
REMARK    1  A    between atoms: C_2  and  C_3
REMARK    2  A    between atoms: N_7  and  C_8
REMARK    3  A    between atoms: C_8  and  C_9
REMARK    4  A    between atoms: N_17  and  C_18
REMARK                            x       y       z     vdW  Elec       q    Type
REMARK                         _______ _______ _______ _____ _____    ______ ____
ROOT
ATOM      1  O   UNL     1       5.306   3.177  19.911  0.00  0.00    +0.000 OA
ATOM      2  C   UNL     1       4.523   3.721  19.136  0.00  0.00    +0.000 C 
ATOM      3  N   UNL     1       5.005   4.446  18.032  0.00  0.00    +0.000 N 
ATOM      4  C   UNL     1       4.161   5.212  17.120  0.00  0.00    +0.000 C 
ATOM      5  C   UNL     1       4.887   6.360  16.409  0.00  0.00    +0.000 C 
ATOM      6  N   UNL     1       6.141   5.976  15.750  0.00  0.00    +0.000 NA
ATOM      7  C   UNL     1       7.003   5.253  16.705  0.00  0.00    +0.000 C 
ATOM      8  C   UNL     1       6.337   4.114  17.511  0.00  0.00    +0.000 C 
ENDROOT
BRANCH   2   9
ATOM      9  C   UNL     1       3.066   3.601  19.316  0.00  0.00    +0.000 A 
ATOM     10  C   UNL     1       2.244   2.528  18.998  0.00  0.00    +0.000 A 
ATOM     11  C   UNL     1       0.915   2.826  19.352  0.00  0.00    +0.000 A 
ATOM     12  C   UNL     1       0.944   4.042  19.981  0.00  0.00    +0.000 A 
ATOM     13  N   UNL     1       2.239   4.524  19.953  0.00  0.00    +0.000 N 
BRANCH  13  14
ATOM     14  C   UNL     1       2.612   5.761  20.638  0.00  0.00    +0.000 C 
BRANCH  14  15
ATOM     15  C   UNL     1       2.035   6.995  20.013  0.00  0.00    +0.000 A 
ATOM     16  C   UNL     1       2.180   7.448  18.716  0.00  0.00    +0.000 A 
ATOM     17  C   UNL     1       1.741   8.799  18.563  0.00  0.00    +0.000 A 
ATOM     18  C   UNL     1       1.207   9.304  19.726  0.00  0.00    +0.000 A 
ATOM     19  S   UNL     1       1.188   8.140  20.976  0.00  0.00    +0.000 S 
ENDBRANCH  14  15
ENDBRANCH  13  14
ENDBRANCH   2   9
BRANCH   6  20
ATOM     20  C   UNL     1       5.973   5.303  14.451  0.00  0.00    +0.000 C 
ATOM     21  C   UNL     1       7.174   4.817  13.682  0.00  0.00    +0.000 C 
ATOM     22  C   UNL     1       6.299   3.831  14.388  0.00  0.00    +0.000 C 
ENDBRANCH   6  20
TORSDOF 4
ENDMDL
MODEL 7
REMARK VINA RESULT:      -5.9      3.381      7.553
REMARK  Name = 
REMARK  4 active torsions:
REMARK  status: ('A' for Active; 'I' for Inactive)
REMARK    1  A    between atoms: C_2  and  C_3
REMARK    2  A    between atoms: N_7  and  C_8
REMARK    3  A    between atoms: C_8  and  C_9
REMARK    4  A    between atoms: N_17  and  C_18
REMARK                            x       y       z     vdW  Elec       q    Type
REMARK                         _______ _______ _______ _____ _____    ______ ____
ROOT
ATOM      1  O   UNL     1       2.573   7.395  17.988  0.00  0.00    +0.000 OA
ATOM      2  C   UNL     1       2.216   7.182  19.144  0.00  0.00    +0.000 C 
ATOM      3  N   UNL     1       1.746   8.237  19.947  0.00  0.00    +0.000 N 
ATOM      4  C   UNL     1       1.401   8.103  21.359  0.00  0.00    +0.000 C 
ATOM      5  C   UNL     1       1.507   9.408  22.157  0.00  0.00    +0.000 C 
ATOM      6  N   UNL     1       0.802  10.549  21.560  0.00  0.00    +0.000 NA
ATOM      7  C   UNL     1       1.208  10.701  20.150  0.00  0.00    +0.000 C 
ATOM      8  C   UNL     1       1.188   9.421  19.283  0.00  0.00    +0.000 C 
ENDROOT
BRANCH   2   9
ATOM      9  C   UNL     1       2.230   5.823  19.708  0.00  0.00    +0.000 A 
ATOM     10  C   UNL     1       1.511   5.329  20.789  0.00  0.00    +0.000 A 
ATOM     11  C   UNL     1       1.811   3.967  20.979  0.00  0.00    +0.000 A 
ATOM     12  C   UNL     1       2.635   3.605  19.948  0.00  0.00    +0.000 A 
ATOM     13  N   UNL     1       2.904   4.722  19.181  0.00  0.00    +0.000 N 
BRANCH  13  14
ATOM     14  C   UNL     1       3.678   4.636  17.942  0.00  0.00    +0.000 C 
BRANCH  14  15
ATOM     15  C   UNL     1       5.153   4.820  18.138  0.00  0.00    +0.000 A 
ATOM     16  C   UNL     1       5.818   5.289  19.255  0.00  0.00    +0.000 A 
ATOM     17  C   UNL     1       7.182   5.609  18.976  0.00  0.00    +0.000 A 
ATOM     18  C   UNL     1       7.531   5.302  17.681  0.00  0.00    +0.000 A 
ATOM     19  S   UNL     1       6.238   4.585  16.825  0.00  0.00    +0.000 S 
ENDBRANCH  14  15
ENDBRANCH  13  14
ENDBRANCH   2   9
BRANCH   6  20
ATOM     20  C   UNL     1      -0.654  10.555  21.779  0.00  0.00    +0.000 C 
ATOM     21  C   UNL     1      -1.217  10.709  23.168  0.00  0.00    +0.000 C 
ATOM     22  C   UNL     1      -1.284  11.857  22.211  0.00  0.00    +0.000 C 
ENDBRANCH   6  20
TORSDOF 4
ENDMDL
MODEL 8
REMARK VINA RESULT:      -5.8      1.827      3.446
REMARK  Name = 
REMARK  4 active torsions:
REMARK  status: ('A' for Active; 'I' for Inactive)
REMARK    1  A    between atoms: C_2  and  C_3
REMARK    2  A    between atoms: N_7  and  C_8
REMARK    3  A    between atoms: C_8  and  C_9
REMARK    4  A    between atoms: N_17  and  C_18
REMARK                            x       y       z     vdW  Elec       q    Type
REMARK                         _______ _______ _______ _____ _____    ______ ____
ROOT
ATOM      1  O   UNL     1       5.159   5.512  19.375  0.00  0.00    +0.000 OA
ATOM      2  C   UNL     1       4.725   5.858  18.279  0.00  0.00    +0.000 C 
ATOM      3  N   UNL     1       5.389   5.474  17.099  0.00  0.00    +0.000 N 
ATOM      4  C   UNL     1       5.012   5.922  15.763  0.00  0.00    +0.000 C 
ATOM      5  C   UNL     1       6.161   5.899  14.747  0.00  0.00    +0.000 C 
ATOM      6  N   UNL     1       6.893   4.629  14.678  0.00  0.00    +0.000 NA
ATOM      7  C   UNL     1       7.313   4.223  16.033  0.00  0.00    +0.000 C 
ATOM      8  C   UNL     1       6.230   4.271  17.135  0.00  0.00    +0.000 C 
ENDROOT
BRANCH   2   9
ATOM      9  C   UNL     1       3.487   6.645  18.163  0.00  0.00    +0.000 A 
ATOM     10  C   UNL     1       3.349   8.022  18.045  0.00  0.00    +0.000 A 
ATOM     11  C   UNL     1       1.985   8.356  17.942  0.00  0.00    +0.000 A 
ATOM     12  C   UNL     1       1.299   7.173  17.893  0.00  0.00    +0.000 A 
ATOM     13  N   UNL     1       2.197   6.133  18.038  0.00  0.00    +0.000 N 
BRANCH  13  14
ATOM     14  C   UNL     1       1.779   4.736  17.925  0.00  0.00    +0.000 C 
BRANCH  14  15
ATOM     15  C   UNL     1       1.876   3.970  19.210  0.00  0.00    +0.000 A 
ATOM     16  C   UNL     1       1.276   4.251  20.423  0.00  0.00    +0.000 A 
ATOM     17  C   UNL     1       1.829   3.480  21.490  0.00  0.00    +0.000 A 
ATOM     18  C   UNL     1       2.776   2.586  21.045  0.00  0.00    +0.000 A 
ATOM     19  S   UNL     1       2.956   2.640  19.348  0.00  0.00    +0.000 S 
ENDBRANCH  14  15
ENDBRANCH  13  14
ENDBRANCH   2   9
BRANCH   6  20
ATOM     20  C   UNL     1       6.216   3.571  13.908  0.00  0.00    +0.000 C 
ATOM     21  C   UNL     1       5.168   3.924  12.885  0.00  0.00    +0.000 C 
ATOM     22  C   UNL     1       6.524   3.485  12.433  0.00  0.00    +0.000 C 
ENDBRANCH   6  20
TORSDOF 4
ENDMDL
MODEL 9
REMARK VINA RESULT:      -5.7      3.023      6.970
REMARK  Name = 
REMARK  4 active torsions:
REMARK  status: ('A' for Active; 'I' for Inactive)
REMARK    1  A    between atoms: C_2  and  C_3
REMARK    2  A    between atoms: N_7  and  C_8
REMARK    3  A    between atoms: C_8  and  C_9
REMARK    4  A    between atoms: N_17  and  C_18
REMARK                            x       y       z     vdW  Elec       q    Type
REMARK                         _______ _______ _______ _____ _____    ______ ____
ROOT
ATOM      1  O   UNL     1       3.511   7.285  17.294  0.00  0.00    +0.000 OA
ATOM      2  C   UNL     1       2.848   7.168  18.322  0.00  0.00    +0.000 C 
ATOM      3  N   UNL     1       2.135   8.266  18.836  0.00  0.00    +0.000 N 
ATOM      4  C   UNL     1       1.408   8.254  20.101  0.00  0.00    +0.000 C 
ATOM      5  C   UNL     1       1.239   9.637  20.740  0.00  0.00    +0.000 C 
ATOM      6  N   UNL     1       0.695  10.664  19.844  0.00  0.00    +0.000 NA
ATOM      7  C   UNL     1       1.478  10.698  18.594  0.00  0.00    +0.000 C 
ATOM      8  C   UNL     1       1.748   9.338  17.910  0.00  0.00    +0.000 C 
ENDROOT
BRANCH   2   9
ATOM      9  C   UNL     1       2.748   5.877  19.021  0.00  0.00    +0.000 A 
ATOM     10  C   UNL     1       1.605   5.160  19.350  0.00  0.00    +0.000 A 
ATOM     11  C   UNL     1       1.963   3.964  20.000  0.00  0.00    +0.000 A 
ATOM     12  C   UNL     1       3.330   3.904  19.975  0.00  0.00    +0.000 A 
ATOM     13  N   UNL     1       3.814   5.061  19.396  0.00  0.00    +0.000 N 
BRANCH  13  14
ATOM     14  C   UNL     1       5.241   5.249  19.133  0.00  0.00    +0.000 C 
BRANCH  14  15
ATOM     15  C   UNL     1       5.639   4.956  17.717  0.00  0.00    +0.000 A 
ATOM     16  C   UNL     1       5.079   4.046  16.841  0.00  0.00    +0.000 A 
ATOM     17  C   UNL     1       5.899   3.829  15.692  0.00  0.00    +0.000 A 
ATOM     18  C   UNL     1       7.015   4.634  15.693  0.00  0.00    +0.000 A 
ATOM     19  S   UNL     1       7.044   5.680  17.043  0.00  0.00    +0.000 S 
ENDBRANCH  14  15
ENDBRANCH  13  14
ENDBRANCH   2   9
BRANCH   6  20
ATOM     20  C   UNL     1      -0.763  10.597  19.646  0.00  0.00    +0.000 C 
ATOM     21  C   UNL     1      -1.659  11.673  20.204  0.00  0.00    +0.000 C 
ATOM     22  C   UNL     1      -1.385  11.627  18.735  0.00  0.00    +0.000 C 
ENDBRANCH   6  20
TORSDOF 4
ENDMDL
