MODEL 1
REMARK VINA RESULT:      -6.6      0.000      0.000
REMARK  Name = 
REMARK  5 active torsions:
REMARK  status: ('A' for Active; 'I' for Inactive)
REMARK    1  A    between atoms: C_2  and  C_3
REMARK    2  A    between atoms: C_3  and  N_4
REMARK    3  A    between atoms: C_7  and  C_8
REMARK    4  A    between atoms: C_9  and  C_10
REMARK    5  A    between atoms: C_13  and  C_14
REMARK                            x       y       z     vdW  Elec       q    Type
REMARK                         _______ _______ _______ _____ _____    ______ ____
ROOT
ATOM      1  C   UNL     1       4.422   6.481  17.101  0.00  0.00    +0.000 C 
ATOM      2  C   UNL     1       3.169   6.622  17.561  0.00  0.00    +0.000 C 
ENDROOT
BRANCH   1   6
ATOM      3  N   UNL     1       7.060   4.738  15.191  0.00  0.00    +0.000 NA
ATOM      4  C   UNL     1       7.197   6.050  15.829  0.00  0.00    +0.000 C 
ATOM      5  C   UNL     1       6.879   5.959  17.317  0.00  0.00    +0.000 C 
ATOM      6  C   UNL     1       5.452   5.456  17.558  0.00  0.00    +0.000 C 
ATOM      7  C   UNL     1       5.297   4.106  16.841  0.00  0.00    +0.000 C 
ATOM      8  C   UNL     1       5.708   4.178  15.369  0.00  0.00    +0.000 C 
BRANCH   3   9
ATOM      9  C   UNL     1       7.407   4.861  13.771  0.00  0.00    +0.000 C 
BRANCH   9  11
ATOM     10  C   UNL     1       5.723   3.197  12.231  0.00  0.00    +0.000 C 
ATOM     11  C   UNL     1       6.501   3.965  12.943  0.00  0.00    +0.000 C 
ENDBRANCH   9  11
ENDBRANCH   3   9
ENDBRANCH   1   6
BRANCH   2  12
ATOM     12  C   UNL     1       2.586   5.760  18.586  0.00  0.00    +0.000 A 
ATOM     13  C   UNL     1       2.737   6.062  19.944  0.00  0.00    +0.000 A 
ATOM     14  C   UNL     1       2.332   5.145  20.916  0.00  0.00    +0.000 A 
ATOM     15  C   UNL     1       1.730   3.942  20.535  0.00  0.00    +0.000 A 
ATOM     16  C   UNL     1       1.511   3.674  19.179  0.00  0.00    +0.000 A 
ATOM     17  C   UNL     1       1.946   4.578  18.207  0.00  0.00    +0.000 A 
BRANCH  15  18
ATOM     18  C   UNL     1       1.360   2.975  21.528  0.00  0.00    +0.000 C 
ATOM     19  N   UNL     1       1.078   2.188  22.331  0.00  0.00    +0.000 NA
ENDBRANCH  15  18
ENDBRANCH   2  12
TORSDOF 5
ENDMDL
MODEL 2
REMARK VINA RESULT:      -6.5      2.164      2.795
REMARK  Name = 
REMARK  5 active torsions:
REMARK  status: ('A' for Active; 'I' for Inactive)
REMARK    1  A    between atoms: C_2  and  C_3
REMARK    2  A    between atoms: C_3  and  N_4
REMARK    3  A    between atoms: C_7  and  C_8
REMARK    4  A    between atoms: C_9  and  C_10
REMARK    5  A    between atoms: C_13  and  C_14
REMARK                            x       y       z     vdW  Elec       q    Type
REMARK                         _______ _______ _______ _____ _____    ______ ____
ROOT
ATOM      1  C   UNL     1       4.074   4.490  17.298  0.00  0.00    +0.000 C 
ATOM      2  C   UNL     1       2.800   4.586  17.710  0.00  0.00    +0.000 C 
ENDROOT
BRANCH   1   6
ATOM      3  N   UNL     1       7.068   5.448  15.359  0.00  0.00    +0.000 NA
ATOM      4  C   UNL     1       5.761   6.109  15.289  0.00  0.00    +0.000 C 
ATOM      5  C   UNL     1       5.327   6.585  16.671  0.00  0.00    +0.000 C 
ATOM      6  C   UNL     1       5.222   5.422  17.661  0.00  0.00    +0.000 C 
ATOM      7  C   UNL     1       6.579   4.700  17.689  0.00  0.00    +0.000 C 
ATOM      8  C   UNL     1       7.059   4.307  16.291  0.00  0.00    +0.000 C 
BRANCH   3   9
ATOM      9  C   UNL     1       7.465   5.037  14.009  0.00  0.00    +0.000 C 
BRANCH   9  11
ATOM     10  C   UNL     1       5.458   3.397  12.886  0.00  0.00    +0.000 C 
ATOM     11  C   UNL     1       6.385   4.154  13.405  0.00  0.00    +0.000 C 
ENDBRANCH   9  11
ENDBRANCH   3   9
ENDBRANCH   1   6
BRANCH   2  12
ATOM     12  C   UNL     1       2.324   5.622  18.623  0.00  0.00    +0.000 A 
ATOM     13  C   UNL     1       2.285   6.962  18.223  0.00  0.00    +0.000 A 
ATOM     14  C   UNL     1       2.000   7.964  19.153  0.00  0.00    +0.000 A 
ATOM     15  C   UNL     1       1.706   7.625  20.477  0.00  0.00    +0.000 A 
ATOM     16  C   UNL     1       1.671   6.280  20.859  0.00  0.00    +0.000 A 
ATOM     17  C   UNL     1       1.989   5.281  19.935  0.00  0.00    +0.000 A 
BRANCH  15  18
ATOM     18  C   UNL     1       1.463   8.655  21.447  0.00  0.00    +0.000 C 
ATOM     19  N   UNL     1       1.252   9.488  22.223  0.00  0.00    +0.000 NA
ENDBRANCH  15  18
ENDBRANCH   2  12
TORSDOF 5
ENDMDL
MODEL 3
REMARK VINA RESULT:      -6.3      2.564      3.243
REMARK  Name = 
REMARK  5 active torsions:
REMARK  status: ('A' for Active; 'I' for Inactive)
REMARK    1  A    between atoms: C_2  and  C_3
REMARK    2  A    between atoms: C_3  and  N_4
REMARK    3  A    between atoms: C_7  and  C_8
REMARK    4  A    between atoms: C_9  and  C_10
REMARK    5  A    between atoms: C_13  and  C_14
REMARK                            x       y       z     vdW  Elec       q    Type
REMARK                         _______ _______ _______ _____ _____    ______ ____
ROOT
ATOM      1  C   UNL     1       4.058   4.874  17.534  0.00  0.00    +0.000 C 
ATOM      2  C   UNL     1       2.797   5.168  17.886  0.00  0.00    +0.000 C 
ENDROOT
BRANCH   1   6
ATOM      3  N   UNL     1       7.088   5.423  15.493  0.00  0.00    +0.000 NA
ATOM      4  C   UNL     1       5.854   6.210  15.413  0.00  0.00    +0.000 C 
ATOM      5  C   UNL     1       5.502   6.796  16.776  0.00  0.00    +0.000 C 
ATOM      6  C   UNL     1       5.304   5.699  17.827  0.00  0.00    +0.000 C 
ATOM      7  C   UNL     1       6.580   4.845  17.867  0.00  0.00    +0.000 C 
ATOM      8  C   UNL     1       6.984   4.335  16.483  0.00  0.00    +0.000 C 
BRANCH   3   9
ATOM      9  C   UNL     1       7.410   4.906  14.159  0.00  0.00    +0.000 C 
BRANCH   9  11
ATOM     10  C   UNL     1       5.174   3.536  13.108  0.00  0.00    +0.000 C 
ATOM     11  C   UNL     1       6.207   4.169  13.592  0.00  0.00    +0.000 C 
ENDBRANCH   9  11
ENDBRANCH   3   9
ENDBRANCH   1   6
BRANCH   2  12
ATOM     12  C   UNL     1       2.432   6.355  18.655  0.00  0.00    +0.000 A 
ATOM     13  C   UNL     1       2.150   6.260  20.022  0.00  0.00    +0.000 A 
ATOM     14  C   UNL     1       1.632   7.360  20.709  0.00  0.00    +0.000 A 
ATOM     15  C   UNL     1       1.438   8.574  20.042  0.00  0.00    +0.000 A 
ATOM     16  C   UNL     1       1.791   8.689  18.693  0.00  0.00    +0.000 A 
ATOM     17  C   UNL     1       2.279   7.579  17.999  0.00  0.00    +0.000 A 
BRANCH  15  18
ATOM     18  C   UNL     1       0.858   9.691  20.731  0.00  0.00    +0.000 C 
ATOM     19  N   UNL     1       0.405  10.600  21.290  0.00  0.00    +0.000 NA
ENDBRANCH  15  18
ENDBRANCH   2  12
TORSDOF 5
ENDMDL
MODEL 4
REMARK VINA RESULT:      -6.2      1.070      1.697
REMARK  Name = 
REMARK  5 active torsions:
REMARK  status: ('A' for Active; 'I' for Inactive)
REMARK    1  A    between atoms: C_2  and  C_3
REMARK    2  A    between atoms: C_3  and  N_4
REMARK    3  A    between atoms: C_7  and  C_8
REMARK    4  A    between atoms: C_9  and  C_10
REMARK    5  A    between atoms: C_13  and  C_14
REMARK                            x       y       z     vdW  Elec       q    Type
REMARK                         _______ _______ _______ _____ _____    ______ ____
ROOT
ATOM      1  C   UNL     1       5.170   6.110  16.421  0.00  0.00    +0.000 C 
ATOM      2  C   UNL     1       4.051   6.349  17.123  0.00  0.00    +0.000 C 
ENDROOT
BRANCH   1   6
ATOM      3  N   UNL     1       6.558   3.906  13.802  0.00  0.00    +0.000 NA
ATOM      4  C   UNL     1       7.165   5.155  14.273  0.00  0.00    +0.000 C 
ATOM      5  C   UNL     1       7.391   5.106  15.780  0.00  0.00    +0.000 C 
ATOM      6  C   UNL     1       6.079   4.894  16.541  0.00  0.00    +0.000 C 
ATOM      7  C   UNL     1       5.422   3.613  16.005  0.00  0.00    +0.000 C 
ATOM      8  C   UNL     1       5.281   3.624  14.481  0.00  0.00    +0.000 C 
BRANCH   3   9
ATOM      9  C   UNL     1       6.389   3.979  12.347  0.00  0.00    +0.000 C 
BRANCH   9  11
ATOM     10  C   UNL     1       6.028   1.380  11.301  0.00  0.00    +0.000 C 
ATOM     11  C   UNL     1       6.195   2.581  11.784  0.00  0.00    +0.000 C 
ENDBRANCH   9  11
ENDBRANCH   3   9
ENDBRANCH   1   6
BRANCH   2  12
ATOM     12  C   UNL     1       3.512   5.427  18.119  0.00  0.00    +0.000 A 
ATOM     13  C   UNL     1       2.360   4.681  17.851  0.00  0.00    +0.000 A 
ATOM     14  C   UNL     1       1.752   3.939  18.867  0.00  0.00    +0.000 A 
ATOM     15  C   UNL     1       2.323   3.903  20.143  0.00  0.00    +0.000 A 
ATOM     16  C   UNL     1       3.517   4.588  20.390  0.00  0.00    +0.000 A 
ATOM     17  C   UNL     1       4.105   5.356  19.382  0.00  0.00    +0.000 A 
BRANCH  15  18
ATOM     18  C   UNL     1       1.674   3.184  21.202  0.00  0.00    +0.000 C 
ATOM     19  N   UNL     1       1.140   2.617  22.060  0.00  0.00    +0.000 NA
ENDBRANCH  15  18
ENDBRANCH   2  12
TORSDOF 5
ENDMDL
MODEL 5
REMARK VINA RESULT:      -5.9      2.043      3.686
REMARK  Name = 
REMARK  5 active torsions:
REMARK  status: ('A' for Active; 'I' for Inactive)
REMARK    1  A    between atoms: C_2  and  C_3
REMARK    2  A    between atoms: C_3  and  N_4
REMARK    3  A    between atoms: C_7  and  C_8
REMARK    4  A    between atoms: C_9  and  C_10
REMARK    5  A    between atoms: C_13  and  C_14
REMARK                            x       y       z     vdW  Elec       q    Type
REMARK                         _______ _______ _______ _____ _____    ______ ____
ROOT
ATOM      1  C   UNL     1       5.001   4.271  16.384  0.00  0.00    +0.000 C 
ATOM      2  C   UNL     1       3.686   4.004  16.426  0.00  0.00    +0.000 C 
ENDROOT
BRANCH   1   6
ATOM      3  N   UNL     1       7.133   6.967  17.738  0.00  0.00    +0.000 NA
ATOM      4  C   UNL     1       5.738   6.715  18.113  0.00  0.00    +0.000 C 
ATOM      5  C   UNL     1       5.569   5.288  18.620  0.00  0.00    +0.000 C 
ATOM      6  C   UNL     1       5.972   4.260  17.558  0.00  0.00    +0.000 C 
ATOM      7  C   UNL     1       7.416   4.564  17.130  0.00  0.00    +0.000 C 
ATOM      8  C   UNL     1       7.606   6.023  16.711  0.00  0.00    +0.000 C 
BRANCH   3   9
ATOM      9  C   UNL     1       7.260   8.358  17.290  0.00  0.00    +0.000 C 
BRANCH   9  11
ATOM     10  C   UNL     1       9.137   9.712  18.909  0.00  0.00    +0.000 C 
ATOM     11  C   UNL     1       8.271   9.086  18.161  0.00  0.00    +0.000 C 
ENDBRANCH   9  11
ENDBRANCH   3   9
ENDBRANCH   1   6
BRANCH   2  12
ATOM     12  C   UNL     1       2.981   3.622  17.646  0.00  0.00    +0.000 A 
ATOM     13  C   UNL     1       2.185   4.548  18.330  0.00  0.00    +0.000 A 
ATOM     14  C   UNL     1       1.659   4.230  19.584  0.00  0.00    +0.000 A 
ATOM     15  C   UNL     1       1.888   2.967  20.138  0.00  0.00    +0.000 A 
ATOM     16  C   UNL     1       2.621   2.015  19.421  0.00  0.00    +0.000 A 
ATOM     17  C   UNL     1       3.173   2.346  18.181  0.00  0.00    +0.000 A 
BRANCH  15  18
ATOM     18  C   UNL     1       1.393   2.656  21.449  0.00  0.00    +0.000 C 
ATOM     19  N   UNL     1       0.983   2.418  22.507  0.00  0.00    +0.000 NA
ENDBRANCH  15  18
ENDBRANCH   2  12
TORSDOF 5
ENDMDL
MODEL 6
REMARK VINA RESULT:      -5.9      2.910      3.751
REMARK  Name = 
REMARK  5 active torsions:
REMARK  status: ('A' for Active; 'I' for Inactive)
REMARK    1  A    between atoms: C_2  and  C_3
REMARK    2  A    between atoms: C_3  and  N_4
REMARK    3  A    between atoms: C_7  and  C_8
REMARK    4  A    between atoms: C_9  and  C_10
REMARK    5  A    between atoms: C_13  and  C_14
REMARK                            x       y       z     vdW  Elec       q    Type
REMARK                         _______ _______ _______ _____ _____    ______ ____
ROOT
ATOM      1  C   UNL     1       3.647   5.092  17.817  0.00  0.00    +0.000 C 
ATOM      2  C   UNL     1       2.421   5.490  18.193  0.00  0.00    +0.000 C 
ENDROOT
BRANCH   1   6
ATOM      3  N   UNL     1       6.597   5.124  15.595  0.00  0.00    +0.000 NA
ATOM      4  C   UNL     1       5.392   5.940  15.421  0.00  0.00    +0.000 C 
ATOM      5  C   UNL     1       5.127   6.778  16.666  0.00  0.00    +0.000 C 
ATOM      6  C   UNL     1       4.935   5.899  17.906  0.00  0.00    +0.000 C 
ATOM      7  C   UNL     1       6.179   5.008  18.052  0.00  0.00    +0.000 C 
ATOM      8  C   UNL     1       6.498   4.239  16.769  0.00  0.00    +0.000 C 
BRANCH   3   9
ATOM      9  C   UNL     1       6.836   4.361  14.365  0.00  0.00    +0.000 C 
BRANCH   9  11
ATOM     10  C   UNL     1       8.424   5.885  12.593  0.00  0.00    +0.000 C 
ATOM     11  C   UNL     1       7.690   5.182  13.412  0.00  0.00    +0.000 C 
ENDBRANCH   9  11
ENDBRANCH   3   9
ENDBRANCH   1   6
BRANCH   2  12
ATOM     12  C   UNL     1       2.146   6.794  18.790  0.00  0.00    +0.000 A 
ATOM     13  C   UNL     1       1.948   6.920  20.169  0.00  0.00    +0.000 A 
ATOM     14  C   UNL     1       1.512   8.133  20.707  0.00  0.00    +0.000 A 
ATOM     15  C   UNL     1       1.318   9.238  19.874  0.00  0.00    +0.000 A 
ATOM     16  C   UNL     1       1.589   9.133  18.505  0.00  0.00    +0.000 A 
ATOM     17  C   UNL     1       1.993   7.910  17.964  0.00  0.00    +0.000 A 
BRANCH  15  18
ATOM     18  C   UNL     1       0.820  10.471  20.416  0.00  0.00    +0.000 C 
ATOM     19  N   UNL     1       0.420  11.473  20.838  0.00  0.00    +0.000 NA
ENDBRANCH  15  18
ENDBRANCH   2  12
TORSDOF 5
ENDMDL
MODEL 7
REMARK VINA RESULT:      -5.8      3.624      4.708
REMARK  Name = 
REMARK  5 active torsions:
REMARK  status: ('A' for Active; 'I' for Inactive)
REMARK    1  A    between atoms: C_2  and  C_3
REMARK    2  A    between atoms: C_3  and  N_4
REMARK    3  A    between atoms: C_7  and  C_8
REMARK    4  A    between atoms: C_9  and  C_10
REMARK    5  A    between atoms: C_13  and  C_14
REMARK                            x       y       z     vdW  Elec       q    Type
REMARK                         _______ _______ _______ _____ _____    ______ ____
ROOT
ATOM      1  C   UNL     1       2.885   7.266  17.927  0.00  0.00    +0.000 C 
ATOM      2  C   UNL     1       2.341   8.490  18.020  0.00  0.00    +0.000 C 
ENDROOT
BRANCH   1   6
ATOM      3  N   UNL     1       4.213   3.821  17.818  0.00  0.00    +0.000 NA
ATOM      4  C   UNL     1       4.922   4.990  18.346  0.00  0.00    +0.000 C 
ATOM      5  C   UNL     1       4.105   5.663  19.443  0.00  0.00    +0.000 C 
ATOM      6  C   UNL     1       2.739   6.125  18.925  0.00  0.00    +0.000 C 
ATOM      7  C   UNL     1       2.023   4.905  18.324  0.00  0.00    +0.000 C 
ATOM      8  C   UNL     1       2.883   4.175  17.291  0.00  0.00    +0.000 C 
BRANCH   3   9
ATOM      9  C   UNL     1       5.045   3.183  16.792  0.00  0.00    +0.000 C 
BRANCH   9  11
ATOM     10  C   UNL     1       5.721   5.076  14.808  0.00  0.00    +0.000 C 
ATOM     11  C   UNL     1       5.409   4.202  15.724  0.00  0.00    +0.000 C 
ENDBRANCH   9  11
ENDBRANCH   3   9
ENDBRANCH   1   6
BRANCH   2  12
ATOM     12  C   UNL     1       1.475   8.905  19.121  0.00  0.00    +0.000 A 
ATOM     13  C   UNL     1       0.523   9.913  18.938  0.00  0.00    +0.000 A 
ATOM     14  C   UNL     1      -0.175  10.425  20.034  0.00  0.00    +0.000 A 
ATOM     15  C   UNL     1       0.044   9.899  21.311  0.00  0.00    +0.000 A 
ATOM     16  C   UNL     1       0.942   8.839  21.481  0.00  0.00    +0.000 A 
ATOM     17  C   UNL     1       1.662   8.350  20.389  0.00  0.00    +0.000 A 
BRANCH  15  18
ATOM     18  C   UNL     1      -0.633  10.458  22.447  0.00  0.00    +0.000 C 
ATOM     19  N   UNL     1      -1.181  10.924  23.355  0.00  0.00    +0.000 NA
ENDBRANCH  15  18
ENDBRANCH   2  12
TORSDOF 5
ENDMDL
MODEL 8
REMARK VINA RESULT:      -5.7      1.852      6.959
REMARK  Name = 
REMARK  5 active torsions:
REMARK  status: ('A' for Active; 'I' for Inactive)
REMARK    1  A    between atoms: C_2  and  C_3
REMARK    2  A    between atoms: C_3  and  N_4
REMARK    3  A    between atoms: C_7  and  C_8
REMARK    4  A    between atoms: C_9  and  C_10
REMARK    5  A    between atoms: C_13  and  C_14
REMARK                            x       y       z     vdW  Elec       q    Type
REMARK                         _______ _______ _______ _____ _____    ______ ____
ROOT
ATOM      1  C   UNL     1       5.343   4.638  19.347  0.00  0.00    +0.000 C 
ATOM      2  C   UNL     1       5.871   5.546  18.510  0.00  0.00    +0.000 C 
ENDROOT
BRANCH   1   6
ATOM      3  N   UNL     1       2.004   3.095  19.685  0.00  0.00    +0.000 NA
ATOM      4  C   UNL     1       2.466   3.881  18.537  0.00  0.00    +0.000 C 
ATOM      5  C   UNL     1       3.740   3.280  17.954  0.00  0.00    +0.000 C 
ATOM      6  C   UNL     1       4.868   3.236  18.989  0.00  0.00    +0.000 C 
ATOM      7  C   UNL     1       4.359   2.457  20.212  0.00  0.00    +0.000 C 
ATOM      8  C   UNL     1       3.031   3.004  20.739  0.00  0.00    +0.000 C 
BRANCH   3   9
ATOM      9  C   UNL     1       0.762   3.684  20.195  0.00  0.00    +0.000 C 
BRANCH   9  11
ATOM     10  C   UNL     1       1.201   6.389  20.880  0.00  0.00    +0.000 C 
ATOM     11  C   UNL     1       0.999   5.140  20.563  0.00  0.00    +0.000 C 
ENDBRANCH   9  11
ENDBRANCH   3   9
ENDBRANCH   1   6
BRANCH   2  12
ATOM     12  C   UNL     1       6.098   5.296  17.089  0.00  0.00    +0.000 A 
ATOM     13  C   UNL     1       5.197   5.768  16.129  0.00  0.00    +0.000 A 
ATOM     14  C   UNL     1       5.324   5.376  14.795  0.00  0.00    +0.000 A 
ATOM     15  C   UNL     1       6.382   4.547  14.408  0.00  0.00    +0.000 A 
ATOM     16  C   UNL     1       7.326   4.136  15.355  0.00  0.00    +0.000 A 
ATOM     17  C   UNL     1       7.178   4.503  16.695  0.00  0.00    +0.000 A 
BRANCH  15  18
ATOM     18  C   UNL     1       6.487   4.100  13.048  0.00  0.00    +0.000 C 
ATOM     19  N   UNL     1       6.583   3.727  11.955  0.00  0.00    +0.000 NA
ENDBRANCH  15  18
ENDBRANCH   2  12
TORSDOF 5
ENDMDL
MODEL 9
REMARK VINA RESULT:      -5.7      0.551      1.236
REMARK  Name = 
REMARK  5 active torsions:
REMARK  status: ('A' for Active; 'I' for Inactive)
REMARK    1  A    between atoms: C_2  and  C_3
REMARK    2  A    between atoms: C_3  and  N_4
REMARK    3  A    between atoms: C_7  and  C_8
REMARK    4  A    between atoms: C_9  and  C_10
REMARK    5  A    between atoms: C_13  and  C_14
REMARK                            x       y       z     vdW  Elec       q    Type
REMARK                         _______ _______ _______ _____ _____    ______ ____
ROOT
ATOM      1  C   UNL     1       4.414   6.490  17.276  0.00  0.00    +0.000 C 
ATOM      2  C   UNL     1       3.154   6.243  17.668  0.00  0.00    +0.000 C 
ENDROOT
BRANCH   1   6
ATOM      3  N   UNL     1       7.283   4.932  15.547  0.00  0.00    +0.000 NA
ATOM      4  C   UNL     1       7.136   6.362  15.834  0.00  0.00    +0.000 C 
ATOM      5  C   UNL     1       6.932   6.591  17.327  0.00  0.00    +0.000 C 
ATOM      6  C   UNL     1       5.684   5.869  17.843  0.00  0.00    +0.000 C 
ATOM      7  C   UNL     1       5.819   4.379  17.491  0.00  0.00    +0.000 C 
ATOM      8  C   UNL     1       6.118   4.156  16.007  0.00  0.00    +0.000 C 
BRANCH   3   9
ATOM      9  C   UNL     1       7.511   4.757  14.109  0.00  0.00    +0.000 C 
BRANCH   9  11
ATOM     10  C   UNL     1       5.242   3.560  12.926  0.00  0.00    +0.000 C 
ATOM     11  C   UNL     1       6.289   4.113  13.472  0.00  0.00    +0.000 C 
ENDBRANCH   9  11
ENDBRANCH   3   9
ENDBRANCH   1   6
BRANCH   2  12
ATOM     12  C   UNL     1       2.810   5.285  18.715  0.00  0.00    +0.000 A 
ATOM     13  C   UNL     1       2.310   4.020  18.389  0.00  0.00    +0.000 A 
ATOM     14  C   UNL     1       1.818   3.180  19.390  0.00  0.00    +0.000 A 
ATOM     15  C   UNL     1       1.868   3.584  20.728  0.00  0.00    +0.000 A 
ATOM     16  C   UNL     1       2.437   4.818  21.061  0.00  0.00    +0.000 A 
ATOM     17  C   UNL     1       2.899   5.670  20.055  0.00  0.00    +0.000 A 
BRANCH  15  18
ATOM     18  C   UNL     1       1.317   2.746  21.754  0.00  0.00    +0.000 C 
ATOM     19  N   UNL     1       0.883   2.057  22.579  0.00  0.00    +0.000 NA
ENDBRANCH  15  18
ENDBRANCH   2  12
TORSDOF 5
ENDMDL
