MODEL 1
REMARK VINA RESULT:      -8.7      0.000      0.000
REMARK  Name = 
REMARK  8 active torsions:
REMARK  status: ('A' for Active; 'I' for Inactive)
REMARK    1  A    between atoms: C_1  and  C_2
REMARK    2  A    between atoms: C_2  and  C_3
REMARK    3  A    between atoms: C_2  and  C_4
REMARK    4  A    between atoms: C_4  and  C_5
REMARK    5  A    between atoms: C_7  and  C_8
REMARK    6  A    between atoms: C_17  and  C_18
REMARK    7  A    between atoms: N_20  and  C_21
REMARK    8  A    between atoms: C_21  and  C_22
REMARK                            x       y       z     vdW  Elec       q    Type
REMARK                         _______ _______ _______ _____ _____    ______ ____
ROOT
ATOM      1  C   UNL     1      -0.553  10.728  20.005  0.00  0.00    +0.000 A 
ATOM      2  N   UNL     1      -1.324  11.451  20.862  0.00  0.00    +0.000 NA
ATOM      3  C   UNL     1      -1.014  11.468  22.170  0.00  0.00    +0.000 A 
ATOM      4  N   UNL     1      -0.011  10.749  22.701  0.00  0.00    +0.000 NA
ATOM      5  C   UNL     1       0.696   9.984  21.831  0.00  0.00    +0.000 A 
ATOM      6  C   UNL     1       0.461   9.908  20.468  0.00  0.00    +0.000 A 
ENDROOT
BRANCH   3   7
ATOM      7  C   UNL     1      -1.786  12.384  23.035  0.00  0.00    +0.000 A 
ATOM      8  C   UNL     1      -1.308  13.660  23.394  0.00  0.00    +0.000 A 
ATOM      9  C   UNL     1      -2.052  14.523  24.211  0.00  0.00    +0.000 A 
ATOM     10  C   UNL     1      -3.299  14.128  24.687  0.00  0.00    +0.000 A 
ATOM     11  C   UNL     1      -3.791  12.880  24.336  0.00  0.00    +0.000 A 
ATOM     12  F   UNL     1      -4.995  12.496  24.783  0.00  0.00    +0.000 F 
ATOM     13  C   UNL     1      -3.057  12.019  23.525  0.00  0.00    +0.000 A 
ENDBRANCH   3   7
BRANCH   6  14
ATOM     14  C   UNL     1       1.357   9.053  19.653  0.00  0.00    +0.000 C 
ATOM     15  O   UNL     1       1.692   9.450  18.539  0.00  0.00    +0.000 OA
ATOM     16  N   UNL     1       1.802   7.876  20.203  0.00  0.00    +0.000 N 
ATOM     17  H   UNL     1       1.655   7.685  21.186  0.00  0.00    +0.000 HD
BRANCH  16  18
ATOM     18  C   UNL     1       2.687   6.986  19.476  0.00  0.00    +0.000 C 
BRANCH  18  19
ATOM     19  C   UNL     1       2.087   5.611  19.297  0.00  0.00    +0.000 A 
ATOM     20  C   UNL     1       1.525   4.924  20.386  0.00  0.00    +0.000 A 
ATOM     21  C   UNL     1       0.994   3.642  20.214  0.00  0.00    +0.000 A 
ATOM     22  C   UNL     1       1.028   3.046  18.961  0.00  0.00    +0.000 A 
ATOM     23  F   UNL     1       0.530   1.811  18.803  0.00  0.00    +0.000 F 
ATOM     24  C   UNL     1       1.570   3.711  17.867  0.00  0.00    +0.000 A 
ATOM     25  C   UNL     1       2.102   4.992  18.036  0.00  0.00    +0.000 A 
ENDBRANCH  18  19
ENDBRANCH  16  18
ENDBRANCH   6  14
BRANCH   1  26
ATOM     26  C   UNL     1      -0.849  10.977  18.541  0.00  0.00    +0.000 C 
BRANCH  26  28
ATOM     27  C   UNL     1      -3.326  11.456  18.086  0.00  0.00    +0.000 C 
ATOM     28  C   UNL     1      -2.217  10.396  18.093  0.00  0.00    +0.000 C 
ATOM     29  C   UNL     1      -2.113   9.754  16.708  0.00  0.00    +0.000 C 
ENDBRANCH  26  28
ENDBRANCH   1  26
TORSDOF 6
ENDMDL
MODEL 2
REMARK VINA RESULT:      -8.6      4.452      6.953
REMARK  Name = 
REMARK  8 active torsions:
REMARK  status: ('A' for Active; 'I' for Inactive)
REMARK    1  A    between atoms: C_1  and  C_2
REMARK    2  A    between atoms: C_2  and  C_3
REMARK    3  A    between atoms: C_2  and  C_4
REMARK    4  A    between atoms: C_4  and  C_5
REMARK    5  A    between atoms: C_7  and  C_8
REMARK    6  A    between atoms: C_17  and  C_18
REMARK    7  A    between atoms: N_20  and  C_21
REMARK    8  A    between atoms: C_21  and  C_22
REMARK                            x       y       z     vdW  Elec       q    Type
REMARK                         _______ _______ _______ _____ _____    ______ ____
ROOT
ATOM      1  C   UNL     1       3.005   6.223  19.291  0.00  0.00    +0.000 A 
ATOM      2  N   UNL     1       2.141   7.215  19.638  0.00  0.00    +0.000 NA
ATOM      3  C   UNL     1       2.028   8.295  18.846  0.00  0.00    +0.000 A 
ATOM      4  N   UNL     1       2.779   8.488  17.750  0.00  0.00    +0.000 NA
ATOM      5  C   UNL     1       3.681   7.514  17.467  0.00  0.00    +0.000 A 
ATOM      6  C   UNL     1       3.864   6.362  18.214  0.00  0.00    +0.000 A 
ENDROOT
BRANCH   3   7
ATOM      7  C   UNL     1       0.972   9.272  19.182  0.00  0.00    +0.000 A 
ATOM      8  C   UNL     1       0.714   9.673  20.508  0.00  0.00    +0.000 A 
ATOM      9  C   UNL     1      -0.287  10.605  20.815  0.00  0.00    +0.000 A 
ATOM     10  C   UNL     1      -1.053  11.164  19.796  0.00  0.00    +0.000 A 
ATOM     11  C   UNL     1      -0.807  10.790  18.484  0.00  0.00    +0.000 A 
ATOM     12  F   UNL     1      -1.536  11.331  17.497  0.00  0.00    +0.000 F 
ATOM     13  C   UNL     1       0.185   9.865  18.173  0.00  0.00    +0.000 A 
ENDBRANCH   3   7
BRANCH   6  14
ATOM     14  C   UNL     1       4.866   5.377  17.742  0.00  0.00    +0.000 C 
ATOM     15  O   UNL     1       5.946   5.315  18.324  0.00  0.00    +0.000 OA
ATOM     16  N   UNL     1       4.518   4.552  16.701  0.00  0.00    +0.000 N 
ATOM     17  H   UNL     1       3.559   4.509  16.382  0.00  0.00    +0.000 HD
BRANCH  16  18
ATOM     18  C   UNL     1       5.437   3.555  16.183  0.00  0.00    +0.000 C 
BRANCH  18  19
ATOM     19  C   UNL     1       6.008   3.951  14.842  0.00  0.00    +0.000 A 
ATOM     20  C   UNL     1       5.484   3.420  13.651  0.00  0.00    +0.000 A 
ATOM     21  C   UNL     1       6.035   3.774  12.417  0.00  0.00    +0.000 A 
ATOM     22  C   UNL     1       7.109   4.653  12.370  0.00  0.00    +0.000 A 
ATOM     23  F   UNL     1       7.643   4.981  11.184  0.00  0.00    +0.000 F 
ATOM     24  C   UNL     1       7.637   5.199  13.533  0.00  0.00    +0.000 A 
ATOM     25  C   UNL     1       7.088   4.846  14.769  0.00  0.00    +0.000 A 
ENDBRANCH  18  19
ENDBRANCH  16  18
ENDBRANCH   6  14
BRANCH   1  26
ATOM     26  C   UNL     1       2.870   4.962  20.119  0.00  0.00    +0.000 C 
BRANCH  26  28
ATOM     27  C   UNL     1       1.347   3.604  18.566  0.00  0.00    +0.000 C 
ATOM     28  C   UNL     1       1.494   4.267  19.942  0.00  0.00    +0.000 C 
ATOM     29  C   UNL     1       1.260   3.227  21.039  0.00  0.00    +0.000 C 
ENDBRANCH  26  28
ENDBRANCH   1  26
TORSDOF 6
ENDMDL
MODEL 3
REMARK VINA RESULT:      -8.6      4.487      7.020
REMARK  Name = 
REMARK  8 active torsions:
REMARK  status: ('A' for Active; 'I' for Inactive)
REMARK    1  A    between atoms: C_1  and  C_2
REMARK    2  A    between atoms: C_2  and  C_3
REMARK    3  A    between atoms: C_2  and  C_4
REMARK    4  A    between atoms: C_4  and  C_5
REMARK    5  A    between atoms: C_7  and  C_8
REMARK    6  A    between atoms: C_17  and  C_18
REMARK    7  A    between atoms: N_20  and  C_21
REMARK    8  A    between atoms: C_21  and  C_22
REMARK                            x       y       z     vdW  Elec       q    Type
REMARK                         _______ _______ _______ _____ _____    ______ ____
ROOT
ATOM      1  C   UNL     1       3.011   5.958  19.478  0.00  0.00    +0.000 A 
ATOM      2  N   UNL     1       2.198   6.983  19.850  0.00  0.00    +0.000 NA
ATOM      3  C   UNL     1       2.119   8.076  19.071  0.00  0.00    +0.000 A 
ATOM      4  N   UNL     1       2.859   8.247  17.963  0.00  0.00    +0.000 NA
ATOM      5  C   UNL     1       3.712   7.237  17.655  0.00  0.00    +0.000 A 
ATOM      6  C   UNL     1       3.856   6.070  18.387  0.00  0.00    +0.000 A 
ENDROOT
BRANCH   3   7
ATOM      7  C   UNL     1       1.114   9.095  19.436  0.00  0.00    +0.000 A 
ATOM      8  C   UNL     1       0.545   9.162  20.724  0.00  0.00    +0.000 A 
ATOM      9  C   UNL     1      -0.404  10.137  21.060  0.00  0.00    +0.000 A 
ATOM     10  C   UNL     1      -0.805  11.075  20.113  0.00  0.00    +0.000 A 
ATOM     11  C   UNL     1      -0.249  11.031  18.843  0.00  0.00    +0.000 A 
ATOM     12  F   UNL     1      -0.624  11.936  17.929  0.00  0.00    +0.000 F 
ATOM     13  C   UNL     1       0.694  10.066  18.503  0.00  0.00    +0.000 A 
ENDBRANCH   3   7
BRANCH   6  14
ATOM     14  C   UNL     1       4.805   5.047  17.887  0.00  0.00    +0.000 C 
ATOM     15  O   UNL     1       5.749   4.723  18.604  0.00  0.00    +0.000 OA
ATOM     16  N   UNL     1       4.556   4.480  16.661  0.00  0.00    +0.000 N 
ATOM     17  H   UNL     1       3.671   4.638  16.197  0.00  0.00    +0.000 HD
BRANCH  16  18
ATOM     18  C   UNL     1       5.430   3.466  16.102  0.00  0.00    +0.000 C 
BRANCH  18  19
ATOM     19  C   UNL     1       6.049   3.907  14.797  0.00  0.00    +0.000 A 
ATOM     20  C   UNL     1       7.050   4.893  14.772  0.00  0.00    +0.000 A 
ATOM     21  C   UNL     1       7.599   5.312  13.557  0.00  0.00    +0.000 A 
ATOM     22  C   UNL     1       7.148   4.752  12.369  0.00  0.00    +0.000 A 
ATOM     23  F   UNL     1       7.668   5.166  11.204  0.00  0.00    +0.000 F 
ATOM     24  C   UNL     1       6.167   3.768  12.370  0.00  0.00    +0.000 A 
ATOM     25  C   UNL     1       5.615   3.349  13.583  0.00  0.00    +0.000 A 
ENDBRANCH  18  19
ENDBRANCH  16  18
ENDBRANCH   6  14
BRANCH   1  26
ATOM     26  C   UNL     1       2.835   4.695  20.295  0.00  0.00    +0.000 C 
BRANCH  26  28
ATOM     27  C   UNL     1       1.285   3.505  18.635  0.00  0.00    +0.000 C 
ATOM     28  C   UNL     1       1.457   4.017  20.071  0.00  0.00    +0.000 C 
ATOM     29  C   UNL     1       1.247   2.864  21.054  0.00  0.00    +0.000 C 
ENDBRANCH  26  28
ENDBRANCH   1  26
TORSDOF 6
ENDMDL
MODEL 4
REMARK VINA RESULT:      -8.6      4.229      6.760
REMARK  Name = 
REMARK  8 active torsions:
REMARK  status: ('A' for Active; 'I' for Inactive)
REMARK    1  A    between atoms: C_1  and  C_2
REMARK    2  A    between atoms: C_2  and  C_3
REMARK    3  A    between atoms: C_2  and  C_4
REMARK    4  A    between atoms: C_4  and  C_5
REMARK    5  A    between atoms: C_7  and  C_8
REMARK    6  A    between atoms: C_17  and  C_18
REMARK    7  A    between atoms: N_20  and  C_21
REMARK    8  A    between atoms: C_21  and  C_22
REMARK                            x       y       z     vdW  Elec       q    Type
REMARK                         _______ _______ _______ _____ _____    ______ ____
ROOT
ATOM      1  C   UNL     1       2.899   6.451  19.258  0.00  0.00    +0.000 A 
ATOM      2  N   UNL     1       2.009   7.436  19.553  0.00  0.00    +0.000 NA
ATOM      3  C   UNL     1       1.866   8.469  18.704  0.00  0.00    +0.000 A 
ATOM      4  N   UNL     1       2.610   8.622  17.596  0.00  0.00    +0.000 NA
ATOM      5  C   UNL     1       3.537   7.658  17.364  0.00  0.00    +0.000 A 
ATOM      6  C   UNL     1       3.752   6.553  18.172  0.00  0.00    +0.000 A 
ENDROOT
BRANCH   3   7
ATOM      7  C   UNL     1       0.785   9.434  18.990  0.00  0.00    +0.000 A 
ATOM      8  C   UNL     1      -0.182   9.785  18.027  0.00  0.00    +0.000 A 
ATOM      9  C   UNL     1      -1.207  10.698  18.312  0.00  0.00    +0.000 A 
ATOM     10  C   UNL     1      -1.291  11.280  19.574  0.00  0.00    +0.000 A 
ATOM     11  C   UNL     1      -0.354  10.939  20.537  0.00  0.00    +0.000 A 
ATOM     12  F   UNL     1      -0.434  11.489  21.757  0.00  0.00    +0.000 F 
ATOM     13  C   UNL     1       0.666  10.033  20.261  0.00  0.00    +0.000 A 
ENDBRANCH   3   7
BRANCH   6  14
ATOM     14  C   UNL     1       4.779   5.571  17.751  0.00  0.00    +0.000 C 
ATOM     15  O   UNL     1       5.880   5.605  18.295  0.00  0.00    +0.000 OA
ATOM     16  N   UNL     1       4.432   4.642  16.800  0.00  0.00    +0.000 N 
ATOM     17  H   UNL     1       3.466   4.533  16.523  0.00  0.00    +0.000 HD
BRANCH  16  18
ATOM     18  C   UNL     1       5.375   3.641  16.338  0.00  0.00    +0.000 C 
BRANCH  18  19
ATOM     19  C   UNL     1       5.952   3.986  14.985  0.00  0.00    +0.000 A 
ATOM     20  C   UNL     1       5.426   3.418  13.812  0.00  0.00    +0.000 A 
ATOM     21  C   UNL     1       5.982   3.724  12.568  0.00  0.00    +0.000 A 
ATOM     22  C   UNL     1       7.063   4.593  12.492  0.00  0.00    +0.000 A 
ATOM     23  F   UNL     1       7.602   4.875  11.297  0.00  0.00    +0.000 F 
ATOM     24  C   UNL     1       7.593   5.176  13.637  0.00  0.00    +0.000 A 
ATOM     25  C   UNL     1       7.039   4.869  14.883  0.00  0.00    +0.000 A 
ENDBRANCH  18  19
ENDBRANCH  16  18
ENDBRANCH   6  14
BRANCH   1  26
ATOM     26  C   UNL     1       2.799   5.233  20.153  0.00  0.00    +0.000 C 
BRANCH  26  28
ATOM     27  C   UNL     1       1.374   3.792  18.583  0.00  0.00    +0.000 C 
ATOM     28  C   UNL     1       1.472   4.452  19.965  0.00  0.00    +0.000 C 
ATOM     29  C   UNL     1       1.302   3.389  21.052  0.00  0.00    +0.000 C 
ENDBRANCH  26  28
ENDBRANCH   1  26
TORSDOF 6
ENDMDL
MODEL 5
REMARK VINA RESULT:      -8.5      4.436      7.128
REMARK  Name = 
REMARK  8 active torsions:
REMARK  status: ('A' for Active; 'I' for Inactive)
REMARK    1  A    between atoms: C_1  and  C_2
REMARK    2  A    between atoms: C_2  and  C_3
REMARK    3  A    between atoms: C_2  and  C_4
REMARK    4  A    between atoms: C_4  and  C_5
REMARK    5  A    between atoms: C_7  and  C_8
REMARK    6  A    between atoms: C_17  and  C_18
REMARK    7  A    between atoms: N_20  and  C_21
REMARK    8  A    between atoms: C_21  and  C_22
REMARK                            x       y       z     vdW  Elec       q    Type
REMARK                         _______ _______ _______ _____ _____    ______ ____
ROOT
ATOM      1  C   UNL     1       2.878   5.322  19.456  0.00  0.00    +0.000 A 
ATOM      2  N   UNL     1       2.375   6.406  20.105  0.00  0.00    +0.000 NA
ATOM      3  C   UNL     1       2.153   7.540  19.418  0.00  0.00    +0.000 A 
ATOM      4  N   UNL     1       2.466   7.690  18.121  0.00  0.00    +0.000 NA
ATOM      5  C   UNL     1       3.030   6.613  17.517  0.00  0.00    +0.000 A 
ATOM      6  C   UNL     1       3.288   5.400  18.136  0.00  0.00    +0.000 A 
ENDROOT
BRANCH   3   7
ATOM      7  C   UNL     1       1.468   8.638  20.130  0.00  0.00    +0.000 A 
ATOM      8  C   UNL     1       1.029   9.803  19.469  0.00  0.00    +0.000 A 
ATOM      9  C   UNL     1       0.375  10.837  20.153  0.00  0.00    +0.000 A 
ATOM     10  C   UNL     1       0.140  10.727  21.521  0.00  0.00    +0.000 A 
ATOM     11  C   UNL     1       0.556   9.584  22.187  0.00  0.00    +0.000 A 
ATOM     12  F   UNL     1       0.326   9.467  23.502  0.00  0.00    +0.000 F 
ATOM     13  C   UNL     1       1.206   8.554  21.513  0.00  0.00    +0.000 A 
ENDBRANCH   3   7
BRANCH   6  14
ATOM     14  C   UNL     1       3.872   4.311  17.319  0.00  0.00    +0.000 C 
ATOM     15  O   UNL     1       3.148   3.374  16.989  0.00  0.00    +0.000 OA
ATOM     16  N   UNL     1       5.186   4.424  16.936  0.00  0.00    +0.000 N 
ATOM     17  H   UNL     1       5.682   5.296  17.069  0.00  0.00    +0.000 HD
BRANCH  16  18
ATOM     18  C   UNL     1       5.832   3.406  16.129  0.00  0.00    +0.000 C 
BRANCH  18  19
ATOM     19  C   UNL     1       6.299   3.949  14.799  0.00  0.00    +0.000 A 
ATOM     20  C   UNL     1       5.803   3.424  13.593  0.00  0.00    +0.000 A 
ATOM     21  C   UNL     1       6.260   3.916  12.368  0.00  0.00    +0.000 A 
ATOM     22  C   UNL     1       7.212   4.926  12.344  0.00  0.00    +0.000 A 
ATOM     23  F   UNL     1       7.658   5.387  11.166  0.00  0.00    +0.000 F 
ATOM     24  C   UNL     1       7.709   5.468  13.523  0.00  0.00    +0.000 A 
ATOM     25  C   UNL     1       7.255   4.976  14.750  0.00  0.00    +0.000 A 
ENDBRANCH  18  19
ENDBRANCH  16  18
ENDBRANCH   6  14
BRANCH   1  26
ATOM     26  C   UNL     1       2.857   4.044  20.269  0.00  0.00    +0.000 C 
BRANCH  26  28
ATOM     27  C   UNL     1       0.734   2.880  19.427  0.00  0.00    +0.000 C 
ATOM     28  C   UNL     1       1.420   3.570  20.613  0.00  0.00    +0.000 C 
ATOM     29  C   UNL     1       1.428   2.628  21.819  0.00  0.00    +0.000 C 
ENDBRANCH  26  28
ENDBRANCH   1  26
TORSDOF 6
ENDMDL
MODEL 6
REMARK VINA RESULT:      -8.5      4.659      7.345
REMARK  Name = 
REMARK  8 active torsions:
REMARK  status: ('A' for Active; 'I' for Inactive)
REMARK    1  A    between atoms: C_1  and  C_2
REMARK    2  A    between atoms: C_2  and  C_3
REMARK    3  A    between atoms: C_2  and  C_4
REMARK    4  A    between atoms: C_4  and  C_5
REMARK    5  A    between atoms: C_7  and  C_8
REMARK    6  A    between atoms: C_17  and  C_18
REMARK    7  A    between atoms: N_20  and  C_21
REMARK    8  A    between atoms: C_21  and  C_22
REMARK                            x       y       z     vdW  Elec       q    Type
REMARK                         _______ _______ _______ _____ _____    ______ ____
ROOT
ATOM      1  C   UNL     1       3.335   5.427  19.090  0.00  0.00    +0.000 A 
ATOM      2  N   UNL     1       2.513   6.380  19.608  0.00  0.00    +0.000 NA
ATOM      3  C   UNL     1       2.455   7.588  19.021  0.00  0.00    +0.000 A 
ATOM      4  N   UNL     1       3.221   7.938  17.976  0.00  0.00    +0.000 NA
ATOM      5  C   UNL     1       4.081   6.990  17.524  0.00  0.00    +0.000 A 
ATOM      6  C   UNL     1       4.206   5.716  18.054  0.00  0.00    +0.000 A 
ENDROOT
BRANCH   3   7
ATOM      7  C   UNL     1       1.441   8.536  19.527  0.00  0.00    +0.000 A 
ATOM      8  C   UNL     1       0.902   9.559  18.721  0.00  0.00    +0.000 A 
ATOM      9  C   UNL     1      -0.064  10.450  19.209  0.00  0.00    +0.000 A 
ATOM     10  C   UNL     1      -0.518  10.335  20.520  0.00  0.00    +0.000 A 
ATOM     11  C   UNL     1      -0.006   9.328  21.325  0.00  0.00    +0.000 A 
ATOM     12  F   UNL     1      -0.444   9.206  22.586  0.00  0.00    +0.000 F 
ATOM     13  C   UNL     1       0.953   8.441  20.846  0.00  0.00    +0.000 A 
ENDBRANCH   3   7
BRANCH   6  14
ATOM     14  C   UNL     1       5.166   4.786  17.414  0.00  0.00    +0.000 C 
ATOM     15  O   UNL     1       6.240   4.576  17.972  0.00  0.00    +0.000 OA
ATOM     16  N   UNL     1       4.788   4.171  16.245  0.00  0.00    +0.000 N 
ATOM     17  H   UNL     1       3.829   4.227  15.927  0.00  0.00    +0.000 HD
BRANCH  16  18
ATOM     18  C   UNL     1       5.664   3.241  15.558  0.00  0.00    +0.000 C 
BRANCH  18  19
ATOM     19  C   UNL     1       6.256   3.840  14.304  0.00  0.00    +0.000 A 
ATOM     20  C   UNL     1       7.211   4.868  14.378  0.00  0.00    +0.000 A 
ATOM     21  C   UNL     1       7.734   5.432  13.212  0.00  0.00    +0.000 A 
ATOM     22  C   UNL     1       7.302   4.976  11.973  0.00  0.00    +0.000 A 
ATOM     23  F   UNL     1       7.797   5.528  10.856  0.00  0.00    +0.000 F 
ATOM     24  C   UNL     1       6.367   3.953  11.875  0.00  0.00    +0.000 A 
ATOM     25  C   UNL     1       5.841   3.388  13.040  0.00  0.00    +0.000 A 
ENDBRANCH  18  19
ENDBRANCH  16  18
ENDBRANCH   6  14
BRANCH   1  26
ATOM     26  C   UNL     1       3.137   4.047  19.681  0.00  0.00    +0.000 C 
BRANCH  26  28
ATOM     27  C   UNL     1       0.816   2.969  19.533  0.00  0.00    +0.000 C 
ATOM     28  C   UNL     1       1.750   3.869  20.353  0.00  0.00    +0.000 C 
ATOM     29  C   UNL     1       1.893   3.305  21.767  0.00  0.00    +0.000 C 
ENDBRANCH  26  28
ENDBRANCH   1  26
TORSDOF 6
ENDMDL
MODEL 7
REMARK VINA RESULT:      -8.5      0.917      1.289
REMARK  Name = 
REMARK  8 active torsions:
REMARK  status: ('A' for Active; 'I' for Inactive)
REMARK    1  A    between atoms: C_1  and  C_2
REMARK    2  A    between atoms: C_2  and  C_3
REMARK    3  A    between atoms: C_2  and  C_4
REMARK    4  A    between atoms: C_4  and  C_5
REMARK    5  A    between atoms: C_7  and  C_8
REMARK    6  A    between atoms: C_17  and  C_18
REMARK    7  A    between atoms: N_20  and  C_21
REMARK    8  A    between atoms: C_21  and  C_22
REMARK                            x       y       z     vdW  Elec       q    Type
REMARK                         _______ _______ _______ _____ _____    ______ ____
ROOT
ATOM      1  C   UNL     1      -0.615  10.810  20.013  0.00  0.00    +0.000 A 
ATOM      2  N   UNL     1      -1.376  11.540  20.871  0.00  0.00    +0.000 NA
ATOM      3  C   UNL     1      -1.072  11.544  22.181  0.00  0.00    +0.000 A 
ATOM      4  N   UNL     1      -0.085  10.804  22.711  0.00  0.00    +0.000 NA
ATOM      5  C   UNL     1       0.613  10.031  21.840  0.00  0.00    +0.000 A 
ATOM      6  C   UNL     1       0.383   9.969  20.475  0.00  0.00    +0.000 A 
ENDROOT
BRANCH   3   7
ATOM      7  C   UNL     1      -1.832  12.467  23.049  0.00  0.00    +0.000 A 
ATOM      8  C   UNL     1      -3.120  12.157  23.529  0.00  0.00    +0.000 A 
ATOM      9  C   UNL     1      -3.829  13.039  24.357  0.00  0.00    +0.000 A 
ATOM     10  C   UNL     1      -3.261  14.254  24.729  0.00  0.00    +0.000 A 
ATOM     11  C   UNL     1      -1.990  14.572  24.275  0.00  0.00    +0.000 A 
ATOM     12  F   UNL     1      -1.434  15.736  24.635  0.00  0.00    +0.000 F 
ATOM     13  C   UNL     1      -1.281  13.701  23.452  0.00  0.00    +0.000 A 
ENDBRANCH   3   7
BRANCH   6  14
ATOM     14  C   UNL     1       1.266   9.104  19.658  0.00  0.00    +0.000 C 
ATOM     15  O   UNL     1       1.519   9.446  18.505  0.00  0.00    +0.000 OA
ATOM     16  N   UNL     1       1.794   7.980  20.247  0.00  0.00    +0.000 N 
ATOM     17  H   UNL     1       1.712   7.842  21.246  0.00  0.00    +0.000 HD
BRANCH  16  18
ATOM     18  C   UNL     1       2.674   7.084  19.521  0.00  0.00    +0.000 C 
BRANCH  18  19
ATOM     19  C   UNL     1       2.062   5.716  19.334  0.00  0.00    +0.000 A 
ATOM     20  C   UNL     1       1.496   5.026  20.419  0.00  0.00    +0.000 A 
ATOM     21  C   UNL     1       0.954   3.751  20.241  0.00  0.00    +0.000 A 
ATOM     22  C   UNL     1       0.981   3.162  18.983  0.00  0.00    +0.000 A 
ATOM     23  F   UNL     1       0.472   1.932  18.818  0.00  0.00    +0.000 F 
ATOM     24  C   UNL     1       1.527   3.829  17.893  0.00  0.00    +0.000 A 
ATOM     25  C   UNL     1       2.070   5.104  18.069  0.00  0.00    +0.000 A 
ENDBRANCH  18  19
ENDBRANCH  16  18
ENDBRANCH   6  14
BRANCH   1  26
ATOM     26  C   UNL     1      -0.900  11.073  18.549  0.00  0.00    +0.000 C 
BRANCH  26  28
ATOM     27  C   UNL     1      -3.382  11.412  18.001  0.00  0.00    +0.000 C 
ATOM     28  C   UNL     1      -2.218  10.414  18.061  0.00  0.00    +0.000 C 
ATOM     29  C   UNL     1      -2.030   9.763  16.690  0.00  0.00    +0.000 C 
ENDBRANCH  26  28
ENDBRANCH   1  26
TORSDOF 6
ENDMDL
MODEL 8
REMARK VINA RESULT:      -8.4      3.634      9.716
REMARK  Name = 
REMARK  8 active torsions:
REMARK  status: ('A' for Active; 'I' for Inactive)
REMARK    1  A    between atoms: C_1  and  C_2
REMARK    2  A    between atoms: C_2  and  C_3
REMARK    3  A    between atoms: C_2  and  C_4
REMARK    4  A    between atoms: C_4  and  C_5
REMARK    5  A    between atoms: C_7  and  C_8
REMARK    6  A    between atoms: C_17  and  C_18
REMARK    7  A    between atoms: N_20  and  C_21
REMARK    8  A    between atoms: C_21  and  C_22
REMARK                            x       y       z     vdW  Elec       q    Type
REMARK                         _______ _______ _______ _____ _____    ______ ____
ROOT
ATOM      1  C   UNL     1       2.469   6.478  19.325  0.00  0.00    +0.000 A 
ATOM      2  N   UNL     1       3.377   5.767  18.603  0.00  0.00    +0.000 NA
ATOM      3  C   UNL     1       4.080   6.386  17.640  0.00  0.00    +0.000 A 
ATOM      4  N   UNL     1       3.891   7.671  17.297  0.00  0.00    +0.000 NA
ATOM      5  C   UNL     1       2.931   8.335  17.989  0.00  0.00    +0.000 A 
ATOM      6  C   UNL     1       2.162   7.789  19.004  0.00  0.00    +0.000 A 
ENDROOT
BRANCH   3   7
ATOM      7  C   UNL     1       5.157   5.614  16.986  0.00  0.00    +0.000 A 
ATOM      8  C   UNL     1       6.350   5.274  17.655  0.00  0.00    +0.000 A 
ATOM      9  C   UNL     1       7.362   4.535  17.026  0.00  0.00    +0.000 A 
ATOM     10  C   UNL     1       7.201   4.113  15.709  0.00  0.00    +0.000 A 
ATOM     11  C   UNL     1       6.029   4.429  15.038  0.00  0.00    +0.000 A 
ATOM     12  F   UNL     1       5.864   4.019  13.773  0.00  0.00    +0.000 F 
ATOM     13  C   UNL     1       5.021   5.162  15.657  0.00  0.00    +0.000 A 
ENDBRANCH   3   7
BRANCH   6  14
ATOM     14  C   UNL     1       1.183   8.667  19.687  0.00  0.00    +0.000 C 
ATOM     15  O   UNL     1       0.986   8.501  20.888  0.00  0.00    +0.000 OA
ATOM     16  N   UNL     1       0.574   9.652  18.948  0.00  0.00    +0.000 N 
ATOM     17  H   UNL     1       0.907   9.871  18.018  0.00  0.00    +0.000 HD
BRANCH  16  18
ATOM     18  C   UNL     1      -0.390  10.560  19.542  0.00  0.00    +0.000 C 
BRANCH  18  19
ATOM     19  C   UNL     1      -1.618  10.726  18.679  0.00  0.00    +0.000 A 
ATOM     20  C   UNL     1      -1.769   9.989  17.491  0.00  0.00    +0.000 A 
ATOM     21  C   UNL     1      -2.898  10.168  16.688  0.00  0.00    +0.000 A 
ATOM     22  C   UNL     1      -3.873  11.082  17.064  0.00  0.00    +0.000 A 
ATOM     23  F   UNL     1      -4.948  11.260  16.284  0.00  0.00    +0.000 F 
ATOM     24  C   UNL     1      -3.750  11.814  18.239  0.00  0.00    +0.000 A 
ATOM     25  C   UNL     1      -2.622  11.638  19.044  0.00  0.00    +0.000 A 
ENDBRANCH  18  19
ENDBRANCH  16  18
ENDBRANCH   6  14
BRANCH   1  26
ATOM     26  C   UNL     1       1.920   5.743  20.530  0.00  0.00    +0.000 C 
BRANCH  26  28
ATOM     27  C   UNL     1       2.273   3.526  21.768  0.00  0.00    +0.000 C 
ATOM     28  C   UNL     1       2.048   4.201  20.409  0.00  0.00    +0.000 C 
ATOM     29  C   UNL     1       0.812   3.599  19.737  0.00  0.00    +0.000 C 
ENDBRANCH  26  28
ENDBRANCH   1  26
TORSDOF 6
ENDMDL
MODEL 9
REMARK VINA RESULT:      -8.3      5.073     11.212
REMARK  Name = 
REMARK  8 active torsions:
REMARK  status: ('A' for Active; 'I' for Inactive)
REMARK    1  A    between atoms: C_1  and  C_2
REMARK    2  A    between atoms: C_2  and  C_3
REMARK    3  A    between atoms: C_2  and  C_4
REMARK    4  A    between atoms: C_4  and  C_5
REMARK    5  A    between atoms: C_7  and  C_8
REMARK    6  A    between atoms: C_17  and  C_18
REMARK    7  A    between atoms: N_20  and  C_21
REMARK    8  A    between atoms: C_21  and  C_22
REMARK                            x       y       z     vdW  Elec       q    Type
REMARK                         _______ _______ _______ _____ _____    ______ ____
ROOT
ATOM      1  C   UNL     1       5.564   6.126  17.014  0.00  0.00    +0.000 A 
ATOM      2  N   UNL     1       6.081   5.676  15.840  0.00  0.00    +0.000 NA
ATOM      3  C   UNL     1       5.539   4.595  15.253  0.00  0.00    +0.000 A 
ATOM      4  N   UNL     1       4.542   3.881  15.799  0.00  0.00    +0.000 NA
ATOM      5  C   UNL     1       4.091   4.314  17.005  0.00  0.00    +0.000 A 
ATOM      6  C   UNL     1       4.578   5.421  17.682  0.00  0.00    +0.000 A 
ENDROOT
BRANCH   3   7
ATOM      7  C   UNL     1       6.036   4.235  13.909  0.00  0.00    +0.000 A 
ATOM      8  C   UNL     1       7.167   4.851  13.337  0.00  0.00    +0.000 A 
ATOM      9  C   UNL     1       7.633   4.496  12.063  0.00  0.00    +0.000 A 
ATOM     10  C   UNL     1       6.978   3.509  11.331  0.00  0.00    +0.000 A 
ATOM     11  C   UNL     1       5.870   2.884  11.883  0.00  0.00    +0.000 A 
ATOM     12  F   UNL     1       5.240   1.927  11.188  0.00  0.00    +0.000 F 
ATOM     13  C   UNL     1       5.402   3.231  13.147  0.00  0.00    +0.000 A 
ENDBRANCH   3   7
BRANCH   6  14
ATOM     14  C   UNL     1       3.944   5.782  18.972  0.00  0.00    +0.000 C 
ATOM     15  O   UNL     1       4.436   5.343  20.009  0.00  0.00    +0.000 OA
ATOM     16  N   UNL     1       2.860   6.625  18.946  0.00  0.00    +0.000 N 
ATOM     17  H   UNL     1       2.611   7.108  18.092  0.00  0.00    +0.000 HD
BRANCH  16  18
ATOM     18  C   UNL     1       2.186   7.034  20.164  0.00  0.00    +0.000 C 
BRANCH  18  19
ATOM     19  C   UNL     1       1.463   8.349  19.998  0.00  0.00    +0.000 A 
ATOM     20  C   UNL     1       0.700   8.889  21.048  0.00  0.00    +0.000 A 
ATOM     21  C   UNL     1       0.015  10.094  20.876  0.00  0.00    +0.000 A 
ATOM     22  C   UNL     1       0.086  10.759  19.659  0.00  0.00    +0.000 A 
ATOM     23  F   UNL     1      -0.583  11.909  19.493  0.00  0.00    +0.000 F 
ATOM     24  C   UNL     1       0.842  10.250  18.610  0.00  0.00    +0.000 A 
ATOM     25  C   UNL     1       1.527   9.044  18.779  0.00  0.00    +0.000 A 
ENDBRANCH  18  19
ENDBRANCH  16  18
ENDBRANCH   6  14
BRANCH   1  26
ATOM     26  C   UNL     1       6.092   7.477  17.450  0.00  0.00    +0.000 C 
BRANCH  26  28
ATOM     27  C   UNL     1       8.174   8.902  17.907  0.00  0.00    +0.000 C 
ATOM     28  C   UNL     1       7.631   7.491  17.643  0.00  0.00    +0.000 C 
ATOM     29  C   UNL     1       8.051   6.560  18.782  0.00  0.00    +0.000 C 
ENDBRANCH  26  28
ENDBRANCH   1  26
TORSDOF 6
ENDMDL
