MODEL 1
REMARK VINA RESULT:      -8.0      0.000      0.000
REMARK  Name = 
REMARK  7 active torsions:
REMARK  status: ('A' for Active; 'I' for Inactive)
REMARK    1  A    between atoms: C_6  and  C_7
REMARK    2  A    between atoms: C_11  and  C_12
REMARK    3  A    between atoms: C_11  and  C_13
REMARK    4  A    between atoms: C_13  and  O_15
REMARK    5  A    between atoms: C_16  and  C_17
REMARK    6  A    between atoms: C_17  and  C_18
REMARK    7  A    between atoms: C_18  and  C_19
REMARK                            x       y       z     vdW  Elec       q    Type
REMARK                         _______ _______ _______ _____ _____    ______ ____
ROOT
ATOM      1  C   UNL     1       4.692   6.858  16.418  0.00  0.00    +0.000 C 
ATOM      2  C   UNL     1       4.562   6.349  17.663  0.00  0.00    +0.000 C 
ATOM      3  C   UNL     1       5.688   5.548  18.265  0.00  0.00    +0.000 C 
ATOM      4  C   UNL     1       5.243   4.130  18.646  0.00  0.00    +0.000 C 
ATOM      5  C   UNL     1       3.961   4.122  19.503  0.00  0.00    +0.000 C 
ATOM      6  C   UNL     1       2.792   4.963  18.853  0.00  0.00    +0.000 C 
ATOM      7  C   UNL     1       2.313   4.365  17.503  0.00  0.00    +0.000 C 
ATOM      8  C   UNL     1       1.617   5.019  19.857  0.00  0.00    +0.000 C 
ATOM      9  C   UNL     1       1.325   3.855  20.793  0.00  0.00    +0.000 C 
ATOM     10  C   UNL     1       2.498   2.981  21.189  0.00  0.00    +0.000 C 
ATOM     11  C   UNL     1       3.516   2.711  20.054  0.00  0.00    +0.000 C 
ATOM     12  C   UNL     1       4.667   1.918  20.716  0.00  0.00    +0.000 C 
ATOM     13  C   UNL     1       3.303   6.454  18.547  0.00  0.00    +0.000 C 
ENDROOT
BRANCH  11  14
ATOM     14  C   UNL     1       2.875   1.744  19.040  0.00  0.00    +0.000 C 
ATOM     15  O   UNL     1       1.673   1.537  18.948  0.00  0.00    +0.000 OA
BRANCH  14  16
ATOM     16  O   UNL     1       3.739   1.102  18.230  0.00  0.00    +0.000 OA
ATOM     17  H   UNL     1       3.343   0.658  17.466  0.00  0.00    +0.000 HD
ENDBRANCH  14  16
ENDBRANCH  11  14
BRANCH  13  18
ATOM     18  C   UNL     1       2.248   7.454  17.950  0.00  0.00    +0.000 C 
BRANCH  18  19
ATOM     19  C   UNL     1       2.234   8.904  18.451  0.00  0.00    +0.000 C 
BRANCH  19  20
ATOM     20  C   UNL     1       1.233   9.136  19.531  0.00  0.00    +0.000 A 
ATOM     21  C   UNL     1       1.203   8.511  20.814  0.00  0.00    +0.000 A 
ATOM     22  C   UNL     1       0.142   9.069  21.491  0.00  0.00    +0.000 A 
ATOM     23  O   UNL     1      -0.479   9.994  20.716  0.00  0.00    +0.000 OA
ATOM     24  C   UNL     1       0.187  10.032  19.534  0.00  0.00    +0.000 A 
ENDBRANCH  19  20
ENDBRANCH  18  19
ENDBRANCH  13  18
TORSDOF 5
ENDMDL
MODEL 2
REMARK VINA RESULT:      -7.6      3.153      6.118
REMARK  Name = 
REMARK  7 active torsions:
REMARK  status: ('A' for Active; 'I' for Inactive)
REMARK    1  A    between atoms: C_6  and  C_7
REMARK    2  A    between atoms: C_11  and  C_12
REMARK    3  A    between atoms: C_11  and  C_13
REMARK    4  A    between atoms: C_13  and  O_15
REMARK    5  A    between atoms: C_16  and  C_17
REMARK    6  A    between atoms: C_17  and  C_18
REMARK    7  A    between atoms: C_18  and  C_19
REMARK                            x       y       z     vdW  Elec       q    Type
REMARK                         _______ _______ _______ _____ _____    ______ ____
ROOT
ATOM      1  C   UNL     1       5.758   7.099  17.358  0.00  0.00    +0.000 C 
ATOM      2  C   UNL     1       4.617   6.376  17.330  0.00  0.00    +0.000 C 
ATOM      3  C   UNL     1       3.325   6.998  17.795  0.00  0.00    +0.000 C 
ATOM      4  C   UNL     1       2.695   6.213  18.953  0.00  0.00    +0.000 C 
ATOM      5  C   UNL     1       2.572   4.706  18.649  0.00  0.00    +0.000 C 
ATOM      6  C   UNL     1       3.937   4.073  18.167  0.00  0.00    +0.000 C 
ATOM      7  C   UNL     1       5.032   4.120  19.266  0.00  0.00    +0.000 C 
ATOM      8  C   UNL     1       3.671   2.610  17.743  0.00  0.00    +0.000 C 
ATOM      9  C   UNL     1       2.614   1.767  18.442  0.00  0.00    +0.000 C 
ATOM     10  C   UNL     1       1.441   2.506  19.055  0.00  0.00    +0.000 C 
ATOM     11  C   UNL     1       1.806   3.850  19.732  0.00  0.00    +0.000 C 
ATOM     12  C   UNL     1       0.458   4.471  20.166  0.00  0.00    +0.000 C 
ATOM     13  C   UNL     1       4.504   4.897  16.912  0.00  0.00    +0.000 C 
ENDROOT
BRANCH  11  14
ATOM     14  C   UNL     1       2.565   3.552  21.039  0.00  0.00    +0.000 C 
ATOM     15  O   UNL     1       2.995   2.450  21.352  0.00  0.00    +0.000 OA
BRANCH  14  16
ATOM     16  O   UNL     1       2.733   4.605  21.862  0.00  0.00    +0.000 OA
ATOM     17  H   UNL     1       1.968   4.832  22.409  0.00  0.00    +0.000 HD
ENDBRANCH  14  16
ENDBRANCH  11  14
BRANCH  13  18
ATOM     18  C   UNL     1       5.833   4.368  16.260  0.00  0.00    +0.000 C 
BRANCH  18  19
ATOM     19  C   UNL     1       5.749   3.534  14.975  0.00  0.00    +0.000 C 
BRANCH  19  20
ATOM     20  C   UNL     1       6.541   4.113  13.853  0.00  0.00    +0.000 A 
ATOM     21  C   UNL     1       6.494   3.716  12.482  0.00  0.00    +0.000 A 
ATOM     22  C   UNL     1       7.347   4.559  11.807  0.00  0.00    +0.000 A 
ATOM     23  O   UNL     1       7.912   5.446  12.664  0.00  0.00    +0.000 OA
ATOM     24  C   UNL     1       7.418   5.174  13.899  0.00  0.00    +0.000 A 
ENDBRANCH  19  20
ENDBRANCH  18  19
ENDBRANCH  13  18
TORSDOF 5
ENDMDL
MODEL 3
REMARK VINA RESULT:      -7.5      2.140      4.144
REMARK  Name = 
REMARK  7 active torsions:
REMARK  status: ('A' for Active; 'I' for Inactive)
REMARK    1  A    between atoms: C_6  and  C_7
REMARK    2  A    between atoms: C_11  and  C_12
REMARK    3  A    between atoms: C_11  and  C_13
REMARK    4  A    between atoms: C_13  and  O_15
REMARK    5  A    between atoms: C_16  and  C_17
REMARK    6  A    between atoms: C_17  and  C_18
REMARK    7  A    between atoms: C_18  and  C_19
REMARK                            x       y       z     vdW  Elec       q    Type
REMARK                         _______ _______ _______ _____ _____    ______ ____
ROOT
ATOM      1  C   UNL     1       2.101   3.321  20.638  0.00  0.00    +0.000 C 
ATOM      2  C   UNL     1       2.280   3.835  19.401  0.00  0.00    +0.000 C 
ATOM      3  C   UNL     1       2.474   2.910  18.227  0.00  0.00    +0.000 C 
ATOM      4  C   UNL     1       3.807   3.164  17.511  0.00  0.00    +0.000 C 
ATOM      5  C   UNL     1       4.016   4.651  17.159  0.00  0.00    +0.000 C 
ATOM      6  C   UNL     1       3.812   5.603  18.402  0.00  0.00    +0.000 C 
ATOM      7  C   UNL     1       4.866   5.357  19.515  0.00  0.00    +0.000 C 
ATOM      8  C   UNL     1       3.888   7.067  17.911  0.00  0.00    +0.000 C 
ATOM      9  C   UNL     1       4.794   7.464  16.756  0.00  0.00    +0.000 C 
ATOM     10  C   UNL     1       5.093   6.398  15.720  0.00  0.00    +0.000 C 
ATOM     11  C   UNL     1       5.298   4.975  16.296  0.00  0.00    +0.000 C 
ATOM     12  C   UNL     1       5.461   4.054  15.065  0.00  0.00    +0.000 C 
ATOM     13  C   UNL     1       2.372   5.336  19.059  0.00  0.00    +0.000 C 
ENDROOT
BRANCH  11  14
ATOM     14  C   UNL     1       6.652   4.933  17.029  0.00  0.00    +0.000 C 
ATOM     15  O   UNL     1       7.510   5.802  16.947  0.00  0.00    +0.000 OA
BRANCH  14  16
ATOM     16  O   UNL     1       6.861   3.842  17.791  0.00  0.00    +0.000 OA
ATOM     17  H   UNL     1       6.224   3.706  18.507  0.00  0.00    +0.000 HD
ENDBRANCH  14  16
ENDBRANCH  11  14
BRANCH  13  18
ATOM     18  C   UNL     1       1.971   6.241  20.280  0.00  0.00    +0.000 C 
BRANCH  18  19
ATOM     19  C   UNL     1       1.829   7.754  20.068  0.00  0.00    +0.000 C 
BRANCH  19  20
ATOM     20  C   UNL     1       1.112   8.433  21.184  0.00  0.00    +0.000 A 
ATOM     21  C   UNL     1      -0.293   8.412  21.434  0.00  0.00    +0.000 A 
ATOM     22  C   UNL     1      -0.490   9.125  22.594  0.00  0.00    +0.000 A 
ATOM     23  O   UNL     1       0.694   9.580  23.077  0.00  0.00    +0.000 OA
ATOM     24  C   UNL     1       1.659   9.155  22.223  0.00  0.00    +0.000 A 
ENDBRANCH  19  20
ENDBRANCH  18  19
ENDBRANCH  13  18
TORSDOF 5
ENDMDL
MODEL 4
REMARK VINA RESULT:      -7.3      0.850      1.274
REMARK  Name = 
REMARK  7 active torsions:
REMARK  status: ('A' for Active; 'I' for Inactive)
REMARK    1  A    between atoms: C_6  and  C_7
REMARK    2  A    between atoms: C_11  and  C_12
REMARK    3  A    between atoms: C_11  and  C_13
REMARK    4  A    between atoms: C_13  and  O_15
REMARK    5  A    between atoms: C_16  and  C_17
REMARK    6  A    between atoms: C_17  and  C_18
REMARK    7  A    between atoms: C_18  and  C_19
REMARK                            x       y       z     vdW  Elec       q    Type
REMARK                         _______ _______ _______ _____ _____    ______ ____
ROOT
ATOM      1  C   UNL     1       4.174   7.291  16.739  0.00  0.00    +0.000 C 
ATOM      2  C   UNL     1       4.237   6.602  17.899  0.00  0.00    +0.000 C 
ATOM      3  C   UNL     1       5.396   5.673  18.156  0.00  0.00    +0.000 C 
ATOM      4  C   UNL     1       4.930   4.233  18.408  0.00  0.00    +0.000 C 
ATOM      5  C   UNL     1       3.828   4.147  19.483  0.00  0.00    +0.000 C 
ATOM      6  C   UNL     1       2.622   5.125  19.194  0.00  0.00    +0.000 C 
ATOM      7  C   UNL     1       1.865   4.761  17.889  0.00  0.00    +0.000 C 
ATOM      8  C   UNL     1       1.656   5.075  20.401  0.00  0.00    +0.000 C 
ATOM      9  C   UNL     1       1.458   3.795  21.199  0.00  0.00    +0.000 C 
ATOM     10  C   UNL     1       2.621   2.823  21.237  0.00  0.00    +0.000 C 
ATOM     11  C   UNL     1       3.395   2.687  19.902  0.00  0.00    +0.000 C 
ATOM     12  C   UNL     1       4.589   1.755  20.213  0.00  0.00    +0.000 C 
ATOM     13  C   UNL     1       3.170   6.622  19.012  0.00  0.00    +0.000 C 
ENDROOT
BRANCH  11  14
ATOM     14  C   UNL     1       2.515   1.914  18.901  0.00  0.00    +0.000 C 
ATOM     15  O   UNL     1       1.307   1.755  19.021  0.00  0.00    +0.000 OA
BRANCH  14  16
ATOM     16  O   UNL     1       3.166   1.392  17.844  0.00  0.00    +0.000 OA
ATOM     17  H   UNL     1       3.704   2.016  17.336  0.00  0.00    +0.000 HD
ENDBRANCH  14  16
ENDBRANCH  11  14
BRANCH  13  18
ATOM     18  C   UNL     1       2.096   7.746  18.776  0.00  0.00    +0.000 C 
BRANCH  18  19
ATOM     19  C   UNL     1       1.483   8.455  19.990  0.00  0.00    +0.000 C 
BRANCH  19  20
ATOM     20  C   UNL     1       0.805   9.733  19.635  0.00  0.00    +0.000 A 
ATOM     21  C   UNL     1       0.066  10.005  18.444  0.00  0.00    +0.000 A 
ATOM     22  C   UNL     1      -0.421  11.286  18.575  0.00  0.00    +0.000 A 
ATOM     23  O   UNL     1      -0.036  11.819  19.762  0.00  0.00    +0.000 OA
ATOM     24  C   UNL     1       0.701  10.875  20.400  0.00  0.00    +0.000 A 
ENDBRANCH  19  20
ENDBRANCH  18  19
ENDBRANCH  13  18
TORSDOF 5
ENDMDL
MODEL 5
REMARK VINA RESULT:      -7.2      2.257      4.407
REMARK  Name = 
REMARK  7 active torsions:
REMARK  status: ('A' for Active; 'I' for Inactive)
REMARK    1  A    between atoms: C_6  and  C_7
REMARK    2  A    between atoms: C_11  and  C_12
REMARK    3  A    between atoms: C_11  and  C_13
REMARK    4  A    between atoms: C_13  and  O_15
REMARK    5  A    between atoms: C_16  and  C_17
REMARK    6  A    between atoms: C_17  and  C_18
REMARK    7  A    between atoms: C_18  and  C_19
REMARK                            x       y       z     vdW  Elec       q    Type
REMARK                         _______ _______ _______ _____ _____    ______ ____
ROOT
ATOM      1  C   UNL     1       3.378   2.699  20.435  0.00  0.00    +0.000 C 
ATOM      2  C   UNL     1       3.286   3.313  19.236  0.00  0.00    +0.000 C 
ATOM      3  C   UNL     1       3.408   2.505  17.969  0.00  0.00    +0.000 C 
ATOM      4  C   UNL     1       4.563   2.996  17.086  0.00  0.00    +0.000 C 
ATOM      5  C   UNL     1       4.513   4.517  16.837  0.00  0.00    +0.000 C 
ATOM      6  C   UNL     1       4.388   5.345  18.176  0.00  0.00    +0.000 C 
ATOM      7  C   UNL     1       5.631   5.182  19.091  0.00  0.00    +0.000 C 
ATOM      8  C   UNL     1       4.189   6.835  17.809  0.00  0.00    +0.000 C 
ATOM      9  C   UNL     1       4.837   7.433  16.569  0.00  0.00    +0.000 C 
ATOM     10  C   UNL     1       5.103   6.492  15.411  0.00  0.00    +0.000 C 
ATOM     11  C   UNL     1       5.584   5.079  15.823  0.00  0.00    +0.000 C 
ATOM     12  C   UNL     1       5.668   4.274  14.506  0.00  0.00    +0.000 C 
ATOM     13  C   UNL     1       3.121   4.831  19.016  0.00  0.00    +0.000 C 
ENDROOT
BRANCH  11  14
ATOM     14  C   UNL     1       7.033   5.184  16.337  0.00  0.00    +0.000 C 
ATOM     15  O   UNL     1       7.629   6.239  16.511  0.00  0.00    +0.000 OA
BRANCH  14  16
ATOM     16  O   UNL     1       7.642   4.010  16.590  0.00  0.00    +0.000 OA
ATOM     17  H   UNL     1       7.245   3.478  17.294  0.00  0.00    +0.000 HD
ENDBRANCH  14  16
ENDBRANCH  11  14
BRANCH  13  18
ATOM     18  C   UNL     1       2.806   5.586  20.358  0.00  0.00    +0.000 C 
BRANCH  18  19
ATOM     19  C   UNL     1       1.393   6.139  20.585  0.00  0.00    +0.000 C 
BRANCH  19  20
ATOM     20  C   UNL     1       1.344   7.629  20.576  0.00  0.00    +0.000 A 
ATOM     21  C   UNL     1       1.430   8.478  19.432  0.00  0.00    +0.000 A 
ATOM     22  C   UNL     1       1.284   9.766  19.895  0.00  0.00    +0.000 A 
ATOM     23  O   UNL     1       1.111   9.768  21.241  0.00  0.00    +0.000 OA
ATOM     24  C   UNL     1       1.145   8.473  21.647  0.00  0.00    +0.000 A 
ENDBRANCH  19  20
ENDBRANCH  18  19
ENDBRANCH  13  18
TORSDOF 5
ENDMDL
MODEL 6
REMARK VINA RESULT:      -7.1      2.064      3.951
REMARK  Name = 
REMARK  7 active torsions:
REMARK  status: ('A' for Active; 'I' for Inactive)
REMARK    1  A    between atoms: C_6  and  C_7
REMARK    2  A    between atoms: C_11  and  C_12
REMARK    3  A    between atoms: C_11  and  C_13
REMARK    4  A    between atoms: C_13  and  O_15
REMARK    5  A    between atoms: C_16  and  C_17
REMARK    6  A    between atoms: C_17  and  C_18
REMARK    7  A    between atoms: C_18  and  C_19
REMARK                            x       y       z     vdW  Elec       q    Type
REMARK                         _______ _______ _______ _____ _____    ______ ____
ROOT
ATOM      1  C   UNL     1       1.439   4.097  20.426  0.00  0.00    +0.000 C 
ATOM      2  C   UNL     1       1.826   4.479  19.189  0.00  0.00    +0.000 C 
ATOM      3  C   UNL     1       1.901   3.461  18.080  0.00  0.00    +0.000 C 
ATOM      4  C   UNL     1       3.310   3.372  17.479  0.00  0.00    +0.000 C 
ATOM      5  C   UNL     1       3.871   4.752  17.080  0.00  0.00    +0.000 C 
ATOM      6  C   UNL     1       3.787   5.803  18.257  0.00  0.00    +0.000 C 
ATOM      7  C   UNL     1       4.668   5.404  19.471  0.00  0.00    +0.000 C 
ATOM      8  C   UNL     1       4.226   7.181  17.710  0.00  0.00    +0.000 C 
ATOM      9  C   UNL     1       5.287   7.296  16.626  0.00  0.00    +0.000 C 
ATOM     10  C   UNL     1       5.422   6.127  15.670  0.00  0.00    +0.000 C 
ATOM     11  C   UNL     1       5.258   4.734  16.325  0.00  0.00    +0.000 C 
ATOM     12  C   UNL     1       5.309   3.722  15.157  0.00  0.00    +0.000 C 
ATOM     13  C   UNL     1       2.276   5.899  18.791  0.00  0.00    +0.000 C 
ENDROOT
BRANCH  11  14
ATOM     14  C   UNL     1       6.506   4.443  17.180  0.00  0.00    +0.000 C 
ATOM     15  O   UNL     1       6.476   3.971  18.309  0.00  0.00    +0.000 OA
BRANCH  14  16
ATOM     16  O   UNL     1       7.684   4.752  16.605  0.00  0.00    +0.000 OA
ATOM     17  H   UNL     1       7.629   5.321  15.823  0.00  0.00    +0.000 HD
ENDBRANCH  14  16
ENDBRANCH  11  14
BRANCH  13  18
ATOM     18  C   UNL     1       1.992   6.946  19.928  0.00  0.00    +0.000 C 
BRANCH  18  19
ATOM     19  C   UNL     1       1.572   8.369  19.540  0.00  0.00    +0.000 C 
BRANCH  19  20
ATOM     20  C   UNL     1       0.990   9.135  20.679  0.00  0.00    +0.000 A 
ATOM     21  C   UNL     1       0.468   8.593  21.892  0.00  0.00    +0.000 A 
ATOM     22  C   UNL     1       0.094   9.669  22.665  0.00  0.00    +0.000 A 
ATOM     23  O   UNL     1       0.352  10.832  22.014  0.00  0.00    +0.000 OA
ATOM     24  C   UNL     1       0.897  10.503  20.816  0.00  0.00    +0.000 A 
ENDBRANCH  19  20
ENDBRANCH  18  19
ENDBRANCH  13  18
TORSDOF 5
ENDMDL
MODEL 7
REMARK VINA RESULT:      -7.1      1.996      3.914
REMARK  Name = 
REMARK  7 active torsions:
REMARK  status: ('A' for Active; 'I' for Inactive)
REMARK    1  A    between atoms: C_6  and  C_7
REMARK    2  A    between atoms: C_11  and  C_12
REMARK    3  A    between atoms: C_11  and  C_13
REMARK    4  A    between atoms: C_13  and  O_15
REMARK    5  A    between atoms: C_16  and  C_17
REMARK    6  A    between atoms: C_17  and  C_18
REMARK    7  A    between atoms: C_18  and  C_19
REMARK                            x       y       z     vdW  Elec       q    Type
REMARK                         _______ _______ _______ _____ _____    ______ ____
ROOT
ATOM      1  C   UNL     1       1.515   4.795  20.439  0.00  0.00    +0.000 C 
ATOM      2  C   UNL     1       1.934   4.896  19.159  0.00  0.00    +0.000 C 
ATOM      3  C   UNL     1       2.013   3.662  18.298  0.00  0.00    +0.000 C 
ATOM      4  C   UNL     1       3.432   3.425  17.764  0.00  0.00    +0.000 C 
ATOM      5  C   UNL     1       4.027   4.679  17.091  0.00  0.00    +0.000 C 
ATOM      6  C   UNL     1       3.939   5.960  18.010  0.00  0.00    +0.000 C 
ATOM      7  C   UNL     1       4.787   5.821  19.302  0.00  0.00    +0.000 C 
ATOM      8  C   UNL     1       4.415   7.181  17.189  0.00  0.00    +0.000 C 
ATOM      9  C   UNL     1       5.500   7.044  16.132  0.00  0.00    +0.000 C 
ATOM     10  C   UNL     1       5.632   5.694  15.454  0.00  0.00    +0.000 C 
ATOM     11  C   UNL     1       5.429   4.478  16.391  0.00  0.00    +0.000 C 
ATOM     12  C   UNL     1       5.485   3.237  15.470  0.00  0.00    +0.000 C 
ATOM     13  C   UNL     1       2.419   6.190  18.474  0.00  0.00    +0.000 C 
ENDROOT
BRANCH  11  14
ATOM     14  C   UNL     1       6.654   4.361  17.318  0.00  0.00    +0.000 C 
ATOM     15  O   UNL     1       7.768   4.789  17.048  0.00  0.00    +0.000 OA
BRANCH  14  16
ATOM     16  O   UNL     1       6.433   3.733  18.488  0.00  0.00    +0.000 OA
ATOM     17  H   UNL     1       6.873   2.876  18.591  0.00  0.00    +0.000 HD
ENDBRANCH  14  16
ENDBRANCH  11  14
BRANCH  13  18
ATOM     18  C   UNL     1       2.132   7.462  19.352  0.00  0.00    +0.000 C 
BRANCH  18  19
ATOM     19  C   UNL     1       1.625   8.738  18.667  0.00  0.00    +0.000 C 
BRANCH  19  20
ATOM     20  C   UNL     1       0.786   9.584  19.562  0.00  0.00    +0.000 A 
ATOM     21  C   UNL     1       0.326   9.246  20.871  0.00  0.00    +0.000 A 
ATOM     22  C   UNL     1      -0.362  10.344  21.334  0.00  0.00    +0.000 A 
ATOM     23  O   UNL     1      -0.355  11.333  20.404  0.00  0.00    +0.000 OA
ATOM     24  C   UNL     1       0.343  10.869  19.337  0.00  0.00    +0.000 A 
ENDBRANCH  19  20
ENDBRANCH  18  19
ENDBRANCH  13  18
TORSDOF 5
ENDMDL
MODEL 8
REMARK VINA RESULT:      -7.0      0.936      1.517
REMARK  Name = 
REMARK  7 active torsions:
REMARK  status: ('A' for Active; 'I' for Inactive)
REMARK    1  A    between atoms: C_6  and  C_7
REMARK    2  A    between atoms: C_11  and  C_12
REMARK    3  A    between atoms: C_11  and  C_13
REMARK    4  A    between atoms: C_13  and  O_15
REMARK    5  A    between atoms: C_16  and  C_17
REMARK    6  A    between atoms: C_17  and  C_18
REMARK    7  A    between atoms: C_18  and  C_19
REMARK                            x       y       z     vdW  Elec       q    Type
REMARK                         _______ _______ _______ _____ _____    ______ ____
ROOT
ATOM      1  C   UNL     1       4.745   7.021  16.599  0.00  0.00    +0.000 C 
ATOM      2  C   UNL     1       4.636   6.417  17.803  0.00  0.00    +0.000 C 
ATOM      3  C   UNL     1       5.757   5.546  18.308  0.00  0.00    +0.000 C 
ATOM      4  C   UNL     1       5.287   4.112  18.588  0.00  0.00    +0.000 C 
ATOM      5  C   UNL     1       4.029   4.065  19.478  0.00  0.00    +0.000 C 
ATOM      6  C   UNL     1       2.865   4.981  18.930  0.00  0.00    +0.000 C 
ATOM      7  C   UNL     1       2.336   4.504  17.552  0.00  0.00    +0.000 C 
ATOM      8  C   UNL     1       1.719   4.984  19.969  0.00  0.00    +0.000 C 
ATOM      9  C   UNL     1       1.422   3.757  20.817  0.00  0.00    +0.000 C 
ATOM     10  C   UNL     1       2.584   2.828  21.111  0.00  0.00    +0.000 C 
ATOM     11  C   UNL     1       3.564   2.625  19.929  0.00  0.00    +0.000 C 
ATOM     12  C   UNL     1       4.712   1.756  20.493  0.00  0.00    +0.000 C 
ATOM     13  C   UNL     1       3.404   6.480  18.728  0.00  0.00    +0.000 C 
ENDROOT
BRANCH  11  14
ATOM     14  C   UNL     1       2.873   1.756  18.861  0.00  0.00    +0.000 C 
ATOM     15  O   UNL     1       3.406   1.381  17.825  0.00  0.00    +0.000 OA
BRANCH  14  16
ATOM     16  O   UNL     1       1.596   1.421  19.128  0.00  0.00    +0.000 OA
ATOM     17  H   UNL     1       0.996   1.431  18.368  0.00  0.00    +0.000 HD
ENDBRANCH  14  16
ENDBRANCH  11  14
BRANCH  13  18
ATOM     18  C   UNL     1       2.359   7.549  18.241  0.00  0.00    +0.000 C 
BRANCH  18  19
ATOM     19  C   UNL     1       1.489   8.264  19.283  0.00  0.00    +0.000 C 
BRANCH  19  20
ATOM     20  C   UNL     1       1.399   9.734  19.054  0.00  0.00    +0.000 A 
ATOM     21  C   UNL     1       2.210  10.511  18.174  0.00  0.00    +0.000 A 
ATOM     22  C   UNL     1       1.735  11.801  18.249  0.00  0.00    +0.000 A 
ATOM     23  O   UNL     1       0.689  11.870  19.111  0.00  0.00    +0.000 OA
ATOM     24  C   UNL     1       0.487  10.617  19.591  0.00  0.00    +0.000 A 
ENDBRANCH  19  20
ENDBRANCH  18  19
ENDBRANCH  13  18
TORSDOF 5
ENDMDL
MODEL 9
REMARK VINA RESULT:      -7.0      2.120      4.099
REMARK  Name = 
REMARK  7 active torsions:
REMARK  status: ('A' for Active; 'I' for Inactive)
REMARK    1  A    between atoms: C_6  and  C_7
REMARK    2  A    between atoms: C_11  and  C_12
REMARK    3  A    between atoms: C_11  and  C_13
REMARK    4  A    between atoms: C_13  and  O_15
REMARK    5  A    between atoms: C_16  and  C_17
REMARK    6  A    between atoms: C_17  and  C_18
REMARK    7  A    between atoms: C_18  and  C_19
REMARK                            x       y       z     vdW  Elec       q    Type
REMARK                         _______ _______ _______ _____ _____    ______ ____
ROOT
ATOM      1  C   UNL     1       1.837   3.316  20.327  0.00  0.00    +0.000 C 
ATOM      2  C   UNL     1       2.164   3.708  19.076  0.00  0.00    +0.000 C 
ATOM      3  C   UNL     1       2.566   2.678  18.051  0.00  0.00    +0.000 C 
ATOM      4  C   UNL     1       3.973   2.939  17.498  0.00  0.00    +0.000 C 
ATOM      5  C   UNL     1       4.158   4.391  17.011  0.00  0.00    +0.000 C 
ATOM      6  C   UNL     1       3.736   5.454  18.100  0.00  0.00    +0.000 C 
ATOM      7  C   UNL     1       4.632   5.393  19.365  0.00  0.00    +0.000 C 
ATOM      8  C   UNL     1       3.810   6.860  17.462  0.00  0.00    +0.000 C 
ATOM      9  C   UNL     1       4.851   7.190  16.402  0.00  0.00    +0.000 C 
ATOM     10  C   UNL     1       5.344   6.042  15.543  0.00  0.00    +0.000 C 
ATOM     11  C   UNL     1       5.532   4.703  16.298  0.00  0.00    +0.000 C 
ATOM     12  C   UNL     1       5.912   3.669  15.213  0.00  0.00    +0.000 C 
ATOM     13  C   UNL     1       2.232   5.167  18.582  0.00  0.00    +0.000 C 
ENDROOT
BRANCH  11  14
ATOM     14  C   UNL     1       6.770   4.822  17.208  0.00  0.00    +0.000 C 
ATOM     15  O   UNL     1       7.605   5.713  17.124  0.00  0.00    +0.000 OA
BRANCH  14  16
ATOM     16  O   UNL     1       6.901   3.854  18.134  0.00  0.00    +0.000 OA
ATOM     17  H   UNL     1       7.368   3.058  17.842  0.00  0.00    +0.000 HD
ENDBRANCH  14  16
ENDBRANCH  11  14
BRANCH  13  18
ATOM     18  C   UNL     1       1.620   6.169  19.628  0.00  0.00    +0.000 C 
BRANCH  18  19
ATOM     19  C   UNL     1       2.299   7.528  19.839  0.00  0.00    +0.000 C 
BRANCH  19  20
ATOM     20  C   UNL     1       1.382   8.679  19.601  0.00  0.00    +0.000 A 
ATOM     21  C   UNL     1       1.159   9.350  18.361  0.00  0.00    +0.000 A 
ATOM     22  C   UNL     1       0.198  10.305  18.605  0.00  0.00    +0.000 A 
ATOM     23  O   UNL     1      -0.186  10.266  19.906  0.00  0.00    +0.000 OA
ATOM     24  C   UNL     1       0.529   9.279  20.502  0.00  0.00    +0.000 A 
ENDBRANCH  19  20
ENDBRANCH  18  19
ENDBRANCH  13  18
TORSDOF 5
ENDMDL
