MODEL 1
REMARK VINA RESULT:      -7.7      0.000      0.000
REMARK  Name = 
REMARK  8 active torsions:
REMARK  status: ('A' for Active; 'I' for Inactive)
REMARK    1  A    between atoms: C_1  and  O_2
REMARK    2  A    between atoms: O_2  and  C_3
REMARK    3  A    between atoms: C_8  and  N_9
REMARK    4  A    between atoms: C_10  and  C_12
REMARK    5  A    between atoms: C_12  and  S_13
REMARK    6  A    between atoms: S_13  and  C_14
REMARK    7  A    between atoms: N_18  and  C_19
REMARK    8  A    between atoms: C_19  and  C_20
REMARK                            x       y       z     vdW  Elec       q    Type
REMARK                         _______ _______ _______ _____ _____    ______ ____
ROOT
ATOM      1  C   UNL     1       3.696   2.365  20.755  0.00  0.00    +0.000 C 
ENDROOT
BRANCH   1   3
ATOM      2  N   UNL     1       5.045   3.556  19.084  0.00  0.00    +0.000 N 
ATOM      3  C   UNL     1       4.194   2.480  19.319  0.00  0.00    +0.000 C 
ATOM      4  O   UNL     1       3.855   1.635  18.495  0.00  0.00    +0.000 OA
ATOM      5  H   UNL     1       5.403   4.078  19.876  0.00  0.00    +0.000 HD
BRANCH   2  11
ATOM      6  C   UNL     1       6.848   4.578  17.780  0.00  0.00    +0.000 A 
ATOM      7  C   UNL     1       7.380   4.978  16.544  0.00  0.00    +0.000 A 
ATOM      8  C   UNL     1       6.706   4.699  15.354  0.00  0.00    +0.000 A 
ATOM      9  C   UNL     1       5.483   4.049  15.397  0.00  0.00    +0.000 A 
ATOM     10  C   UNL     1       4.927   3.679  16.624  0.00  0.00    +0.000 A 
ATOM     11  C   UNL     1       5.594   3.929  17.828  0.00  0.00    +0.000 A 
BRANCH   6  13
ATOM     12  C   UNL     1       8.019   6.106  19.157  0.00  0.00    +0.000 C 
ATOM     13  O   UNL     1       7.501   4.784  18.977  0.00  0.00    +0.000 OA
ENDBRANCH   6  13
ENDBRANCH   2  11
ENDBRANCH   1   3
BRANCH   1  14
ATOM     14  S   UNL     1       2.518   3.710  21.078  0.00  0.00    +0.000 S 
BRANCH  14  15
ATOM     15  C   UNL     1       1.911   4.027  19.494  0.00  0.00    +0.000 A 
ATOM     16  N   UNL     1       1.070   3.296  18.800  0.00  0.00    +0.000 NA
ATOM     17  N   UNL     1       0.884   3.962  17.611  0.00  0.00    +0.000 NA
ATOM     18  N   UNL     1       1.589   5.084  17.576  0.00  0.00    +0.000 NA
ATOM     19  N   UNL     1       2.248   5.126  18.754  0.00  0.00    +0.000 N 
BRANCH  19  20
ATOM     20  C   UNL     1       3.030   6.292  19.111  0.00  0.00    +0.000 C 
BRANCH  20  21
ATOM     21  C   UNL     1       2.217   7.562  19.197  0.00  0.00    +0.000 A 
ATOM     22  C   UNL     1       1.543   7.920  20.377  0.00  0.00    +0.000 A 
ATOM     23  C   UNL     1       0.874   9.143  20.472  0.00  0.00    +0.000 A 
ATOM     24  C   UNL     1       0.876  10.027  19.395  0.00  0.00    +0.000 A 
ATOM     25  C   UNL     1       1.537   9.684  18.217  0.00  0.00    +0.000 A 
ATOM     26  C   UNL     1       2.201   8.460  18.118  0.00  0.00    +0.000 A 
ENDBRANCH  20  21
ENDBRANCH  19  20
ENDBRANCH  14  15
ENDBRANCH   1  14
TORSDOF 7
ENDMDL
MODEL 2
REMARK VINA RESULT:      -7.6      5.359      7.696
REMARK  Name = 
REMARK  8 active torsions:
REMARK  status: ('A' for Active; 'I' for Inactive)
REMARK    1  A    between atoms: C_1  and  O_2
REMARK    2  A    between atoms: O_2  and  C_3
REMARK    3  A    between atoms: C_8  and  N_9
REMARK    4  A    between atoms: C_10  and  C_12
REMARK    5  A    between atoms: C_12  and  S_13
REMARK    6  A    between atoms: S_13  and  C_14
REMARK    7  A    between atoms: N_18  and  C_19
REMARK    8  A    between atoms: C_19  and  C_20
REMARK                            x       y       z     vdW  Elec       q    Type
REMARK                         _______ _______ _______ _____ _____    ______ ____
ROOT
ATOM      1  C   UNL     1       7.750   8.716  17.616  0.00  0.00    +0.000 C 
ENDROOT
BRANCH   1   3
ATOM      2  N   UNL     1       8.998  10.826  17.757  0.00  0.00    +0.000 N 
ATOM      3  C   UNL     1       8.679   9.633  18.401  0.00  0.00    +0.000 C 
ATOM      4  O   UNL     1       9.052   9.297  19.522  0.00  0.00    +0.000 OA
ATOM      5  H   UNL     1       8.486  11.081  16.919  0.00  0.00    +0.000 HD
BRANCH   2  11
ATOM      6  C   UNL     1       9.437  13.151  18.388  0.00  0.00    +0.000 A 
ATOM      7  C   UNL     1      10.325  14.145  18.829  0.00  0.00    +0.000 A 
ATOM      8  C   UNL     1      11.641  13.827  19.165  0.00  0.00    +0.000 A 
ATOM      9  C   UNL     1      12.084  12.521  19.031  0.00  0.00    +0.000 A 
ATOM     10  C   UNL     1      11.220  11.531  18.559  0.00  0.00    +0.000 A 
ATOM     11  C   UNL     1       9.891  11.821  18.235  0.00  0.00    +0.000 A 
BRANCH   6  13
ATOM     12  C   UNL     1       7.776  14.795  18.010  0.00  0.00    +0.000 C 
ATOM     13  O   UNL     1       8.114  13.406  18.095  0.00  0.00    +0.000 OA
ENDBRANCH   6  13
ENDBRANCH   2  11
ENDBRANCH   1   3
BRANCH   1  14
ATOM     14  S   UNL     1       7.792   7.059  18.360  0.00  0.00    +0.000 S 
BRANCH  14  15
ATOM     15  C   UNL     1       7.291   6.072  17.035  0.00  0.00    +0.000 A 
ATOM     16  N   UNL     1       7.678   6.160  15.784  0.00  0.00    +0.000 NA
ATOM     17  N   UNL     1       7.015   5.157  15.114  0.00  0.00    +0.000 NA
ATOM     18  N   UNL     1       6.241   4.463  15.936  0.00  0.00    +0.000 NA
ATOM     19  N   UNL     1       6.401   5.040  17.146  0.00  0.00    +0.000 N 
BRANCH  19  20
ATOM     20  C   UNL     1       5.788   4.454  18.321  0.00  0.00    +0.000 C 
BRANCH  20  21
ATOM     21  C   UNL     1       4.289   4.310  18.211  0.00  0.00    +0.000 A 
ATOM     22  C   UNL     1       3.442   5.430  18.249  0.00  0.00    +0.000 A 
ATOM     23  C   UNL     1       2.066   5.289  18.051  0.00  0.00    +0.000 A 
ATOM     24  C   UNL     1       1.519   4.031  17.804  0.00  0.00    +0.000 A 
ATOM     25  C   UNL     1       2.347   2.911  17.766  0.00  0.00    +0.000 A 
ATOM     26  C   UNL     1       3.721   3.048  17.970  0.00  0.00    +0.000 A 
ENDBRANCH  20  21
ENDBRANCH  19  20
ENDBRANCH  14  15
ENDBRANCH   1  14
TORSDOF 7
ENDMDL
MODEL 3
REMARK VINA RESULT:      -7.5      2.432      5.567
REMARK  Name = 
REMARK  8 active torsions:
REMARK  status: ('A' for Active; 'I' for Inactive)
REMARK    1  A    between atoms: C_1  and  O_2
REMARK    2  A    between atoms: O_2  and  C_3
REMARK    3  A    between atoms: C_8  and  N_9
REMARK    4  A    between atoms: C_10  and  C_12
REMARK    5  A    between atoms: C_12  and  S_13
REMARK    6  A    between atoms: S_13  and  C_14
REMARK    7  A    between atoms: N_18  and  C_19
REMARK    8  A    between atoms: C_19  and  C_20
REMARK                            x       y       z     vdW  Elec       q    Type
REMARK                         _______ _______ _______ _____ _____    ______ ____
ROOT
ATOM      1  C   UNL     1       2.587   4.340  21.384  0.00  0.00    +0.000 C 
ENDROOT
BRANCH   1   3
ATOM      2  N   UNL     1       2.454   6.611  20.460  0.00  0.00    +0.000 N 
ATOM      3  C   UNL     1       1.787   5.402  20.640  0.00  0.00    +0.000 C 
ATOM      4  O   UNL     1       0.661   5.133  20.231  0.00  0.00    +0.000 OA
ATOM      5  H   UNL     1       3.444   6.659  20.673  0.00  0.00    +0.000 HD
BRANCH   2  11
ATOM      6  C   UNL     1       1.226   8.720  20.662  0.00  0.00    +0.000 A 
ATOM      7  C   UNL     1       0.665   9.863  20.070  0.00  0.00    +0.000 A 
ATOM      8  C   UNL     1       0.822  10.109  18.706  0.00  0.00    +0.000 A 
ATOM      9  C   UNL     1       1.512   9.198  17.921  0.00  0.00    +0.000 A 
ATOM     10  C   UNL     1       2.043   8.039  18.493  0.00  0.00    +0.000 A 
ATOM     11  C   UNL     1       1.917   7.782  19.862  0.00  0.00    +0.000 A 
BRANCH   6  13
ATOM     12  C   UNL     1       0.418   9.438  22.768  0.00  0.00    +0.000 C 
ATOM     13  O   UNL     1       1.144   8.461  22.014  0.00  0.00    +0.000 OA
ENDBRANCH   6  13
ENDBRANCH   2  11
ENDBRANCH   1   3
BRANCH   1  14
ATOM     14  S   UNL     1       2.050   2.698  20.822  0.00  0.00    +0.000 S 
BRANCH  14  15
ATOM     15  C   UNL     1       2.381   2.785  19.131  0.00  0.00    +0.000 A 
ATOM     16  N   UNL     1       1.555   2.533  18.142  0.00  0.00    +0.000 NA
ATOM     17  N   UNL     1       2.273   2.750  16.987  0.00  0.00    +0.000 NA
ATOM     18  N   UNL     1       3.511   3.135  17.260  0.00  0.00    +0.000 NA
ATOM     19  N   UNL     1       3.591   3.149  18.608  0.00  0.00    +0.000 N 
BRANCH  19  20
ATOM     20  C   UNL     1       4.783   3.646  19.263  0.00  0.00    +0.000 C 
BRANCH  20  21
ATOM     21  C   UNL     1       5.460   4.770  18.515  0.00  0.00    +0.000 A 
ATOM     22  C   UNL     1       4.715   5.770  17.867  0.00  0.00    +0.000 A 
ATOM     23  C   UNL     1       5.354   6.854  17.261  0.00  0.00    +0.000 A 
ATOM     24  C   UNL     1       6.743   6.959  17.300  0.00  0.00    +0.000 A 
ATOM     25  C   UNL     1       7.495   5.974  17.936  0.00  0.00    +0.000 A 
ATOM     26  C   UNL     1       6.859   4.887  18.538  0.00  0.00    +0.000 A 
ENDBRANCH  20  21
ENDBRANCH  19  20
ENDBRANCH  14  15
ENDBRANCH   1  14
TORSDOF 7
ENDMDL
MODEL 4
REMARK VINA RESULT:      -7.5      2.013      2.579
REMARK  Name = 
REMARK  8 active torsions:
REMARK  status: ('A' for Active; 'I' for Inactive)
REMARK    1  A    between atoms: C_1  and  O_2
REMARK    2  A    between atoms: O_2  and  C_3
REMARK    3  A    between atoms: C_8  and  N_9
REMARK    4  A    between atoms: C_10  and  C_12
REMARK    5  A    between atoms: C_12  and  S_13
REMARK    6  A    between atoms: S_13  and  C_14
REMARK    7  A    between atoms: N_18  and  C_19
REMARK    8  A    between atoms: C_19  and  C_20
REMARK                            x       y       z     vdW  Elec       q    Type
REMARK                         _______ _______ _______ _____ _____    ______ ____
ROOT
ATOM      1  C   UNL     1       3.965   2.760  17.760  0.00  0.00    +0.000 C 
ENDROOT
BRANCH   1   3
ATOM      2  N   UNL     1       5.519   3.122  15.893  0.00  0.00    +0.000 N 
ATOM      3  C   UNL     1       4.505   3.677  16.669  0.00  0.00    +0.000 C 
ATOM      4  O   UNL     1       4.015   4.793  16.522  0.00  0.00    +0.000 OA
ATOM      5  H   UNL     1       5.715   2.131  15.982  0.00  0.00    +0.000 HD
BRANCH   2  11
ATOM      6  C   UNL     1       7.211   4.749  15.196  0.00  0.00    +0.000 A 
ATOM      7  C   UNL     1       7.902   5.426  14.178  0.00  0.00    +0.000 A 
ATOM      8  C   UNL     1       7.672   5.119  12.836  0.00  0.00    +0.000 A 
ATOM      9  C   UNL     1       6.730   4.159  12.505  0.00  0.00    +0.000 A 
ATOM     10  C   UNL     1       6.011   3.505  13.508  0.00  0.00    +0.000 A 
ATOM     11  C   UNL     1       6.238   3.780  14.861  0.00  0.00    +0.000 A 
BRANCH   6  13
ATOM     12  C   UNL     1       7.192   6.321  16.965  0.00  0.00    +0.000 C 
ATOM     13  O   UNL     1       7.441   4.978  16.536  0.00  0.00    +0.000 OA
ENDBRANCH   6  13
ENDBRANCH   2  11
ENDBRANCH   1   3
BRANCH   1  14
ATOM     14  S   UNL     1       2.194   3.098  17.989  0.00  0.00    +0.000 S 
BRANCH  14  15
ATOM     15  C   UNL     1       2.102   3.315  19.698  0.00  0.00    +0.000 A 
ATOM     16  N   UNL     1       1.570   2.500  20.579  0.00  0.00    +0.000 NA
ATOM     17  N   UNL     1       1.748   3.101  21.804  0.00  0.00    +0.000 NA
ATOM     18  N   UNL     1       2.382   4.258  21.682  0.00  0.00    +0.000 NA
ATOM     19  N   UNL     1       2.599   4.406  20.357  0.00  0.00    +0.000 N 
BRANCH  19  20
ATOM     20  C   UNL     1       3.387   5.517  19.865  0.00  0.00    +0.000 C 
BRANCH  20  21
ATOM     21  C   UNL     1       2.572   6.757  19.582  0.00  0.00    +0.000 A 
ATOM     22  C   UNL     1       1.814   7.380  20.587  0.00  0.00    +0.000 A 
ATOM     23  C   UNL     1       1.142   8.578  20.333  0.00  0.00    +0.000 A 
ATOM     24  C   UNL     1       1.225   9.175  19.077  0.00  0.00    +0.000 A 
ATOM     25  C   UNL     1       1.971   8.567  18.069  0.00  0.00    +0.000 A 
ATOM     26  C   UNL     1       2.638   7.366  18.318  0.00  0.00    +0.000 A 
ENDBRANCH  20  21
ENDBRANCH  19  20
ENDBRANCH  14  15
ENDBRANCH   1  14
TORSDOF 7
ENDMDL
MODEL 5
REMARK VINA RESULT:      -7.5      2.925      7.145
REMARK  Name = 
REMARK  8 active torsions:
REMARK  status: ('A' for Active; 'I' for Inactive)
REMARK    1  A    between atoms: C_1  and  O_2
REMARK    2  A    between atoms: O_2  and  C_3
REMARK    3  A    between atoms: C_8  and  N_9
REMARK    4  A    between atoms: C_10  and  C_12
REMARK    5  A    between atoms: C_12  and  S_13
REMARK    6  A    between atoms: S_13  and  C_14
REMARK    7  A    between atoms: N_18  and  C_19
REMARK    8  A    between atoms: C_19  and  C_20
REMARK                            x       y       z     vdW  Elec       q    Type
REMARK                         _______ _______ _______ _____ _____    ______ ____
ROOT
ATOM      1  C   UNL     1       2.896   6.725  18.964  0.00  0.00    +0.000 C 
ENDROOT
BRANCH   1   3
ATOM      2  N   UNL     1       1.616   8.543  20.007  0.00  0.00    +0.000 N 
ATOM      3  C   UNL     1       1.926   7.186  20.045  0.00  0.00    +0.000 C 
ATOM      4  O   UNL     1       1.469   6.364  20.834  0.00  0.00    +0.000 OA
ATOM      5  H   UNL     1       1.905   9.088  19.202  0.00  0.00    +0.000 HD
BRANCH   2  11
ATOM      6  C   UNL     1      -0.066  10.259  20.474  0.00  0.00    +0.000 A 
ATOM      7  C   UNL     1      -0.855  10.973  21.390  0.00  0.00    +0.000 A 
ATOM      8  C   UNL     1      -0.833  10.654  22.749  0.00  0.00    +0.000 A 
ATOM      9  C   UNL     1       0.001   9.644  23.201  0.00  0.00    +0.000 A 
ATOM     10  C   UNL     1       0.817   8.952  22.303  0.00  0.00    +0.000 A 
ATOM     11  C   UNL     1       0.797   9.239  20.934  0.00  0.00    +0.000 A 
BRANCH   6  13
ATOM     12  C   UNL     1      -0.713  11.735  18.740  0.00  0.00    +0.000 C 
ATOM     13  O   UNL     1      -0.093  10.501  19.116  0.00  0.00    +0.000 OA
ENDBRANCH   6  13
ENDBRANCH   2  11
ENDBRANCH   1   3
BRANCH   1  14
ATOM     14  S   UNL     1       2.269   5.188  18.226  0.00  0.00    +0.000 S 
BRANCH  14  15
ATOM     15  C   UNL     1       3.201   3.999  19.060  0.00  0.00    +0.000 A 
ATOM     16  N   UNL     1       2.864   3.335  20.141  0.00  0.00    +0.000 NA
ATOM     17  N   UNL     1       3.923   2.500  20.416  0.00  0.00    +0.000 NA
ATOM     18  N   UNL     1       4.889   2.642  19.519  0.00  0.00    +0.000 NA
ATOM     19  N   UNL     1       4.446   3.592  18.668  0.00  0.00    +0.000 N 
BRANCH  19  20
ATOM     20  C   UNL     1       5.206   3.918  17.479  0.00  0.00    +0.000 C 
BRANCH  20  21
ATOM     21  C   UNL     1       6.160   5.074  17.669  0.00  0.00    +0.000 A 
ATOM     22  C   UNL     1       6.004   6.275  16.957  0.00  0.00    +0.000 A 
ATOM     23  C   UNL     1       6.836   7.368  17.213  0.00  0.00    +0.000 A 
ATOM     24  C   UNL     1       7.827   7.279  18.189  0.00  0.00    +0.000 A 
ATOM     25  C   UNL     1       7.995   6.094  18.901  0.00  0.00    +0.000 A 
ATOM     26  C   UNL     1       7.169   4.998  18.643  0.00  0.00    +0.000 A 
ENDBRANCH  20  21
ENDBRANCH  19  20
ENDBRANCH  14  15
ENDBRANCH   1  14
TORSDOF 7
ENDMDL
MODEL 6
REMARK VINA RESULT:      -7.4      4.414      5.911
REMARK  Name = 
REMARK  8 active torsions:
REMARK  status: ('A' for Active; 'I' for Inactive)
REMARK    1  A    between atoms: C_1  and  O_2
REMARK    2  A    between atoms: O_2  and  C_3
REMARK    3  A    between atoms: C_8  and  N_9
REMARK    4  A    between atoms: C_10  and  C_12
REMARK    5  A    between atoms: C_12  and  S_13
REMARK    6  A    between atoms: S_13  and  C_14
REMARK    7  A    between atoms: N_18  and  C_19
REMARK    8  A    between atoms: C_19  and  C_20
REMARK                            x       y       z     vdW  Elec       q    Type
REMARK                         _______ _______ _______ _____ _____    ______ ____
ROOT
ATOM      1  C   UNL     1       2.064   8.755  18.474  0.00  0.00    +0.000 C 
ENDROOT
BRANCH   1   3
ATOM      2  N   UNL     1       2.439   6.436  17.759  0.00  0.00    +0.000 N 
ATOM      3  C   UNL     1       2.309   7.298  18.845  0.00  0.00    +0.000 C 
ATOM      4  O   UNL     1       2.406   6.986  20.029  0.00  0.00    +0.000 OA
ATOM      5  H   UNL     1       2.529   6.831  16.830  0.00  0.00    +0.000 HD
BRANCH   2  11
ATOM      6  C   UNL     1       3.879   4.463  17.587  0.00  0.00    +0.000 A 
ATOM      7  C   UNL     1       4.041   3.068  17.619  0.00  0.00    +0.000 A 
ATOM      8  C   UNL     1       2.968   2.233  17.931  0.00  0.00    +0.000 A 
ATOM      9  C   UNL     1       1.722   2.785  18.180  0.00  0.00    +0.000 A 
ATOM     10  C   UNL     1       1.540   4.168  18.116  0.00  0.00    +0.000 A 
ATOM     11  C   UNL     1       2.605   5.027  17.825  0.00  0.00    +0.000 A 
BRANCH   6  13
ATOM     12  C   UNL     1       5.397   5.320  15.986  0.00  0.00    +0.000 C 
ATOM     13  O   UNL     1       4.920   5.331  17.336  0.00  0.00    +0.000 OA
ENDBRANCH   6  13
ENDBRANCH   2  11
ENDBRANCH   1   3
BRANCH   1  14
ATOM     14  S   UNL     1       1.045   9.528  19.764  0.00  0.00    +0.000 S 
BRANCH  14  15
ATOM     15  C   UNL     1       0.854  11.126  19.143  0.00  0.00    +0.000 A 
ATOM     16  N   UNL     1       1.792  11.923  18.687  0.00  0.00    +0.000 NA
ATOM     17  N   UNL     1       1.150  13.077  18.298  0.00  0.00    +0.000 NA
ATOM     18  N   UNL     1      -0.156  12.990  18.505  0.00  0.00    +0.000 NA
ATOM     19  N   UNL     1      -0.350  11.769  19.047  0.00  0.00    +0.000 N 
BRANCH  19  20
ATOM     20  C   UNL     1      -1.692  11.284  19.292  0.00  0.00    +0.000 C 
BRANCH  20  21
ATOM     21  C   UNL     1      -2.458  10.963  18.030  0.00  0.00    +0.000 A 
ATOM     22  C   UNL     1      -3.700  11.560  17.757  0.00  0.00    +0.000 A 
ATOM     23  C   UNL     1      -4.351  11.327  16.543  0.00  0.00    +0.000 A 
ATOM     24  C   UNL     1      -3.767  10.503  15.583  0.00  0.00    +0.000 A 
ATOM     25  C   UNL     1      -2.537   9.902  15.841  0.00  0.00    +0.000 A 
ATOM     26  C   UNL     1      -1.888  10.129  17.056  0.00  0.00    +0.000 A 
ENDBRANCH  20  21
ENDBRANCH  19  20
ENDBRANCH  14  15
ENDBRANCH   1  14
TORSDOF 7
ENDMDL
MODEL 7
REMARK VINA RESULT:      -7.4      3.163      7.114
REMARK  Name = 
REMARK  8 active torsions:
REMARK  status: ('A' for Active; 'I' for Inactive)
REMARK    1  A    between atoms: C_1  and  O_2
REMARK    2  A    between atoms: O_2  and  C_3
REMARK    3  A    between atoms: C_8  and  N_9
REMARK    4  A    between atoms: C_10  and  C_12
REMARK    5  A    between atoms: C_12  and  S_13
REMARK    6  A    between atoms: S_13  and  C_14
REMARK    7  A    between atoms: N_18  and  C_19
REMARK    8  A    between atoms: C_19  and  C_20
REMARK                            x       y       z     vdW  Elec       q    Type
REMARK                         _______ _______ _______ _____ _____    ______ ____
ROOT
ATOM      1  C   UNL     1       2.474   7.502  18.645  0.00  0.00    +0.000 C 
ENDROOT
BRANCH   1   3
ATOM      2  N   UNL     1       1.050   9.479  18.341  0.00  0.00    +0.000 N 
ATOM      3  C   UNL     1       1.600   8.588  19.259  0.00  0.00    +0.000 C 
ATOM      4  O   UNL     1       1.413   8.597  20.473  0.00  0.00    +0.000 OA
ATOM      5  H   UNL     1       1.120   9.266  17.352  0.00  0.00    +0.000 HD
BRANCH   2  11
ATOM      6  C   UNL     1       0.864  11.891  18.720  0.00  0.00    +0.000 A 
ATOM      7  C   UNL     1       0.091  13.014  19.057  0.00  0.00    +0.000 A 
ATOM      8  C   UNL     1      -1.281  12.894  19.279  0.00  0.00    +0.000 A 
ATOM      9  C   UNL     1      -1.881  11.647  19.196  0.00  0.00    +0.000 A 
ATOM     10  C   UNL     1      -1.115  10.518  18.897  0.00  0.00    +0.000 A 
ATOM     11  C   UNL     1       0.258  10.616  18.651  0.00  0.00    +0.000 A 
BRANCH   6  13
ATOM     12  C   UNL     1       2.723  13.299  18.317  0.00  0.00    +0.000 C 
ATOM     13  O   UNL     1       2.212  11.968  18.439  0.00  0.00    +0.000 OA
ENDBRANCH   6  13
ENDBRANCH   2  11
ENDBRANCH   1   3
BRANCH   1  14
ATOM     14  S   UNL     1       2.500   6.067  19.759  0.00  0.00    +0.000 S 
BRANCH  14  15
ATOM     15  C   UNL     1       2.568   4.758  18.637  0.00  0.00    +0.000 A 
ATOM     16  N   UNL     1       1.639   4.387  17.787  0.00  0.00    +0.000 NA
ATOM     17  N   UNL     1       2.160   3.309  17.107  0.00  0.00    +0.000 NA
ATOM     18  N   UNL     1       3.386   3.028  17.524  0.00  0.00    +0.000 NA
ATOM     19  N   UNL     1       3.646   3.929  18.496  0.00  0.00    +0.000 N 
BRANCH  19  20
ATOM     20  C   UNL     1       4.962   3.993  19.099  0.00  0.00    +0.000 C 
BRANCH  20  21
ATOM     21  C   UNL     1       5.851   5.054  18.495  0.00  0.00    +0.000 A 
ATOM     22  C   UNL     1       5.488   5.730  17.318  0.00  0.00    +0.000 A 
ATOM     23  C   UNL     1       6.274   6.774  16.825  0.00  0.00    +0.000 A 
ATOM     24  C   UNL     1       7.427   7.164  17.504  0.00  0.00    +0.000 A 
ATOM     25  C   UNL     1       7.802   6.501  18.670  0.00  0.00    +0.000 A 
ATOM     26  C   UNL     1       7.021   5.453  19.162  0.00  0.00    +0.000 A 
ENDBRANCH  20  21
ENDBRANCH  19  20
ENDBRANCH  14  15
ENDBRANCH   1  14
TORSDOF 7
ENDMDL
MODEL 8
REMARK VINA RESULT:      -7.3      4.885      8.960
REMARK  Name = 
REMARK  8 active torsions:
REMARK  status: ('A' for Active; 'I' for Inactive)
REMARK    1  A    between atoms: C_1  and  O_2
REMARK    2  A    between atoms: O_2  and  C_3
REMARK    3  A    between atoms: C_8  and  N_9
REMARK    4  A    between atoms: C_10  and  C_12
REMARK    5  A    between atoms: C_12  and  S_13
REMARK    6  A    between atoms: S_13  and  C_14
REMARK    7  A    between atoms: N_18  and  C_19
REMARK    8  A    between atoms: C_19  and  C_20
REMARK                            x       y       z     vdW  Elec       q    Type
REMARK                         _______ _______ _______ _____ _____    ______ ____
ROOT
ATOM      1  C   UNL     1      -0.364   8.860  21.527  0.00  0.00    +0.000 C 
ENDROOT
BRANCH   1   3
ATOM      2  N   UNL     1      -0.946  11.228  21.810  0.00  0.00    +0.000 N 
ATOM      3  C   UNL     1      -0.388  10.102  22.409  0.00  0.00    +0.000 C 
ATOM      4  O   UNL     1       0.039  10.033  23.558  0.00  0.00    +0.000 OA
ATOM      5  H   UNL     1      -1.434  11.122  20.928  0.00  0.00    +0.000 HD
BRANCH   2  11
ATOM      6  C   UNL     1      -0.091  13.514  22.013  0.00  0.00    +0.000 A 
ATOM      7  C   UNL     1      -0.150  14.788  22.600  0.00  0.00    +0.000 A 
ATOM      8  C   UNL     1      -1.156  15.105  23.514  0.00  0.00    +0.000 A 
ATOM      9  C   UNL     1      -2.087  14.142  23.868  0.00  0.00    +0.000 A 
ATOM     10  C   UNL     1      -2.016  12.860  23.316  0.00  0.00    +0.000 A 
ATOM     11  C   UNL     1      -1.029  12.525  22.383  0.00  0.00    +0.000 A 
BRANCH   6  13
ATOM     12  C   UNL     1       1.989  14.038  21.010  0.00  0.00    +0.000 C 
ATOM     13  O   UNL     1       0.852  13.170  21.066  0.00  0.00    +0.000 OA
ENDBRANCH   6  13
ENDBRANCH   2  11
ENDBRANCH   1   3
BRANCH   1  14
ATOM     14  S   UNL     1       1.355   8.303  21.341  0.00  0.00    +0.000 S 
BRANCH  14  15
ATOM     15  C   UNL     1       1.626   8.572  19.658  0.00  0.00    +0.000 A 
ATOM     16  N   UNL     1       1.220   9.591  18.938  0.00  0.00    +0.000 NA
ATOM     17  N   UNL     1       1.689   9.362  17.663  0.00  0.00    +0.000 NA
ATOM     18  N   UNL     1       2.374   8.229  17.603  0.00  0.00    +0.000 NA
ATOM     19  N   UNL     1       2.330   7.719  18.853  0.00  0.00    +0.000 N 
BRANCH  19  20
ATOM     20  C   UNL     1       3.088   6.530  19.183  0.00  0.00    +0.000 C 
BRANCH  20  21
ATOM     21  C   UNL     1       2.250   5.274  19.234  0.00  0.00    +0.000 A 
ATOM     22  C   UNL     1       2.039   4.490  18.088  0.00  0.00    +0.000 A 
ATOM     23  C   UNL     1       1.342   3.282  18.170  0.00  0.00    +0.000 A 
ATOM     24  C   UNL     1       0.855   2.837  19.397  0.00  0.00    +0.000 A 
ATOM     25  C   UNL     1       1.053   3.606  20.542  0.00  0.00    +0.000 A 
ATOM     26  C   UNL     1       1.745   4.817  20.461  0.00  0.00    +0.000 A 
ENDBRANCH  20  21
ENDBRANCH  19  20
ENDBRANCH  14  15
ENDBRANCH   1  14
TORSDOF 7
ENDMDL
MODEL 9
REMARK VINA RESULT:      -7.3      3.603      7.556
REMARK  Name = 
REMARK  8 active torsions:
REMARK  status: ('A' for Active; 'I' for Inactive)
REMARK    1  A    between atoms: C_1  and  O_2
REMARK    2  A    between atoms: O_2  and  C_3
REMARK    3  A    between atoms: C_8  and  N_9
REMARK    4  A    between atoms: C_10  and  C_12
REMARK    5  A    between atoms: C_12  and  S_13
REMARK    6  A    between atoms: S_13  and  C_14
REMARK    7  A    between atoms: N_18  and  C_19
REMARK    8  A    between atoms: C_19  and  C_20
REMARK                            x       y       z     vdW  Elec       q    Type
REMARK                         _______ _______ _______ _____ _____    ______ ____
ROOT
ATOM      1  C   UNL     1       1.416   7.802  21.047  0.00  0.00    +0.000 C 
ENDROOT
BRANCH   1   3
ATOM      2  N   UNL     1       0.759   9.684  19.613  0.00  0.00    +0.000 N 
ATOM      3  C   UNL     1       1.052   9.275  20.911  0.00  0.00    +0.000 C 
ATOM      4  O   UNL     1       1.008   9.980  21.916  0.00  0.00    +0.000 OA
ATOM      5  H   UNL     1       0.645   8.979  18.893  0.00  0.00    +0.000 HD
BRANCH   2  11
ATOM      6  C   UNL     1      -0.819  11.302  18.671  0.00  0.00    +0.000 A 
ATOM      7  C   UNL     1      -1.111  12.604  18.233  0.00  0.00    +0.000 A 
ATOM      8  C   UNL     1      -0.170  13.626  18.359  0.00  0.00    +0.000 A 
ATOM      9  C   UNL     1       1.077  13.345  18.893  0.00  0.00    +0.000 A 
ATOM     10  C   UNL     1       1.392  12.046  19.299  0.00  0.00    +0.000 A 
ATOM     11  C   UNL     1       0.458  11.009  19.202  0.00  0.00    +0.000 A 
BRANCH   6  13
ATOM     12  C   UNL     1      -2.185   9.941  17.299  0.00  0.00    +0.000 C 
ATOM     13  O   UNL     1      -1.734  10.271  18.617  0.00  0.00    +0.000 OA
ENDBRANCH   6  13
ENDBRANCH   2  11
ENDBRANCH   1   3
BRANCH   1  14
ATOM     14  S   UNL     1       2.307   7.276  19.553  0.00  0.00    +0.000 S 
BRANCH  14  15
ATOM     15  C   UNL     1       2.590   5.607  19.889  0.00  0.00    +0.000 A 
ATOM     16  N   UNL     1       2.116   4.903  20.890  0.00  0.00    +0.000 NA
ATOM     17  N   UNL     1       2.612   3.629  20.723  0.00  0.00    +0.000 NA
ATOM     18  N   UNL     1       3.370   3.550  19.639  0.00  0.00    +0.000 NA
ATOM     19  N   UNL     1       3.371   4.795  19.114  0.00  0.00    +0.000 N 
BRANCH  19  20
ATOM     20  C   UNL     1       4.010   5.049  17.840  0.00  0.00    +0.000 C 
BRANCH  20  21
ATOM     21  C   UNL     1       5.392   5.645  17.965  0.00  0.00    +0.000 A 
ATOM     22  C   UNL     1       5.797   6.728  17.166  0.00  0.00    +0.000 A 
ATOM     23  C   UNL     1       7.043   7.330  17.360  0.00  0.00    +0.000 A 
ATOM     24  C   UNL     1       7.897   6.865  18.358  0.00  0.00    +0.000 A 
ATOM     25  C   UNL     1       7.510   5.791  19.156  0.00  0.00    +0.000 A 
ATOM     26  C   UNL     1       6.268   5.184  18.961  0.00  0.00    +0.000 A 
ENDBRANCH  20  21
ENDBRANCH  19  20
ENDBRANCH  14  15
ENDBRANCH   1  14
TORSDOF 7
ENDMDL
