MODEL 1
REMARK VINA RESULT:      -6.1      0.000      0.000
REMARK  Name = 
REMARK  7 active torsions:
REMARK  status: ('A' for Active; 'I' for Inactive)
REMARK    1  A    between atoms: C_1  and  C_2
REMARK    2  A    between atoms: C_2  and  C_3
REMARK    3  A    between atoms: C_2  and  C_4
REMARK    4  A    between atoms: C_2  and  O_5
REMARK    5  A    between atoms: O_5  and  C_6
REMARK    6  A    between atoms: C_10  and  O_11
REMARK    7  A    between atoms: C_12  and  C_13
REMARK                            x       y       z     vdW  Elec       q    Type
REMARK                         _______ _______ _______ _____ _____    ______ ____
ROOT
ATOM      1  C   UNL     1       4.765   5.260  17.752  0.00  0.00    +0.000 C 
ATOM      2  O   UNL     1       4.398   5.778  16.705  0.00  0.00    +0.000 OA
ATOM      3  N   UNL     1       4.227   4.083  18.200  0.00  0.00    +0.000 N 
ATOM      4  C   UNL     1       3.229   3.366  17.429  0.00  0.00    +0.000 C 
ATOM      5  C   UNL     1       2.260   2.877  18.500  0.00  0.00    +0.000 C 
ATOM      6  C   UNL     1       3.181   2.560  19.693  0.00  0.00    +0.000 C 
ATOM      7  C   UNL     1       4.397   3.485  19.515  0.00  0.00    +0.000 C 
ENDROOT
BRANCH   5   8
ATOM      8  O   UNL     1       1.312   3.910  18.782  0.00  0.00    +0.000 OA
ATOM      9  H   UNL     1       0.422   3.594  18.540  0.00  0.00    +0.000 HD
ENDBRANCH   5   8
BRANCH   6  10
ATOM     10  C   UNL     1       2.540   2.759  20.998  0.00  0.00    +0.000 C 
ATOM     11  N   UNL     1       2.015   2.880  22.022  0.00  0.00    +0.000 NA
ENDBRANCH   6  10
BRANCH   1  12
ATOM     12  O   UNL     1       5.702   5.789  18.593  0.00  0.00    +0.000 OA
BRANCH  12  14
ATOM     13  C   UNL     1       7.419   7.140  17.473  0.00  0.00    +0.000 C 
ATOM     14  C   UNL     1       7.094   5.807  18.162  0.00  0.00    +0.000 C 
ATOM     15  C   UNL     1       7.447   4.595  17.285  0.00  0.00    +0.000 C 
ATOM     16  C   UNL     1       7.955   5.714  19.436  0.00  0.00    +0.000 C 
ENDBRANCH  12  14
ENDBRANCH   1  12
TORSDOF 4
ENDMDL
MODEL 2
REMARK VINA RESULT:      -6.0      2.293      5.372
REMARK  Name = 
REMARK  7 active torsions:
REMARK  status: ('A' for Active; 'I' for Inactive)
REMARK    1  A    between atoms: C_1  and  C_2
REMARK    2  A    between atoms: C_2  and  C_3
REMARK    3  A    between atoms: C_2  and  C_4
REMARK    4  A    between atoms: C_2  and  O_5
REMARK    5  A    between atoms: O_5  and  C_6
REMARK    6  A    between atoms: C_10  and  O_11
REMARK    7  A    between atoms: C_12  and  C_13
REMARK                            x       y       z     vdW  Elec       q    Type
REMARK                         _______ _______ _______ _____ _____    ______ ____
ROOT
ATOM      1  C   UNL     1       4.188   3.425  18.043  0.00  0.00    +0.000 C 
ATOM      2  O   UNL     1       4.174   2.255  17.686  0.00  0.00    +0.000 OA
ATOM      3  N   UNL     1       4.880   4.381  17.348  0.00  0.00    +0.000 N 
ATOM      4  C   UNL     1       5.593   4.060  16.126  0.00  0.00    +0.000 C 
ATOM      5  C   UNL     1       6.875   4.876  16.258  0.00  0.00    +0.000 C 
ATOM      6  C   UNL     1       6.407   6.161  16.967  0.00  0.00    +0.000 C 
ATOM      7  C   UNL     1       5.171   5.740  17.779  0.00  0.00    +0.000 C 
ENDROOT
BRANCH   5   8
ATOM      8  O   UNL     1       7.830   4.131  17.020  0.00  0.00    +0.000 OA
ATOM      9  H   UNL     1       7.943   4.560  17.888  0.00  0.00    +0.000 HD
ENDBRANCH   5   8
BRANCH   6  10
ATOM     10  C   UNL     1       7.434   6.765  17.824  0.00  0.00    +0.000 C 
ATOM     11  N   UNL     1       8.217   7.239  18.531  0.00  0.00    +0.000 NA
ENDBRANCH   6  10
BRANCH   1  12
ATOM     12  O   UNL     1       3.562   3.904  19.157  0.00  0.00    +0.000 OA
BRANCH  12  14
ATOM     13  C   UNL     1       1.475   2.726  19.693  0.00  0.00    +0.000 C 
ATOM     14  C   UNL     1       2.108   4.014  19.147  0.00  0.00    +0.000 C 
ATOM     15  C   UNL     1       1.563   4.391  17.761  0.00  0.00    +0.000 C 
ATOM     16  C   UNL     1       1.743   5.161  20.108  0.00  0.00    +0.000 C 
ENDBRANCH  12  14
ENDBRANCH   1  12
TORSDOF 4
ENDMDL
MODEL 3
REMARK VINA RESULT:      -5.9      2.215      5.339
REMARK  Name = 
REMARK  7 active torsions:
REMARK  status: ('A' for Active; 'I' for Inactive)
REMARK    1  A    between atoms: C_1  and  C_2
REMARK    2  A    between atoms: C_2  and  C_3
REMARK    3  A    between atoms: C_2  and  C_4
REMARK    4  A    between atoms: C_2  and  O_5
REMARK    5  A    between atoms: O_5  and  C_6
REMARK    6  A    between atoms: C_10  and  O_11
REMARK    7  A    between atoms: C_12  and  C_13
REMARK                            x       y       z     vdW  Elec       q    Type
REMARK                         _______ _______ _______ _____ _____    ______ ____
ROOT
ATOM      1  C   UNL     1       3.943   3.424  18.939  0.00  0.00    +0.000 C 
ATOM      2  O   UNL     1       4.037   2.205  18.893  0.00  0.00    +0.000 OA
ATOM      3  N   UNL     1       4.291   4.213  17.875  0.00  0.00    +0.000 N 
ATOM      4  C   UNL     1       4.745   3.638  16.623  0.00  0.00    +0.000 C 
ATOM      5  C   UNL     1       5.872   4.577  16.207  0.00  0.00    +0.000 C 
ATOM      6  C   UNL     1       5.377   5.956  16.682  0.00  0.00    +0.000 C 
ATOM      7  C   UNL     1       4.447   5.660  17.870  0.00  0.00    +0.000 C 
ENDROOT
BRANCH   5   8
ATOM      8  O   UNL     1       7.085   4.166  16.844  0.00  0.00    +0.000 OA
ATOM      9  H   UNL     1       6.935   3.307  17.280  0.00  0.00    +0.000 HD
ENDBRANCH   5   8
BRANCH   6  10
ATOM     10  C   UNL     1       6.462   6.869  17.061  0.00  0.00    +0.000 C 
ATOM     11  N   UNL     1       7.323   7.597  17.320  0.00  0.00    +0.000 NA
ENDBRANCH   6  10
BRANCH   1  12
ATOM     12  O   UNL     1       3.522   4.129  20.029  0.00  0.00    +0.000 OA
BRANCH  12  14
ATOM     13  C   UNL     1       1.917   3.235  21.659  0.00  0.00    +0.000 C 
ATOM     14  C   UNL     1       2.110   4.078  20.390  0.00  0.00    +0.000 C 
ATOM     15  C   UNL     1       1.230   3.594  19.227  0.00  0.00    +0.000 C 
ATOM     16  C   UNL     1       1.682   5.521  20.715  0.00  0.00    +0.000 C 
ENDBRANCH  12  14
ENDBRANCH   1  12
TORSDOF 4
ENDMDL
MODEL 4
REMARK VINA RESULT:      -5.9      0.064      1.120
REMARK  Name = 
REMARK  7 active torsions:
REMARK  status: ('A' for Active; 'I' for Inactive)
REMARK    1  A    between atoms: C_1  and  C_2
REMARK    2  A    between atoms: C_2  and  C_3
REMARK    3  A    between atoms: C_2  and  C_4
REMARK    4  A    between atoms: C_2  and  O_5
REMARK    5  A    between atoms: O_5  and  C_6
REMARK    6  A    between atoms: C_10  and  O_11
REMARK    7  A    between atoms: C_12  and  C_13
REMARK                            x       y       z     vdW  Elec       q    Type
REMARK                         _______ _______ _______ _____ _____    ______ ____
ROOT
ATOM      1  C   UNL     1       4.772   5.233  17.736  0.00  0.00    +0.000 C 
ATOM      2  O   UNL     1       4.409   5.726  16.676  0.00  0.00    +0.000 OA
ATOM      3  N   UNL     1       4.252   4.052  18.196  0.00  0.00    +0.000 N 
ATOM      4  C   UNL     1       3.279   3.303  17.423  0.00  0.00    +0.000 C 
ATOM      5  C   UNL     1       2.305   2.811  18.489  0.00  0.00    +0.000 C 
ATOM      6  C   UNL     1       3.216   2.534  19.700  0.00  0.00    +0.000 C 
ATOM      7  C   UNL     1       4.415   3.480  19.523  0.00  0.00    +0.000 C 
ENDROOT
BRANCH   5   8
ATOM      8  O   UNL     1       1.332   3.829  18.741  0.00  0.00    +0.000 OA
ATOM      9  H   UNL     1       1.721   4.496  19.336  0.00  0.00    +0.000 HD
ENDBRANCH   5   8
BRANCH   6  10
ATOM     10  C   UNL     1       2.552   2.741  20.992  0.00  0.00    +0.000 C 
ATOM     11  N   UNL     1       2.056   2.934  22.020  0.00  0.00    +0.000 NA
ENDBRANCH   6  10
BRANCH   1  12
ATOM     12  O   UNL     1       5.685   5.795  18.581  0.00  0.00    +0.000 OA
BRANCH  12  14
ATOM     13  C   UNL     1       7.356   4.607  17.230  0.00  0.00    +0.000 C 
ATOM     14  C   UNL     1       7.093   5.764  18.204  0.00  0.00    +0.000 C 
ATOM     15  C   UNL     1       8.022   5.720  19.427  0.00  0.00    +0.000 C 
ATOM     16  C   UNL     1       7.383   7.081  17.459  0.00  0.00    +0.000 C 
ENDBRANCH  12  14
ENDBRANCH   1  12
TORSDOF 4
ENDMDL
MODEL 5
REMARK VINA RESULT:      -5.9      2.270      5.403
REMARK  Name = 
REMARK  7 active torsions:
REMARK  status: ('A' for Active; 'I' for Inactive)
REMARK    1  A    between atoms: C_1  and  C_2
REMARK    2  A    between atoms: C_2  and  C_3
REMARK    3  A    between atoms: C_2  and  C_4
REMARK    4  A    between atoms: C_2  and  O_5
REMARK    5  A    between atoms: O_5  and  C_6
REMARK    6  A    between atoms: C_10  and  O_11
REMARK    7  A    between atoms: C_12  and  C_13
REMARK                            x       y       z     vdW  Elec       q    Type
REMARK                         _______ _______ _______ _____ _____    ______ ____
ROOT
ATOM      1  C   UNL     1       4.164   3.389  17.959  0.00  0.00    +0.000 C 
ATOM      2  O   UNL     1       4.169   2.218  17.602  0.00  0.00    +0.000 OA
ATOM      3  N   UNL     1       4.871   4.349  17.286  0.00  0.00    +0.000 N 
ATOM      4  C   UNL     1       5.624   4.033  16.087  0.00  0.00    +0.000 C 
ATOM      5  C   UNL     1       6.896   4.857  16.258  0.00  0.00    +0.000 C 
ATOM      6  C   UNL     1       6.397   6.139  16.952  0.00  0.00    +0.000 C 
ATOM      7  C   UNL     1       5.139   5.710  17.725  0.00  0.00    +0.000 C 
ENDROOT
BRANCH   5   8
ATOM      8  O   UNL     1       7.831   4.119  17.049  0.00  0.00    +0.000 OA
ATOM      9  H   UNL     1       8.347   4.744  17.591  0.00  0.00    +0.000 HD
ENDBRANCH   5   8
BRANCH   6  10
ATOM     10  C   UNL     1       7.393   6.750  17.840  0.00  0.00    +0.000 C 
ATOM     11  N   UNL     1       8.206   7.206  18.525  0.00  0.00    +0.000 NA
ENDBRANCH   6  10
BRANCH   1  12
ATOM     12  O   UNL     1       3.500   3.863  19.053  0.00  0.00    +0.000 OA
BRANCH  12  14
ATOM     13  C   UNL     1       1.485   4.664  20.203  0.00  0.00    +0.000 C 
ATOM     14  C   UNL     1       2.044   3.792  19.070  0.00  0.00    +0.000 C 
ATOM     15  C   UNL     1       1.533   2.345  19.140  0.00  0.00    +0.000 C 
ATOM     16  C   UNL     1       1.555   4.385  17.736  0.00  0.00    +0.000 C 
ENDBRANCH  12  14
ENDBRANCH   1  12
TORSDOF 4
ENDMDL
MODEL 6
REMARK VINA RESULT:      -5.9      0.085      1.117
REMARK  Name = 
REMARK  7 active torsions:
REMARK  status: ('A' for Active; 'I' for Inactive)
REMARK    1  A    between atoms: C_1  and  C_2
REMARK    2  A    between atoms: C_2  and  C_3
REMARK    3  A    between atoms: C_2  and  C_4
REMARK    4  A    between atoms: C_2  and  O_5
REMARK    5  A    between atoms: O_5  and  C_6
REMARK    6  A    between atoms: C_10  and  O_11
REMARK    7  A    between atoms: C_12  and  C_13
REMARK                            x       y       z     vdW  Elec       q    Type
REMARK                         _______ _______ _______ _____ _____    ______ ____
ROOT
ATOM      1  C   UNL     1       4.750   5.272  17.821  0.00  0.00    +0.000 C 
ATOM      2  O   UNL     1       4.397   5.829  16.790  0.00  0.00    +0.000 OA
ATOM      3  N   UNL     1       4.195   4.087  18.225  0.00  0.00    +0.000 N 
ATOM      4  C   UNL     1       3.193   3.409  17.425  0.00  0.00    +0.000 C 
ATOM      5  C   UNL     1       2.211   2.897  18.473  0.00  0.00    +0.000 C 
ATOM      6  C   UNL     1       3.120   2.529  19.660  0.00  0.00    +0.000 C 
ATOM      7  C   UNL     1       4.348   3.443  19.521  0.00  0.00    +0.000 C 
ENDROOT
BRANCH   5   8
ATOM      8  O   UNL     1       1.274   3.931  18.784  0.00  0.00    +0.000 OA
ATOM      9  H   UNL     1       0.411   3.703  18.392  0.00  0.00    +0.000 HD
ENDBRANCH   5   8
BRANCH   6  10
ATOM     10  C   UNL     1       2.473   2.692  20.967  0.00  0.00    +0.000 C 
ATOM     11  N   UNL     1       1.935   2.846  21.980  0.00  0.00    +0.000 NA
ENDBRANCH   6  10
BRANCH   1  12
ATOM     12  O   UNL     1       5.688   5.760  18.684  0.00  0.00    +0.000 OA
BRANCH  12  14
ATOM     13  C   UNL     1       8.026   5.718  19.431  0.00  0.00    +0.000 C 
ATOM     14  C   UNL     1       7.072   5.844  18.235  0.00  0.00    +0.000 C 
ATOM     15  C   UNL     1       7.339   7.110  17.406  0.00  0.00    +0.000 C 
ATOM     16  C   UNL     1       7.314   4.635  17.312  0.00  0.00    +0.000 C 
ENDBRANCH  12  14
ENDBRANCH   1  12
TORSDOF 4
ENDMDL
MODEL 7
REMARK VINA RESULT:      -5.8      2.002      5.246
REMARK  Name = 
REMARK  7 active torsions:
REMARK  status: ('A' for Active; 'I' for Inactive)
REMARK    1  A    between atoms: C_1  and  C_2
REMARK    2  A    between atoms: C_2  and  C_3
REMARK    3  A    between atoms: C_2  and  C_4
REMARK    4  A    between atoms: C_2  and  O_5
REMARK    5  A    between atoms: O_5  and  C_6
REMARK    6  A    between atoms: C_10  and  O_11
REMARK    7  A    between atoms: C_12  and  C_13
REMARK                            x       y       z     vdW  Elec       q    Type
REMARK                         _______ _______ _______ _____ _____    ______ ____
ROOT
ATOM      1  C   UNL     1       3.245   3.227  18.422  0.00  0.00    +0.000 C 
ATOM      2  O   UNL     1       2.841   2.539  17.494  0.00  0.00    +0.000 OA
ATOM      3  N   UNL     1       4.053   4.313  18.213  0.00  0.00    +0.000 N 
ATOM      4  C   UNL     1       4.431   4.729  16.875  0.00  0.00    +0.000 C 
ATOM      5  C   UNL     1       5.894   5.124  17.043  0.00  0.00    +0.000 C 
ATOM      6  C   UNL     1       5.934   5.743  18.453  0.00  0.00    +0.000 C 
ATOM      7  C   UNL     1       4.784   5.069  19.218  0.00  0.00    +0.000 C 
ENDROOT
BRANCH   5   8
ATOM      8  O   UNL     1       6.712   3.957  16.920  0.00  0.00    +0.000 OA
ATOM      9  H   UNL     1       7.647   4.231  16.881  0.00  0.00    +0.000 HD
ENDBRANCH   5   8
BRANCH   6  10
ATOM     10  C   UNL     1       7.219   5.559  19.138  0.00  0.00    +0.000 C 
ATOM     11  N   UNL     1       8.228   5.451  19.694  0.00  0.00    +0.000 NA
ENDBRANCH   6  10
BRANCH   1  12
ATOM     12  O   UNL     1       2.976   2.990  19.739  0.00  0.00    +0.000 OA
BRANCH  12  14
ATOM     13  C   UNL     1       0.582   2.651  19.315  0.00  0.00    +0.000 C 
ATOM     14  C   UNL     1       1.637   3.275  20.240  0.00  0.00    +0.000 C 
ATOM     15  C   UNL     1       1.407   4.778  20.459  0.00  0.00    +0.000 C 
ATOM     16  C   UNL     1       1.522   2.591  21.614  0.00  0.00    +0.000 C 
ENDBRANCH  12  14
ENDBRANCH   1  12
TORSDOF 4
ENDMDL
MODEL 8
REMARK VINA RESULT:      -5.8      1.988      5.232
REMARK  Name = 
REMARK  7 active torsions:
REMARK  status: ('A' for Active; 'I' for Inactive)
REMARK    1  A    between atoms: C_1  and  C_2
REMARK    2  A    between atoms: C_2  and  C_3
REMARK    3  A    between atoms: C_2  and  C_4
REMARK    4  A    between atoms: C_2  and  O_5
REMARK    5  A    between atoms: O_5  and  C_6
REMARK    6  A    between atoms: C_10  and  O_11
REMARK    7  A    between atoms: C_12  and  C_13
REMARK                            x       y       z     vdW  Elec       q    Type
REMARK                         _______ _______ _______ _____ _____    ______ ____
ROOT
ATOM      1  C   UNL     1       2.848   4.552  18.312  0.00  0.00    +0.000 C 
ATOM      2  O   UNL     1       1.932   4.801  17.539  0.00  0.00    +0.000 OA
ATOM      3  N   UNL     1       3.999   5.293  18.325  0.00  0.00    +0.000 N 
ATOM      4  C   UNL     1       4.170   6.441  17.455  0.00  0.00    +0.000 C 
ATOM      5  C   UNL     1       5.624   6.317  17.011  0.00  0.00    +0.000 C 
ATOM      6  C   UNL     1       6.329   5.753  18.259  0.00  0.00    +0.000 C 
ATOM      7  C   UNL     1       5.240   4.973  19.015  0.00  0.00    +0.000 C 
ENDROOT
BRANCH   5   8
ATOM      8  O   UNL     1       5.697   5.441  15.882  0.00  0.00    +0.000 OA
ATOM      9  H   UNL     1       5.040   5.725  15.221  0.00  0.00    +0.000 HD
ENDBRANCH   5   8
BRANCH   6  10
ATOM     10  C   UNL     1       7.483   4.902  17.947  0.00  0.00    +0.000 C 
ATOM     11  N   UNL     1       8.371   4.198  17.714  0.00  0.00    +0.000 NA
ENDBRANCH   6  10
BRANCH   1  12
ATOM     12  O   UNL     1       2.850   3.520  19.206  0.00  0.00    +0.000 OA
BRANCH  12  14
ATOM     13  C   UNL     1       0.565   3.061  19.979  0.00  0.00    +0.000 C 
ATOM     14  C   UNL     1       1.956   3.592  20.355  0.00  0.00    +0.000 C 
ATOM     15  C   UNL     1       1.898   5.004  20.960  0.00  0.00    +0.000 C 
ATOM     16  C   UNL     1       2.540   2.659  21.432  0.00  0.00    +0.000 C 
ENDBRANCH  12  14
ENDBRANCH   1  12
TORSDOF 4
ENDMDL
MODEL 9
REMARK VINA RESULT:      -5.8      2.015      5.250
REMARK  Name = 
REMARK  7 active torsions:
REMARK  status: ('A' for Active; 'I' for Inactive)
REMARK    1  A    between atoms: C_1  and  C_2
REMARK    2  A    between atoms: C_2  and  C_3
REMARK    3  A    between atoms: C_2  and  C_4
REMARK    4  A    between atoms: C_2  and  O_5
REMARK    5  A    between atoms: O_5  and  C_6
REMARK    6  A    between atoms: C_10  and  O_11
REMARK    7  A    between atoms: C_12  and  C_13
REMARK                            x       y       z     vdW  Elec       q    Type
REMARK                         _______ _______ _______ _____ _____    ______ ____
ROOT
ATOM      1  C   UNL     1       3.314   3.165  18.410  0.00  0.00    +0.000 C 
ATOM      2  O   UNL     1       2.932   2.458  17.487  0.00  0.00    +0.000 OA
ATOM      3  N   UNL     1       4.103   4.264  18.195  0.00  0.00    +0.000 N 
ATOM      4  C   UNL     1       4.486   4.670  16.856  0.00  0.00    +0.000 C 
ATOM      5  C   UNL     1       5.940   5.095  17.034  0.00  0.00    +0.000 C 
ATOM      6  C   UNL     1       5.955   5.733  18.436  0.00  0.00    +0.000 C 
ATOM      7  C   UNL     1       4.810   5.046  19.198  0.00  0.00    +0.000 C 
ENDROOT
BRANCH   5   8
ATOM      8  O   UNL     1       6.782   3.943  16.933  0.00  0.00    +0.000 OA
ATOM      9  H   UNL     1       7.092   3.859  16.013  0.00  0.00    +0.000 HD
ENDBRANCH   5   8
BRANCH   6  10
ATOM     10  C   UNL     1       7.235   5.581  19.136  0.00  0.00    +0.000 C 
ATOM     11  N   UNL     1       8.253   5.428  19.665  0.00  0.00    +0.000 NA
ENDBRANCH   6  10
BRANCH   1  12
ATOM     12  O   UNL     1       3.036   2.939  19.727  0.00  0.00    +0.000 OA
BRANCH  12  14
ATOM     13  C   UNL     1       1.510   2.573  21.614  0.00  0.00    +0.000 C 
ATOM     14  C   UNL     1       1.671   3.138  20.196  0.00  0.00    +0.000 C 
ATOM     15  C   UNL     1       0.631   2.569  19.218  0.00  0.00    +0.000 C 
ATOM     16  C   UNL     1       1.443   4.660  20.267  0.00  0.00    +0.000 C 
ENDBRANCH  12  14
ENDBRANCH   1  12
TORSDOF 4
ENDMDL
