MODEL 1
REMARK VINA RESULT:      -7.0      0.000      0.000
REMARK  Name = 
REMARK  11 active torsions:
REMARK  status: ('A' for Active; 'I' for Inactive)
REMARK    1  A    between atoms: C_1  and  C_2
REMARK    2  A    between atoms: C_2  and  N_3
REMARK    3  A    between atoms: N_3  and  C_4
REMARK    4  A    between atoms: N_3  and  C_6
REMARK    5  A    between atoms: C_4  and  C_5
REMARK    6  A    between atoms: C_6  and  C_7
REMARK    7  A    between atoms: C_7  and  N_8
REMARK    8  A    between atoms: N_8  and  C_9
REMARK    9  A    between atoms: C_12  and  C_13
REMARK   10  A    between atoms: C_13  and  S_14
REMARK   11  A    between atoms: S_14  and  C_15
REMARK                            x       y       z     vdW  Elec       q    Type
REMARK                         _______ _______ _______ _____ _____    ______ ____
ROOT
ATOM      1  C   UNL     1       3.593   6.658  17.807  0.00  0.00    +0.000 A 
ATOM      2  C   UNL     1       3.952   5.342  18.134  0.00  0.00    +0.000 A 
ATOM      3  C   UNL     1       3.361   4.665  19.193  0.00  0.00    +0.000 A 
ATOM      4  C   UNL     1       2.455   5.311  20.042  0.00  0.00    +0.000 A 
ATOM      5  C   UNL     1       2.180   6.686  19.823  0.00  0.00    +0.000 A 
ATOM      6  S   UNL     1       1.331   7.571  21.119  0.00  0.00    +0.000 S 
ATOM      7  C   UNL     1       0.737   9.018  20.321  0.00  0.00    +0.000 A 
ATOM      8  C   UNL     1      -0.241   9.760  21.005  0.00  0.00    +0.000 A 
ATOM      9  C   UNL     1      -0.742  10.950  20.478  0.00  0.00    +0.000 A 
ATOM     10  C   UNL     1      -0.255  11.418  19.263  0.00  0.00    +0.000 A 
ATOM     11  C   UNL     1       0.708  10.679  18.574  0.00  0.00    +0.000 A 
ATOM     12  C   UNL     1       1.204   9.467  19.090  0.00  0.00    +0.000 A 
ATOM     13  C   UNL     1       2.188   8.702  18.285  0.00  0.00    +0.000 A 
ATOM     14  O   UNL     1       2.529   9.198  17.208  0.00  0.00    +0.000 OA
ATOM     15  C   UNL     1       2.681   7.336  18.669  0.00  0.00    +0.000 A 
ENDROOT
BRANCH   1  16
ATOM     16  N   UNL     1       4.241   7.301  16.731  0.00  0.00    +0.000 N 
ATOM     17  H   UNL     1       3.606   7.938  16.227  0.00  0.00    +0.000 HD
BRANCH  16  18
ATOM     18  C   UNL     1       5.090   6.502  15.844  0.00  0.00    +0.000 C 
BRANCH  18  19
ATOM     19  C   UNL     1       6.537   6.341  16.369  0.00  0.00    +0.000 C 
BRANCH  19  20
ATOM     20  N   UNL     1       7.152   4.999  16.303  0.00  0.00    +0.000 NA
BRANCH  20  22
ATOM     21  C   UNL     1       7.658   5.633  18.690  0.00  0.00    +0.000 C 
ATOM     22  C   UNL     1       7.665   4.557  17.607  0.00  0.00    +0.000 C 
ENDBRANCH  20  22
BRANCH  20  23
ATOM     23  C   UNL     1       6.255   4.037  15.641  0.00  0.00    +0.000 C 
ATOM     24  C   UNL     1       6.410   3.895  14.128  0.00  0.00    +0.000 C 
ENDBRANCH  20  23
ENDBRANCH  19  20
ENDBRANCH  18  19
ENDBRANCH  16  18
ENDBRANCH   1  16
BRANCH   4  25
ATOM     25  C   UNL     1       1.887   4.491  21.188  0.00  0.00    +0.000 C 
BRANCH  25  26
ATOM     26  S   UNL     1       1.803   2.686  20.935  0.00  0.00    +0.000 S 
ATOM     27  C   UNL     1       0.683   2.590  19.522  0.00  0.00    +0.000 C 
ENDBRANCH  25  26
ENDBRANCH   4  25
TORSDOF 8
ENDMDL
MODEL 2
REMARK VINA RESULT:      -6.5      2.654      6.884
REMARK  Name = 
REMARK  11 active torsions:
REMARK  status: ('A' for Active; 'I' for Inactive)
REMARK    1  A    between atoms: C_1  and  C_2
REMARK    2  A    between atoms: C_2  and  N_3
REMARK    3  A    between atoms: N_3  and  C_4
REMARK    4  A    between atoms: N_3  and  C_6
REMARK    5  A    between atoms: C_4  and  C_5
REMARK    6  A    between atoms: C_6  and  C_7
REMARK    7  A    between atoms: C_7  and  N_8
REMARK    8  A    between atoms: N_8  and  C_9
REMARK    9  A    between atoms: C_12  and  C_13
REMARK   10  A    between atoms: C_13  and  S_14
REMARK   11  A    between atoms: S_14  and  C_15
REMARK                            x       y       z     vdW  Elec       q    Type
REMARK                         _______ _______ _______ _____ _____    ______ ____
ROOT
ATOM      1  C   UNL     1       3.636   7.342  17.631  0.00  0.00    +0.000 A 
ATOM      2  C   UNL     1       4.393   7.511  16.463  0.00  0.00    +0.000 A 
ATOM      3  C   UNL     1       5.084   6.456  15.881  0.00  0.00    +0.000 A 
ATOM      4  C   UNL     1       5.133   5.201  16.499  0.00  0.00    +0.000 A 
ATOM      5  C   UNL     1       4.495   5.038  17.756  0.00  0.00    +0.000 A 
ATOM      6  S   UNL     1       4.882   3.568  18.689  0.00  0.00    +0.000 S 
ATOM      7  C   UNL     1       3.587   3.465  19.870  0.00  0.00    +0.000 A 
ATOM      8  C   UNL     1       3.442   2.240  20.543  0.00  0.00    +0.000 A 
ATOM      9  C   UNL     1       2.474   2.072  21.533  0.00  0.00    +0.000 A 
ATOM     10  C   UNL     1       1.648   3.139  21.870  0.00  0.00    +0.000 A 
ATOM     11  C   UNL     1       1.781   4.354  21.197  0.00  0.00    +0.000 A 
ATOM     12  C   UNL     1       2.742   4.525  20.183  0.00  0.00    +0.000 A 
ATOM     13  C   UNL     1       2.798   5.824  19.468  0.00  0.00    +0.000 A 
ATOM     14  O   UNL     1       1.999   6.692  19.830  0.00  0.00    +0.000 OA
ATOM     15  C   UNL     1       3.686   6.074  18.282  0.00  0.00    +0.000 A 
ENDROOT
BRANCH   1  16
ATOM     16  N   UNL     1       2.971   8.455  18.187  0.00  0.00    +0.000 N 
ATOM     17  H   UNL     1       2.955   8.416  19.217  0.00  0.00    +0.000 HD
BRANCH  16  18
ATOM     18  C   UNL     1       1.698   8.878  17.600  0.00  0.00    +0.000 C 
BRANCH  18  19
ATOM     19  C   UNL     1       1.037  10.053  18.362  0.00  0.00    +0.000 C 
BRANCH  19  20
ATOM     20  N   UNL     1      -0.354   9.879  18.829  0.00  0.00    +0.000 NA
BRANCH  20  22
ATOM     21  C   UNL     1       0.818   9.969  21.060  0.00  0.00    +0.000 C 
ATOM     22  C   UNL     1      -0.487  10.097  20.277  0.00  0.00    +0.000 C 
ENDBRANCH  20  22
BRANCH  20  23
ATOM     23  C   UNL     1      -1.291  10.663  18.006  0.00  0.00    +0.000 C 
ATOM     24  C   UNL     1      -2.493   9.907  17.443  0.00  0.00    +0.000 C 
ENDBRANCH  20  23
ENDBRANCH  19  20
ENDBRANCH  18  19
ENDBRANCH  16  18
ENDBRANCH   1  16
BRANCH   4  25
ATOM     25  C   UNL     1       5.939   4.122  15.796  0.00  0.00    +0.000 C 
BRANCH  25  26
ATOM     26  S   UNL     1       6.867   4.637  14.311  0.00  0.00    +0.000 S 
ATOM     27  C   UNL     1       6.053   3.648  13.038  0.00  0.00    +0.000 C 
ENDBRANCH  25  26
ENDBRANCH   4  25
TORSDOF 8
ENDMDL
MODEL 3
REMARK VINA RESULT:      -6.4      2.619      6.818
REMARK  Name = 
REMARK  11 active torsions:
REMARK  status: ('A' for Active; 'I' for Inactive)
REMARK    1  A    between atoms: C_1  and  C_2
REMARK    2  A    between atoms: C_2  and  N_3
REMARK    3  A    between atoms: N_3  and  C_4
REMARK    4  A    between atoms: N_3  and  C_6
REMARK    5  A    between atoms: C_4  and  C_5
REMARK    6  A    between atoms: C_6  and  C_7
REMARK    7  A    between atoms: C_7  and  N_8
REMARK    8  A    between atoms: N_8  and  C_9
REMARK    9  A    between atoms: C_12  and  C_13
REMARK   10  A    between atoms: C_13  and  S_14
REMARK   11  A    between atoms: S_14  and  C_15
REMARK                            x       y       z     vdW  Elec       q    Type
REMARK                         _______ _______ _______ _____ _____    ______ ____
ROOT
ATOM      1  C   UNL     1       3.514   7.347  17.726  0.00  0.00    +0.000 A 
ATOM      2  C   UNL     1       4.297   7.561  16.582  0.00  0.00    +0.000 A 
ATOM      3  C   UNL     1       5.046   6.542  16.008  0.00  0.00    +0.000 A 
ATOM      4  C   UNL     1       5.129   5.283  16.613  0.00  0.00    +0.000 A 
ATOM      5  C   UNL     1       4.463   5.078  17.849  0.00  0.00    +0.000 A 
ATOM      6  S   UNL     1       4.883   3.613  18.777  0.00  0.00    +0.000 S 
ATOM      7  C   UNL     1       3.560   3.443  19.919  0.00  0.00    +0.000 A 
ATOM      8  C   UNL     1       3.447   2.205  20.573  0.00  0.00    +0.000 A 
ATOM      9  C   UNL     1       2.459   1.986  21.533  0.00  0.00    +0.000 A 
ATOM     10  C   UNL     1       1.581   3.014  21.859  0.00  0.00    +0.000 A 
ATOM     11  C   UNL     1       1.683   4.242  21.203  0.00  0.00    +0.000 A 
ATOM     12  C   UNL     1       2.665   4.464  20.219  0.00  0.00    +0.000 A 
ATOM     13  C   UNL     1       2.688   5.774  19.521  0.00  0.00    +0.000 A 
ATOM     14  O   UNL     1       1.844   6.603  19.870  0.00  0.00    +0.000 OA
ATOM     15  C   UNL     1       3.597   6.073  18.364  0.00  0.00    +0.000 A 
ENDROOT
BRANCH   1  16
ATOM     16  N   UNL     1       2.789   8.425  18.276  0.00  0.00    +0.000 N 
ATOM     17  H   UNL     1       2.558   8.265  19.268  0.00  0.00    +0.000 HD
BRANCH  16  18
ATOM     18  C   UNL     1       1.682   8.993  17.504  0.00  0.00    +0.000 C 
BRANCH  18  19
ATOM     19  C   UNL     1       0.688   9.803  18.371  0.00  0.00    +0.000 C 
BRANCH  19  20
ATOM     20  N   UNL     1       1.242  10.795  19.316  0.00  0.00    +0.000 NA
BRANCH  20  22
ATOM     21  C   UNL     1       2.541  12.619  18.154  0.00  0.00    +0.000 C 
ATOM     22  C   UNL     1       1.220  12.159  18.768  0.00  0.00    +0.000 C 
ENDBRANCH  20  22
BRANCH  20  23
ATOM     23  C   UNL     1       0.626  10.662  20.647  0.00  0.00    +0.000 C 
ATOM     24  C   UNL     1       1.006   9.418  21.448  0.00  0.00    +0.000 C 
ENDBRANCH  20  23
ENDBRANCH  19  20
ENDBRANCH  18  19
ENDBRANCH  16  18
ENDBRANCH   1  16
BRANCH   4  25
ATOM     25  C   UNL     1       5.997   4.247  15.921  0.00  0.00    +0.000 C 
BRANCH  25  26
ATOM     26  S   UNL     1       6.857   4.786  14.405  0.00  0.00    +0.000 S 
ATOM     27  C   UNL     1       6.111   3.690  13.178  0.00  0.00    +0.000 C 
ENDBRANCH  25  26
ENDBRANCH   4  25
TORSDOF 8
ENDMDL
MODEL 4
REMARK VINA RESULT:      -6.4      1.298      2.021
REMARK  Name = 
REMARK  11 active torsions:
REMARK  status: ('A' for Active; 'I' for Inactive)
REMARK    1  A    between atoms: C_1  and  C_2
REMARK    2  A    between atoms: C_2  and  N_3
REMARK    3  A    between atoms: N_3  and  C_4
REMARK    4  A    between atoms: N_3  and  C_6
REMARK    5  A    between atoms: C_4  and  C_5
REMARK    6  A    between atoms: C_6  and  C_7
REMARK    7  A    between atoms: C_7  and  N_8
REMARK    8  A    between atoms: N_8  and  C_9
REMARK    9  A    between atoms: C_12  and  C_13
REMARK   10  A    between atoms: C_13  and  S_14
REMARK   11  A    between atoms: S_14  and  C_15
REMARK                            x       y       z     vdW  Elec       q    Type
REMARK                         _______ _______ _______ _____ _____    ______ ____
ROOT
ATOM      1  C   UNL     1       4.137   5.944  17.470  0.00  0.00    +0.000 A 
ATOM      2  C   UNL     1       4.496   4.616  17.741  0.00  0.00    +0.000 A 
ATOM      3  C   UNL     1       3.924   3.903  18.788  0.00  0.00    +0.000 A 
ATOM      4  C   UNL     1       3.038   4.522  19.677  0.00  0.00    +0.000 A 
ATOM      5  C   UNL     1       2.766   5.905  19.514  0.00  0.00    +0.000 A 
ATOM      6  S   UNL     1       1.947   6.746  20.857  0.00  0.00    +0.000 S 
ATOM      7  C   UNL     1       1.345   8.224  20.125  0.00  0.00    +0.000 A 
ATOM      8  C   UNL     1       0.384   8.944  20.855  0.00  0.00    +0.000 A 
ATOM      9  C   UNL     1      -0.121  10.155  20.382  0.00  0.00    +0.000 A 
ATOM     10  C   UNL     1       0.343  10.665  19.174  0.00  0.00    +0.000 A 
ATOM     11  C   UNL     1       1.289   9.947  18.440  0.00  0.00    +0.000 A 
ATOM     12  C   UNL     1       1.789   8.715  18.902  0.00  0.00    +0.000 A 
ATOM     13  C   UNL     1       2.753   7.975  18.050  0.00  0.00    +0.000 A 
ATOM     14  O   UNL     1       3.075   8.508  16.984  0.00  0.00    +0.000 OA
ATOM     15  C   UNL     1       3.246   6.594  18.374  0.00  0.00    +0.000 A 
ENDROOT
BRANCH   1  16
ATOM     16  N   UNL     1       4.767   6.622  16.405  0.00  0.00    +0.000 N 
ATOM     17  H   UNL     1       4.081   7.029  15.751  0.00  0.00    +0.000 HD
BRANCH  16  18
ATOM     18  C   UNL     1       5.900   5.980  15.735  0.00  0.00    +0.000 C 
BRANCH  18  19
ATOM     19  C   UNL     1       7.235   6.151  16.499  0.00  0.00    +0.000 C 
BRANCH  19  20
ATOM     20  N   UNL     1       7.246   7.030  17.686  0.00  0.00    +0.000 NA
BRANCH  20  22
ATOM     21  C   UNL     1       7.227   5.481  19.677  0.00  0.00    +0.000 C 
ATOM     22  C   UNL     1       8.014   6.453  18.800  0.00  0.00    +0.000 C 
ENDBRANCH  20  22
BRANCH  20  23
ATOM     23  C   UNL     1       7.635   8.404  17.325  0.00  0.00    +0.000 C 
ATOM     24  C   UNL     1       8.454   9.171  18.362  0.00  0.00    +0.000 C 
ENDBRANCH  20  23
ENDBRANCH  19  20
ENDBRANCH  18  19
ENDBRANCH  16  18
ENDBRANCH   1  16
BRANCH   4  25
ATOM     25  C   UNL     1       2.489   3.664  20.804  0.00  0.00    +0.000 C 
BRANCH  25  26
ATOM     26  S   UNL     1       0.800   3.010  20.582  0.00  0.00    +0.000 S 
ATOM     27  C   UNL     1       0.882   2.421  18.877  0.00  0.00    +0.000 C 
ENDBRANCH  25  26
ENDBRANCH   4  25
TORSDOF 8
ENDMDL
MODEL 5
REMARK VINA RESULT:      -6.4      1.598      2.703
REMARK  Name = 
REMARK  11 active torsions:
REMARK  status: ('A' for Active; 'I' for Inactive)
REMARK    1  A    between atoms: C_1  and  C_2
REMARK    2  A    between atoms: C_2  and  N_3
REMARK    3  A    between atoms: N_3  and  C_4
REMARK    4  A    between atoms: N_3  and  C_6
REMARK    5  A    between atoms: C_4  and  C_5
REMARK    6  A    between atoms: C_6  and  C_7
REMARK    7  A    between atoms: C_7  and  N_8
REMARK    8  A    between atoms: N_8  and  C_9
REMARK    9  A    between atoms: C_12  and  C_13
REMARK   10  A    between atoms: C_13  and  S_14
REMARK   11  A    between atoms: S_14  and  C_15
REMARK                            x       y       z     vdW  Elec       q    Type
REMARK                         _______ _______ _______ _____ _____    ______ ____
ROOT
ATOM      1  C   UNL     1       4.504   5.255  17.260  0.00  0.00    +0.000 A 
ATOM      2  C   UNL     1       4.786   3.937  17.646  0.00  0.00    +0.000 A 
ATOM      3  C   UNL     1       4.173   3.352  18.748  0.00  0.00    +0.000 A 
ATOM      4  C   UNL     1       3.326   4.095  19.578  0.00  0.00    +0.000 A 
ATOM      5  C   UNL     1       3.135   5.472  19.294  0.00  0.00    +0.000 A 
ATOM      6  S   UNL     1       2.368   6.473  20.557  0.00  0.00    +0.000 S 
ATOM      7  C   UNL     1       1.853   7.915  19.697  0.00  0.00    +0.000 A 
ATOM      8  C   UNL     1       0.936   8.750  20.359  0.00  0.00    +0.000 A 
ATOM      9  C   UNL     1       0.502   9.943  19.781  0.00  0.00    +0.000 A 
ATOM     10  C   UNL     1       0.994  10.319  18.536  0.00  0.00    +0.000 A 
ATOM     11  C   UNL     1       1.896   9.487  17.871  0.00  0.00    +0.000 A 
ATOM     12  C   UNL     1       2.324   8.272  18.439  0.00  0.00    +0.000 A 
ATOM     13  C   UNL     1       3.242   7.407  17.657  0.00  0.00    +0.000 A 
ATOM     14  O   UNL     1       3.593   7.826  16.551  0.00  0.00    +0.000 OA
ATOM     15  C   UNL     1       3.654   6.032  18.102  0.00  0.00    +0.000 A 
ENDROOT
BRANCH   1  16
ATOM     16  N   UNL     1       5.172   5.801  16.143  0.00  0.00    +0.000 N 
ATOM     17  H   UNL     1       4.511   6.214  15.467  0.00  0.00    +0.000 HD
BRANCH  16  18
ATOM     18  C   UNL     1       6.240   5.023  15.513  0.00  0.00    +0.000 C 
BRANCH  18  19
ATOM     19  C   UNL     1       5.782   4.290  14.229  0.00  0.00    +0.000 C 
BRANCH  19  20
ATOM     20  N   UNL     1       6.813   3.927  13.234  0.00  0.00    +0.000 NA
BRANCH  20  22
ATOM     21  C   UNL     1       4.702   3.370  11.972  0.00  0.00    +0.000 C 
ATOM     22  C   UNL     1       6.229   3.385  11.999  0.00  0.00    +0.000 C 
ENDBRANCH  20  22
BRANCH  20  23
ATOM     23  C   UNL     1       7.761   5.035  13.026  0.00  0.00    +0.000 C 
ATOM     24  C   UNL     1       7.706   5.726  11.664  0.00  0.00    +0.000 C 
ENDBRANCH  20  23
ENDBRANCH  19  20
ENDBRANCH  18  19
ENDBRANCH  16  18
ENDBRANCH   1  16
BRANCH   4  25
ATOM     25  C   UNL     1       2.729   3.371  20.772  0.00  0.00    +0.000 C 
BRANCH  25  26
ATOM     26  S   UNL     1       0.965   2.921  20.654  0.00  0.00    +0.000 S 
ATOM     27  C   UNL     1       0.837   2.492  18.904  0.00  0.00    +0.000 C 
ENDBRANCH  25  26
ENDBRANCH   4  25
TORSDOF 8
ENDMDL
MODEL 6
REMARK VINA RESULT:      -6.4      1.533      2.364
REMARK  Name = 
REMARK  11 active torsions:
REMARK  status: ('A' for Active; 'I' for Inactive)
REMARK    1  A    between atoms: C_1  and  C_2
REMARK    2  A    between atoms: C_2  and  N_3
REMARK    3  A    between atoms: N_3  and  C_4
REMARK    4  A    between atoms: N_3  and  C_6
REMARK    5  A    between atoms: C_4  and  C_5
REMARK    6  A    between atoms: C_6  and  C_7
REMARK    7  A    between atoms: C_7  and  N_8
REMARK    8  A    between atoms: N_8  and  C_9
REMARK    9  A    between atoms: C_12  and  C_13
REMARK   10  A    between atoms: C_13  and  S_14
REMARK   11  A    between atoms: S_14  and  C_15
REMARK                            x       y       z     vdW  Elec       q    Type
REMARK                         _______ _______ _______ _____ _____    ______ ____
ROOT
ATOM      1  C   UNL     1       4.566   5.185  17.182  0.00  0.00    +0.000 A 
ATOM      2  C   UNL     1       4.843   3.854  17.529  0.00  0.00    +0.000 A 
ATOM      3  C   UNL     1       4.230   3.240  18.614  0.00  0.00    +0.000 A 
ATOM      4  C   UNL     1       3.385   3.961  19.466  0.00  0.00    +0.000 A 
ATOM      5  C   UNL     1       3.199   5.347  19.223  0.00  0.00    +0.000 A 
ATOM      6  S   UNL     1       2.436   6.312  20.515  0.00  0.00    +0.000 S 
ATOM      7  C   UNL     1       1.924   7.780  19.698  0.00  0.00    +0.000 A 
ATOM      8  C   UNL     1       1.011   8.599  20.384  0.00  0.00    +0.000 A 
ATOM      9  C   UNL     1       0.580   9.809  19.842  0.00  0.00    +0.000 A 
ATOM     10  C   UNL     1       1.072  10.219  18.607  0.00  0.00    +0.000 A 
ATOM     11  C   UNL     1       1.970   9.404  17.917  0.00  0.00    +0.000 A 
ATOM     12  C   UNL     1       2.395   8.172  18.449  0.00  0.00    +0.000 A 
ATOM     13  C   UNL     1       3.310   7.327  17.642  0.00  0.00    +0.000 A 
ATOM     14  O   UNL     1       3.662   7.777  16.549  0.00  0.00    +0.000 OA
ATOM     15  C   UNL     1       3.718   5.939  18.046  0.00  0.00    +0.000 A 
ENDROOT
BRANCH   1  16
ATOM     16  N   UNL     1       5.234   5.761  16.081  0.00  0.00    +0.000 N 
ATOM     17  H   UNL     1       4.801   5.487  15.185  0.00  0.00    +0.000 HD
BRANCH  16  18
ATOM     18  C   UNL     1       6.697   5.732  16.054  0.00  0.00    +0.000 C 
BRANCH  18  19
ATOM     19  C   UNL     1       7.268   4.783  14.972  0.00  0.00    +0.000 C 
BRANCH  19  20
ATOM     20  N   UNL     1       6.615   4.772  13.646  0.00  0.00    +0.000 NA
BRANCH  20  22
ATOM     21  C   UNL     1       8.763   5.904  12.964  0.00  0.00    +0.000 C 
ATOM     22  C   UNL     1       7.562   5.052  12.557  0.00  0.00    +0.000 C 
ENDBRANCH  20  22
BRANCH  20  23
ATOM     23  C   UNL     1       5.814   3.550  13.459  0.00  0.00    +0.000 C 
ATOM     24  C   UNL     1       5.489   3.168  12.017  0.00  0.00    +0.000 C 
ENDBRANCH  20  23
ENDBRANCH  19  20
ENDBRANCH  18  19
ENDBRANCH  16  18
ENDBRANCH   1  16
BRANCH   4  25
ATOM     25  C   UNL     1       2.788   3.205  20.639  0.00  0.00    +0.000 C 
BRANCH  25  26
ATOM     26  S   UNL     1       0.990   2.896  20.579  0.00  0.00    +0.000 S 
ATOM     27  C   UNL     1       0.775   2.463  18.838  0.00  0.00    +0.000 C 
ENDBRANCH  25  26
ENDBRANCH   4  25
TORSDOF 8
ENDMDL
MODEL 7
REMARK VINA RESULT:      -6.4      2.297      5.355
REMARK  Name = 
REMARK  11 active torsions:
REMARK  status: ('A' for Active; 'I' for Inactive)
REMARK    1  A    between atoms: C_1  and  C_2
REMARK    2  A    between atoms: C_2  and  N_3
REMARK    3  A    between atoms: N_3  and  C_4
REMARK    4  A    between atoms: N_3  and  C_6
REMARK    5  A    between atoms: C_4  and  C_5
REMARK    6  A    between atoms: C_6  and  C_7
REMARK    7  A    between atoms: C_7  and  N_8
REMARK    8  A    between atoms: N_8  and  C_9
REMARK    9  A    between atoms: C_12  and  C_13
REMARK   10  A    between atoms: C_13  and  S_14
REMARK   11  A    between atoms: S_14  and  C_15
REMARK                            x       y       z     vdW  Elec       q    Type
REMARK                         _______ _______ _______ _____ _____    ______ ____
ROOT
ATOM      1  C   UNL     1       5.697   5.478  17.613  0.00  0.00    +0.000 A 
ATOM      2  C   UNL     1       5.716   6.669  16.872  0.00  0.00    +0.000 A 
ATOM      3  C   UNL     1       4.652   7.561  16.896  0.00  0.00    +0.000 A 
ATOM      4  C   UNL     1       3.472   7.254  17.583  0.00  0.00    +0.000 A 
ATOM      5  C   UNL     1       3.368   5.992  18.224  0.00  0.00    +0.000 A 
ATOM      6  S   UNL     1       1.748   5.474  18.762  0.00  0.00    +0.000 S 
ATOM      7  C   UNL     1       2.077   4.183  19.907  0.00  0.00    +0.000 A 
ATOM      8  C   UNL     1       1.013   3.791  20.737  0.00  0.00    +0.000 A 
ATOM      9  C   UNL     1       1.159   2.743  21.646  0.00  0.00    +0.000 A 
ATOM     10  C   UNL     1       2.371   2.066  21.722  0.00  0.00    +0.000 A 
ATOM     11  C   UNL     1       3.433   2.461  20.907  0.00  0.00    +0.000 A 
ATOM     12  C   UNL     1       3.300   3.529  20.001  0.00  0.00    +0.000 A 
ATOM     13  C   UNL     1       4.483   3.934  19.201  0.00  0.00    +0.000 A 
ATOM     14  O   UNL     1       5.517   3.282  19.370  0.00  0.00    +0.000 OA
ATOM     15  C   UNL     1       4.497   5.142  18.308  0.00  0.00    +0.000 A 
ENDROOT
BRANCH   1  16
ATOM     16  N   UNL     1       6.800   4.602  17.534  0.00  0.00    +0.000 N 
ATOM     17  H   UNL     1       7.494   4.793  18.273  0.00  0.00    +0.000 HD
BRANCH  16  18
ATOM     18  C   UNL     1       7.400   4.344  16.224  0.00  0.00    +0.000 C 
BRANCH  18  19
ATOM     19  C   UNL     1       6.391   3.790  15.190  0.00  0.00    +0.000 C 
BRANCH  19  20
ATOM     20  N   UNL     1       6.386   4.385  13.837  0.00  0.00    +0.000 NA
BRANCH  20  22
ATOM     21  C   UNL     1       7.839   5.558  12.142  0.00  0.00    +0.000 C 
ATOM     22  C   UNL     1       7.545   5.262  13.611  0.00  0.00    +0.000 C 
ENDBRANCH  20  22
BRANCH  20  23
ATOM     23  C   UNL     1       6.191   3.354  12.805  0.00  0.00    +0.000 C 
ATOM     24  C   UNL     1       4.870   3.404  12.039  0.00  0.00    +0.000 C 
ENDBRANCH  20  23
ENDBRANCH  19  20
ENDBRANCH  18  19
ENDBRANCH  16  18
ENDBRANCH   1  16
BRANCH   4  25
ATOM     25  C   UNL     1       2.357   8.283  17.524  0.00  0.00    +0.000 C 
BRANCH  25  26
ATOM     26  S   UNL     1       1.783   8.955  19.120  0.00  0.00    +0.000 S 
ATOM     27  C   UNL     1       1.266  10.615  18.628  0.00  0.00    +0.000 C 
ENDBRANCH  25  26
ENDBRANCH   4  25
TORSDOF 8
ENDMDL
MODEL 8
REMARK VINA RESULT:      -6.3      2.897      4.806
REMARK  Name = 
REMARK  11 active torsions:
REMARK  status: ('A' for Active; 'I' for Inactive)
REMARK    1  A    between atoms: C_1  and  C_2
REMARK    2  A    between atoms: C_2  and  N_3
REMARK    3  A    between atoms: N_3  and  C_4
REMARK    4  A    between atoms: N_3  and  C_6
REMARK    5  A    between atoms: C_4  and  C_5
REMARK    6  A    between atoms: C_6  and  C_7
REMARK    7  A    between atoms: C_7  and  N_8
REMARK    8  A    between atoms: N_8  and  C_9
REMARK    9  A    between atoms: C_12  and  C_13
REMARK   10  A    between atoms: C_13  and  S_14
REMARK   11  A    between atoms: S_14  and  C_15
REMARK                            x       y       z     vdW  Elec       q    Type
REMARK                         _______ _______ _______ _____ _____    ______ ____
ROOT
ATOM      1  C   UNL     1       3.027   5.447  20.299  0.00  0.00    +0.000 A 
ATOM      2  C   UNL     1       4.075   4.743  19.688  0.00  0.00    +0.000 A 
ATOM      3  C   UNL     1       4.773   5.266  18.606  0.00  0.00    +0.000 A 
ATOM      4  C   UNL     1       4.388   6.476  18.019  0.00  0.00    +0.000 A 
ATOM      5  C   UNL     1       3.241   7.141  18.525  0.00  0.00    +0.000 A 
ATOM      6  S   UNL     1       2.555   8.461  17.540  0.00  0.00    +0.000 S 
ATOM      7  C   UNL     1       1.530   9.337  18.665  0.00  0.00    +0.000 A 
ATOM      8  C   UNL     1       1.102  10.615  18.265  0.00  0.00    +0.000 A 
ATOM      9  C   UNL     1       0.247  11.371  19.066  0.00  0.00    +0.000 A 
ATOM     10  C   UNL     1      -0.201  10.847  20.274  0.00  0.00    +0.000 A 
ATOM     11  C   UNL     1       0.230   9.584  20.680  0.00  0.00    +0.000 A 
ATOM     12  C   UNL     1       1.108   8.822  19.886  0.00  0.00    +0.000 A 
ATOM     13  C   UNL     1       1.572   7.509  20.399  0.00  0.00    +0.000 A 
ATOM     14  O   UNL     1       1.132   7.155  21.496  0.00  0.00    +0.000 OA
ATOM     15  C   UNL     1       2.611   6.676  19.705  0.00  0.00    +0.000 A 
ENDROOT
BRANCH   1  16
ATOM     16  N   UNL     1       2.342   4.857  21.382  0.00  0.00    +0.000 N 
ATOM     17  H   UNL     1       2.864   4.958  22.265  0.00  0.00    +0.000 HD
BRANCH  16  18
ATOM     18  C   UNL     1       1.755   3.528  21.201  0.00  0.00    +0.000 C 
BRANCH  18  19
ATOM     19  C   UNL     1       0.936   3.397  19.894  0.00  0.00    +0.000 C 
BRANCH  19  20
ATOM     20  N   UNL     1       1.420   2.452  18.866  0.00  0.00    +0.000 NA
BRANCH  20  22
ATOM     21  C   UNL     1       1.120   4.478  17.395  0.00  0.00    +0.000 C 
ATOM     22  C   UNL     1       1.806   3.133  17.622  0.00  0.00    +0.000 C 
ENDBRANCH  20  22
BRANCH  20  23
ATOM     23  C   UNL     1       2.449   1.553  19.414  0.00  0.00    +0.000 C 
ATOM     24  C   UNL     1       3.675   1.312  18.536  0.00  0.00    +0.000 C 
ENDBRANCH  20  23
ENDBRANCH  19  20
ENDBRANCH  18  19
ENDBRANCH  16  18
ENDBRANCH   1  16
BRANCH   4  25
ATOM     25  C   UNL     1       5.198   6.946  16.824  0.00  0.00    +0.000 C 
BRANCH  25  26
ATOM     26  S   UNL     1       6.945   6.422  16.768  0.00  0.00    +0.000 S 
ATOM     27  C   UNL     1       7.735   7.763  17.684  0.00  0.00    +0.000 C 
ENDBRANCH  25  26
ENDBRANCH   4  25
TORSDOF 8
ENDMDL
MODEL 9
REMARK VINA RESULT:      -6.3      2.602      6.950
REMARK  Name = 
REMARK  11 active torsions:
REMARK  status: ('A' for Active; 'I' for Inactive)
REMARK    1  A    between atoms: C_1  and  C_2
REMARK    2  A    between atoms: C_2  and  N_3
REMARK    3  A    between atoms: N_3  and  C_4
REMARK    4  A    between atoms: N_3  and  C_6
REMARK    5  A    between atoms: C_4  and  C_5
REMARK    6  A    between atoms: C_6  and  C_7
REMARK    7  A    between atoms: C_7  and  N_8
REMARK    8  A    between atoms: N_8  and  C_9
REMARK    9  A    between atoms: C_12  and  C_13
REMARK   10  A    between atoms: C_13  and  S_14
REMARK   11  A    between atoms: S_14  and  C_15
REMARK                            x       y       z     vdW  Elec       q    Type
REMARK                         _______ _______ _______ _____ _____    ______ ____
ROOT
ATOM      1  C   UNL     1       3.730   7.331  17.573  0.00  0.00    +0.000 A 
ATOM      2  C   UNL     1       4.436   7.476  16.369  0.00  0.00    +0.000 A 
ATOM      3  C   UNL     1       5.054   6.396  15.750  0.00  0.00    +0.000 A 
ATOM      4  C   UNL     1       5.081   5.137  16.361  0.00  0.00    +0.000 A 
ATOM      5  C   UNL     1       4.499   4.994  17.647  0.00  0.00    +0.000 A 
ATOM      6  S   UNL     1       4.870   3.503  18.556  0.00  0.00    +0.000 S 
ATOM      7  C   UNL     1       3.630   3.448  19.798  0.00  0.00    +0.000 A 
ATOM      8  C   UNL     1       3.467   2.226  20.473  0.00  0.00    +0.000 A 
ATOM      9  C   UNL     1       2.543   2.093  21.509  0.00  0.00    +0.000 A 
ATOM     10  C   UNL     1       1.779   3.190  21.889  0.00  0.00    +0.000 A 
ATOM     11  C   UNL     1       1.929   4.403  21.214  0.00  0.00    +0.000 A 
ATOM     12  C   UNL     1       2.846   4.540  20.155  0.00  0.00    +0.000 A 
ATOM     13  C   UNL     1       2.921   5.840  19.443  0.00  0.00    +0.000 A 
ATOM     14  O   UNL     1       2.176   6.737  19.847  0.00  0.00    +0.000 OA
ATOM     15  C   UNL     1       3.759   6.058  18.216  0.00  0.00    +0.000 A 
ENDROOT
BRANCH   1  16
ATOM     16  N   UNL     1       3.140   8.468  18.164  0.00  0.00    +0.000 N 
ATOM     17  H   UNL     1       3.161   8.418  19.194  0.00  0.00    +0.000 HD
BRANCH  16  18
ATOM     18  C   UNL     1       1.867   8.957  17.630  0.00  0.00    +0.000 C 
BRANCH  18  19
ATOM     19  C   UNL     1       1.552  10.414  18.046  0.00  0.00    +0.000 C 
BRANCH  19  20
ATOM     20  N   UNL     1       0.443  10.638  18.997  0.00  0.00    +0.000 NA
BRANCH  20  22
ATOM     21  C   UNL     1      -1.727  11.093  17.796  0.00  0.00    +0.000 C 
ATOM     22  C   UNL     1      -0.829  10.085  18.510  0.00  0.00    +0.000 C 
ENDBRANCH  20  22
BRANCH  20  23
ATOM     23  C   UNL     1       0.815  10.207  20.356  0.00  0.00    +0.000 C 
ATOM     24  C   UNL     1      -0.137   9.228  21.040  0.00  0.00    +0.000 C 
ENDBRANCH  20  23
ENDBRANCH  19  20
ENDBRANCH  18  19
ENDBRANCH  16  18
ENDBRANCH   1  16
BRANCH   4  25
ATOM     25  C   UNL     1       5.806   4.030  15.616  0.00  0.00    +0.000 C 
BRANCH  25  26
ATOM     26  S   UNL     1       6.834   4.541  14.197  0.00  0.00    +0.000 S 
ATOM     27  C   UNL     1       6.111   3.546  12.874  0.00  0.00    +0.000 C 
ENDBRANCH  25  26
ENDBRANCH   4  25
TORSDOF 8
ENDMDL
