MODEL 1
REMARK VINA RESULT:      -7.5      0.000      0.000
REMARK  Name = 
REMARK  9 active torsions:
REMARK  status: ('A' for Active; 'I' for Inactive)
REMARK    1  A    between atoms: C_1  and  C_2
REMARK    2  A    between atoms: C_2  and  O_3
REMARK    3  A    between atoms: O_3  and  C_4
REMARK    4  A    between atoms: C_4  and  C_6
REMARK    5  A    between atoms: C_8  and  C_9
REMARK    6  A    between atoms: N_18  and  C_19
REMARK    7  A    between atoms: C_20  and  C_21
REMARK    8  A    between atoms: C_24  and  C_25
REMARK    9  A    between atoms: C_29  and  C_30
REMARK                            x       y       z     vdW  Elec       q    Type
REMARK                         _______ _______ _______ _____ _____    ______ ____
ROOT
ATOM      1  C   UNL     1      -2.757  12.273  20.324  0.00  0.00    +0.000 A 
ATOM      2  C   UNL     1      -2.658  11.644  19.079  0.00  0.00    +0.000 A 
ATOM      3  C   UNL     1      -1.559  10.840  18.776  0.00  0.00    +0.000 A 
ATOM      4  C   UNL     1      -0.543  10.670  19.719  0.00  0.00    +0.000 A 
ATOM      5  N   UNL     1       0.563   9.884  19.482  0.00  0.00    +0.000 N 
ATOM      6  C   UNL     1       1.262   9.205  20.585  0.00  0.00    +0.000 C 
ATOM      7  C   UNL     1       1.634   7.776  20.115  0.00  0.00    +0.000 C 
ATOM      8  N   UNL     1       2.361   7.785  18.829  0.00  0.00    +0.000 N 
ATOM      9  C   UNL     1       3.385   6.869  18.643  0.00  0.00    +0.000 C 
ATOM     10  O   UNL     1       3.655   6.023  19.494  0.00  0.00    +0.000 OA
ATOM     11  N   UNL     1       4.119   7.048  17.489  0.00  0.00    +0.000 N 
ATOM     12  C   UNL     1       1.696   8.556  17.763  0.00  0.00    +0.000 C 
ATOM     13  C   UNL     1       1.373   9.982  18.254  0.00  0.00    +0.000 C 
ATOM     14  N   UNL     1      -0.666  11.249  20.943  0.00  0.00    +0.000 NA
ATOM     15  C   UNL     1      -1.752  12.051  21.258  0.00  0.00    +0.000 A 
ATOM     16  H   UNL     1       4.234   8.016  17.235  0.00  0.00    +0.000 HD
ENDROOT
BRANCH  11  17
ATOM     17  C   UNL     1       5.217   6.235  17.216  0.00  0.00    +0.000 A 
ATOM     18  C   UNL     1       5.308   4.850  16.903  0.00  0.00    +0.000 A 
ATOM     19  C   UNL     1       4.244   3.841  16.697  0.00  0.00    +0.000 C 
ATOM     20  N   UNL     1       6.584   4.482  16.714  0.00  0.00    +0.000 NA
ATOM     21  O   UNL     1       7.341   5.615  16.924  0.00  0.00    +0.000 OA
ATOM     22  C   UNL     1       6.526   6.661  17.219  0.00  0.00    +0.000 A 
ATOM     23  C   UNL     1       7.203   7.925  17.559  0.00  0.00    +0.000 C 
ENDBRANCH  11  17
BRANCH  15  24
ATOM     24  C   UNL     1      -1.744  12.683  22.649  0.00  0.00    +0.000 C 
ATOM     25  F   UNL     1      -2.885  12.559  23.374  0.00  0.00    +0.000 F 
ATOM     26  F   UNL     1      -0.745  12.193  23.436  0.00  0.00    +0.000 F 
ATOM     27  F   UNL     1      -1.534  14.032  22.585  0.00  0.00    +0.000 F 
ENDBRANCH  15  24
BRANCH   1  28
ATOM     28  C   UNL     1      -3.967  13.085  20.553  0.00  0.00    +0.000 C 
ATOM     29  O   UNL     1      -3.993  14.298  20.534  0.00  0.00    +0.000 OA
BRANCH  28  30
ATOM     30  O   UNL     1      -4.983  12.234  20.819  0.00  0.00    +0.000 OA
BRANCH  30  32
ATOM     31  C   UNL     1      -6.973  11.070  20.174  0.00  0.00    +0.000 C 
ATOM     32  C   UNL     1      -6.132  12.311  19.957  0.00  0.00    +0.000 C 
ENDBRANCH  30  32
ENDBRANCH  28  30
ENDBRANCH   1  28
BRANCH   3  33
ATOM     33  C   UNL     1      -1.577  10.158  17.523  0.00  0.00    +0.000 C 
ATOM     34  N   UNL     1      -1.624   9.599  16.504  0.00  0.00    +0.000 NA
ENDBRANCH   3  33
TORSDOF 6
ENDMDL
MODEL 2
REMARK VINA RESULT:      -7.4      0.409      1.429
REMARK  Name = 
REMARK  9 active torsions:
REMARK  status: ('A' for Active; 'I' for Inactive)
REMARK    1  A    between atoms: C_1  and  C_2
REMARK    2  A    between atoms: C_2  and  O_3
REMARK    3  A    between atoms: O_3  and  C_4
REMARK    4  A    between atoms: C_4  and  C_6
REMARK    5  A    between atoms: C_8  and  C_9
REMARK    6  A    between atoms: N_18  and  C_19
REMARK    7  A    between atoms: C_20  and  C_21
REMARK    8  A    between atoms: C_24  and  C_25
REMARK    9  A    between atoms: C_29  and  C_30
REMARK                            x       y       z     vdW  Elec       q    Type
REMARK                         _______ _______ _______ _____ _____    ______ ____
ROOT
ATOM      1  C   UNL     1      -2.863  12.252  20.413  0.00  0.00    +0.000 A 
ATOM      2  C   UNL     1      -2.763  11.626  19.167  0.00  0.00    +0.000 A 
ATOM      3  C   UNL     1      -1.655  10.836  18.856  0.00  0.00    +0.000 A 
ATOM      4  C   UNL     1      -0.630  10.681  19.793  0.00  0.00    +0.000 A 
ATOM      5  N   UNL     1       0.485   9.910  19.547  0.00  0.00    +0.000 N 
ATOM      6  C   UNL     1       1.201   9.241  20.646  0.00  0.00    +0.000 C 
ATOM      7  C   UNL     1       1.589   7.817  20.173  0.00  0.00    +0.000 C 
ATOM      8  N   UNL     1       2.308   7.837  18.882  0.00  0.00    +0.000 N 
ATOM      9  C   UNL     1       3.343   6.936  18.689  0.00  0.00    +0.000 C 
ATOM     10  O   UNL     1       3.630   6.093  19.538  0.00  0.00    +0.000 OA
ATOM     11  N   UNL     1       4.066   7.125  17.529  0.00  0.00    +0.000 N 
ATOM     12  C   UNL     1       1.624   8.599  17.821  0.00  0.00    +0.000 C 
ATOM     13  C   UNL     1       1.285  10.020  18.314  0.00  0.00    +0.000 C 
ATOM     14  N   UNL     1      -0.753  11.258  21.018  0.00  0.00    +0.000 NA
ATOM     15  C   UNL     1      -1.848  12.044  21.340  0.00  0.00    +0.000 A 
ATOM     16  H   UNL     1       4.166   8.094  17.275  0.00  0.00    +0.000 HD
ENDROOT
BRANCH  11  17
ATOM     17  C   UNL     1       5.173   6.327  17.248  0.00  0.00    +0.000 A 
ATOM     18  C   UNL     1       6.564   6.627  17.205  0.00  0.00    +0.000 A 
ATOM     19  C   UNL     1       7.284   7.881  17.519  0.00  0.00    +0.000 C 
ATOM     20  N   UNL     1       7.280   5.539  16.886  0.00  0.00    +0.000 NA
ATOM     21  O   UNL     1       6.367   4.524  16.694  0.00  0.00    +0.000 OA
ATOM     22  C   UNL     1       5.111   4.993  16.914  0.00  0.00    +0.000 A 
ATOM     23  C   UNL     1       4.017   4.039  16.658  0.00  0.00    +0.000 C 
ENDBRANCH  11  17
BRANCH  15  24
ATOM     24  C   UNL     1      -1.840  12.676  22.731  0.00  0.00    +0.000 C 
ATOM     25  F   UNL     1      -2.901  12.391  23.529  0.00  0.00    +0.000 F 
ATOM     26  F   UNL     1      -0.730  12.338  23.447  0.00  0.00    +0.000 F 
ATOM     27  F   UNL     1      -1.831  14.041  22.661  0.00  0.00    +0.000 F 
ENDBRANCH  15  24
BRANCH   1  28
ATOM     28  C   UNL     1      -4.082  13.047  20.651  0.00  0.00    +0.000 C 
ATOM     29  O   UNL     1      -4.178  14.239  20.439  0.00  0.00    +0.000 OA
BRANCH  28  30
ATOM     30  O   UNL     1      -5.014  12.217  21.169  0.00  0.00    +0.000 OA
BRANCH  30  32
ATOM     31  C   UNL     1      -6.767  11.315  19.812  0.00  0.00    +0.000 C 
ATOM     32  C   UNL     1      -6.374  12.433  20.755  0.00  0.00    +0.000 C 
ENDBRANCH  30  32
ENDBRANCH  28  30
ENDBRANCH   1  28
BRANCH   3  33
ATOM     33  C   UNL     1      -1.673  10.154  17.603  0.00  0.00    +0.000 C 
ATOM     34  N   UNL     1      -1.676   9.625  16.568  0.00  0.00    +0.000 NA
ENDBRANCH   3  33
TORSDOF 6
ENDMDL
MODEL 3
REMARK VINA RESULT:      -7.1      0.764      1.462
REMARK  Name = 
REMARK  9 active torsions:
REMARK  status: ('A' for Active; 'I' for Inactive)
REMARK    1  A    between atoms: C_1  and  C_2
REMARK    2  A    between atoms: C_2  and  O_3
REMARK    3  A    between atoms: O_3  and  C_4
REMARK    4  A    between atoms: C_4  and  C_6
REMARK    5  A    between atoms: C_8  and  C_9
REMARK    6  A    between atoms: N_18  and  C_19
REMARK    7  A    between atoms: C_20  and  C_21
REMARK    8  A    between atoms: C_24  and  C_25
REMARK    9  A    between atoms: C_29  and  C_30
REMARK                            x       y       z     vdW  Elec       q    Type
REMARK                         _______ _______ _______ _____ _____    ______ ____
ROOT
ATOM      1  C   UNL     1      -2.737  12.219  20.354  0.00  0.00    +0.000 A 
ATOM      2  C   UNL     1      -2.634  11.603  19.103  0.00  0.00    +0.000 A 
ATOM      3  C   UNL     1      -1.534  10.803  18.794  0.00  0.00    +0.000 A 
ATOM      4  C   UNL     1      -0.519  10.625  19.738  0.00  0.00    +0.000 A 
ATOM      5  N   UNL     1       0.588   9.843  19.494  0.00  0.00    +0.000 N 
ATOM      6  C   UNL     1       1.286   9.153  20.592  0.00  0.00    +0.000 C 
ATOM      7  C   UNL     1       1.660   7.729  20.109  0.00  0.00    +0.000 C 
ATOM      8  N   UNL     1       2.390   7.752  18.824  0.00  0.00    +0.000 N 
ATOM      9  C   UNL     1       3.415   6.840  18.631  0.00  0.00    +0.000 C 
ATOM     10  O   UNL     1       3.684   5.985  19.474  0.00  0.00    +0.000 OA
ATOM     11  N   UNL     1       4.151   7.031  17.480  0.00  0.00    +0.000 N 
ATOM     12  C   UNL     1       1.725   8.533  17.765  0.00  0.00    +0.000 C 
ATOM     13  C   UNL     1       1.400   9.954  18.269  0.00  0.00    +0.000 C 
ATOM     14  N   UNL     1      -0.645  11.192  20.967  0.00  0.00    +0.000 NA
ATOM     15  C   UNL     1      -1.733  11.989  21.288  0.00  0.00    +0.000 A 
ATOM     16  H   UNL     1       4.265   8.001  17.236  0.00  0.00    +0.000 HD
ENDROOT
BRANCH  11  17
ATOM     17  C   UNL     1       5.250   6.222  17.200  0.00  0.00    +0.000 A 
ATOM     18  C   UNL     1       5.344   4.838  16.882  0.00  0.00    +0.000 A 
ATOM     19  C   UNL     1       4.282   3.828  16.675  0.00  0.00    +0.000 C 
ATOM     20  N   UNL     1       6.621   4.475  16.688  0.00  0.00    +0.000 NA
ATOM     21  O   UNL     1       7.375   5.609  16.900  0.00  0.00    +0.000 OA
ATOM     22  C   UNL     1       6.558   6.652  17.201  0.00  0.00    +0.000 A 
ATOM     23  C   UNL     1       7.232   7.916  17.544  0.00  0.00    +0.000 C 
ENDBRANCH  11  17
BRANCH  15  24
ATOM     24  C   UNL     1      -1.729  12.607  22.685  0.00  0.00    +0.000 C 
ATOM     25  F   UNL     1      -1.473  13.939  22.754  0.00  0.00    +0.000 F 
ATOM     26  F   UNL     1      -2.910  12.418  23.340  0.00  0.00    +0.000 F 
ATOM     27  F   UNL     1      -0.772  12.041  23.481  0.00  0.00    +0.000 F 
ENDBRANCH  15  24
BRANCH   1  28
ATOM     28  C   UNL     1      -3.948  13.027  20.590  0.00  0.00    +0.000 C 
ATOM     29  O   UNL     1      -5.055  12.567  20.778  0.00  0.00    +0.000 OA
BRANCH  28  30
ATOM     30  O   UNL     1      -3.589  14.328  20.514  0.00  0.00    +0.000 OA
BRANCH  30  32
ATOM     31  C   UNL     1      -4.273  15.645  22.392  0.00  0.00    +0.000 C 
ATOM     32  C   UNL     1      -4.563  15.294  20.948  0.00  0.00    +0.000 C 
ENDBRANCH  30  32
ENDBRANCH  28  30
ENDBRANCH   1  28
BRANCH   3  33
ATOM     33  C   UNL     1      -1.550  10.133  17.534  0.00  0.00    +0.000 C 
ATOM     34  N   UNL     1      -1.548   9.613  16.494  0.00  0.00    +0.000 NA
ENDBRANCH   3  33
TORSDOF 6
ENDMDL
MODEL 4
REMARK VINA RESULT:      -7.1      3.692     10.069
REMARK  Name = 
REMARK  9 active torsions:
REMARK  status: ('A' for Active; 'I' for Inactive)
REMARK    1  A    between atoms: C_1  and  C_2
REMARK    2  A    between atoms: C_2  and  O_3
REMARK    3  A    between atoms: O_3  and  C_4
REMARK    4  A    between atoms: C_4  and  C_6
REMARK    5  A    between atoms: C_8  and  C_9
REMARK    6  A    between atoms: N_18  and  C_19
REMARK    7  A    between atoms: C_20  and  C_21
REMARK    8  A    between atoms: C_24  and  C_25
REMARK    9  A    between atoms: C_29  and  C_30
REMARK                            x       y       z     vdW  Elec       q    Type
REMARK                         _______ _______ _______ _____ _____    ______ ____
ROOT
ATOM      1  C   UNL     1       3.179   6.341  18.422  0.00  0.00    +0.000 A 
ATOM      2  C   UNL     1       3.090   7.628  17.883  0.00  0.00    +0.000 A 
ATOM      3  C   UNL     1       2.259   8.586  18.465  0.00  0.00    +0.000 A 
ATOM      4  C   UNL     1       1.498   8.252  19.588  0.00  0.00    +0.000 A 
ATOM      5  N   UNL     1       0.664   9.155  20.211  0.00  0.00    +0.000 N 
ATOM      6  C   UNL     1       0.382   9.058  21.652  0.00  0.00    +0.000 C 
ATOM      7  C   UNL     1       0.400  10.489  22.247  0.00  0.00    +0.000 C 
ATOM      8  N   UNL     1      -0.480  11.411  21.501  0.00  0.00    +0.000 N 
ATOM      9  C   UNL     1      -1.189  12.367  22.212  0.00  0.00    +0.000 C 
ATOM     10  O   UNL     1      -1.055  12.496  23.428  0.00  0.00    +0.000 OA
ATOM     11  N   UNL     1      -2.108  13.079  21.468  0.00  0.00    +0.000 N 
ATOM     12  C   UNL     1      -0.251  11.421  20.044  0.00  0.00    +0.000 C 
ATOM     13  C   UNL     1      -0.312   9.986  19.483  0.00  0.00    +0.000 C 
ATOM     14  N   UNL     1       1.620   7.013  20.132  0.00  0.00    +0.000 NA
ATOM     15  C   UNL     1       2.442   6.052  19.565  0.00  0.00    +0.000 A 
ATOM     16  H   UNL     1      -2.550  12.530  20.749  0.00  0.00    +0.000 HD
ENDROOT
BRANCH  11  17
ATOM     17  C   UNL     1      -2.931  14.024  22.077  0.00  0.00    +0.000 A 
ATOM     18  C   UNL     1      -4.281  13.951  22.520  0.00  0.00    +0.000 A 
ATOM     19  C   UNL     1      -5.224  12.810  22.536  0.00  0.00    +0.000 C 
ATOM     20  N   UNL     1      -4.675  15.116  23.054  0.00  0.00    +0.000 NA
ATOM     21  O   UNL     1      -3.598  15.969  22.946  0.00  0.00    +0.000 OA
ATOM     22  C   UNL     1      -2.556  15.317  22.367  0.00  0.00    +0.000 A 
ATOM     23  C   UNL     1      -1.357  16.131  22.102  0.00  0.00    +0.000 C 
ENDBRANCH  11  17
BRANCH  15  24
ATOM     24  C   UNL     1       2.450   4.683  20.244  0.00  0.00    +0.000 C 
ATOM     25  F   UNL     1       3.626   4.005  20.220  0.00  0.00    +0.000 F 
ATOM     26  F   UNL     1       2.086   4.754  21.556  0.00  0.00    +0.000 F 
ATOM     27  F   UNL     1       1.559   3.828  19.660  0.00  0.00    +0.000 F 
ENDBRANCH  15  24
BRANCH   1  28
ATOM     28  C   UNL     1       4.100   5.409  17.746  0.00  0.00    +0.000 C 
ATOM     29  O   UNL     1       3.749   4.483  17.045  0.00  0.00    +0.000 OA
BRANCH  28  30
ATOM     30  O   UNL     1       5.359   5.762  18.090  0.00  0.00    +0.000 OA
BRANCH  30  32
ATOM     31  C   UNL     1       7.275   4.669  17.159  0.00  0.00    +0.000 C 
ATOM     32  C   UNL     1       6.293   4.691  18.312  0.00  0.00    +0.000 C 
ENDBRANCH  30  32
ENDBRANCH  28  30
ENDBRANCH   1  28
BRANCH   3  33
ATOM     33  C   UNL     1       2.297   9.902  17.915  0.00  0.00    +0.000 C 
ATOM     34  N   UNL     1       2.359  10.976  17.473  0.00  0.00    +0.000 NA
ENDBRANCH   3  33
TORSDOF 6
ENDMDL
MODEL 5
REMARK VINA RESULT:      -7.1      3.591     10.164
REMARK  Name = 
REMARK  9 active torsions:
REMARK  status: ('A' for Active; 'I' for Inactive)
REMARK    1  A    between atoms: C_1  and  C_2
REMARK    2  A    between atoms: C_2  and  O_3
REMARK    3  A    between atoms: O_3  and  C_4
REMARK    4  A    between atoms: C_4  and  C_6
REMARK    5  A    between atoms: C_8  and  C_9
REMARK    6  A    between atoms: N_18  and  C_19
REMARK    7  A    between atoms: C_20  and  C_21
REMARK    8  A    between atoms: C_24  and  C_25
REMARK    9  A    between atoms: C_29  and  C_30
REMARK                            x       y       z     vdW  Elec       q    Type
REMARK                         _______ _______ _______ _____ _____    ______ ____
ROOT
ATOM      1  C   UNL     1       3.253   6.469  18.373  0.00  0.00    +0.000 A 
ATOM      2  C   UNL     1       3.140   7.768  17.866  0.00  0.00    +0.000 A 
ATOM      3  C   UNL     1       2.278   8.689  18.461  0.00  0.00    +0.000 A 
ATOM      4  C   UNL     1       1.510   8.308  19.564  0.00  0.00    +0.000 A 
ATOM      5  N   UNL     1       0.646   9.174  20.198  0.00  0.00    +0.000 N 
ATOM      6  C   UNL     1       0.347   9.032  21.632  0.00  0.00    +0.000 C 
ATOM      7  C   UNL     1       0.322  10.447  22.264  0.00  0.00    +0.000 C 
ATOM      8  N   UNL     1      -0.570  11.368  21.529  0.00  0.00    +0.000 N 
ATOM      9  C   UNL     1      -1.312  12.287  22.255  0.00  0.00    +0.000 C 
ATOM     10  O   UNL     1      -1.197  12.387  23.476  0.00  0.00    +0.000 OA
ATOM     11  N   UNL     1      -2.238  12.995  21.517  0.00  0.00    +0.000 N 
ATOM     12  C   UNL     1      -0.322  11.420  20.077  0.00  0.00    +0.000 C 
ATOM     13  C   UNL     1      -0.340  10.000  19.478  0.00  0.00    +0.000 C 
ATOM     14  N   UNL     1       1.656   7.058  20.078  0.00  0.00    +0.000 NA
ATOM     15  C   UNL     1       2.509   6.133  19.498  0.00  0.00    +0.000 A 
ATOM     16  H   UNL     1      -2.657  12.454  20.778  0.00  0.00    +0.000 HD
ENDROOT
BRANCH  11  17
ATOM     17  C   UNL     1      -3.092  13.904  22.138  0.00  0.00    +0.000 A 
ATOM     18  C   UNL     1      -2.836  15.138  22.797  0.00  0.00    +0.000 A 
ATOM     19  C   UNL     1      -1.571  15.889  22.968  0.00  0.00    +0.000 C 
ATOM     20  N   UNL     1      -3.972  15.685  23.254  0.00  0.00    +0.000 NA
ATOM     21  O   UNL     1      -4.979  14.804  22.921  0.00  0.00    +0.000 OA
ATOM     22  C   UNL     1      -4.455  13.744  22.252  0.00  0.00    +0.000 A 
ATOM     23  C   UNL     1      -5.404  12.670  21.908  0.00  0.00    +0.000 C 
ENDBRANCH  11  17
BRANCH  15  24
ATOM     24  C   UNL     1       2.542   4.747  20.142  0.00  0.00    +0.000 C 
ATOM     25  F   UNL     1       3.749   4.128  20.177  0.00  0.00    +0.000 F 
ATOM     26  F   UNL     1       2.091   4.763  21.428  0.00  0.00    +0.000 F 
ATOM     27  F   UNL     1       1.733   3.867  19.479  0.00  0.00    +0.000 F 
ENDBRANCH  15  24
BRANCH   1  28
ATOM     28  C   UNL     1       4.206   5.578  17.686  0.00  0.00    +0.000 C 
ATOM     29  O   UNL     1       3.890   4.607  17.031  0.00  0.00    +0.000 OA
BRANCH  28  30
ATOM     30  O   UNL     1       5.452   6.026  17.961  0.00  0.00    +0.000 OA
BRANCH  30  32
ATOM     31  C   UNL     1       7.572   5.774  19.042  0.00  0.00    +0.000 C 
ATOM     32  C   UNL     1       6.409   5.047  18.400  0.00  0.00    +0.000 C 
ENDBRANCH  30  32
ENDBRANCH  28  30
ENDBRANCH   1  28
BRANCH   3  33
ATOM     33  C   UNL     1       2.291  10.020  17.945  0.00  0.00    +0.000 C 
ATOM     34  N   UNL     1       2.332  11.099  17.516  0.00  0.00    +0.000 NA
ENDBRANCH   3  33
TORSDOF 6
ENDMDL
MODEL 6
REMARK VINA RESULT:      -7.0      0.853      2.001
REMARK  Name = 
REMARK  9 active torsions:
REMARK  status: ('A' for Active; 'I' for Inactive)
REMARK    1  A    between atoms: C_1  and  C_2
REMARK    2  A    between atoms: C_2  and  O_3
REMARK    3  A    between atoms: O_3  and  C_4
REMARK    4  A    between atoms: C_4  and  C_6
REMARK    5  A    between atoms: C_8  and  C_9
REMARK    6  A    between atoms: N_18  and  C_19
REMARK    7  A    between atoms: C_20  and  C_21
REMARK    8  A    between atoms: C_24  and  C_25
REMARK    9  A    between atoms: C_29  and  C_30
REMARK                            x       y       z     vdW  Elec       q    Type
REMARK                         _______ _______ _______ _____ _____    ______ ____
ROOT
ATOM      1  C   UNL     1      -2.712  12.222  20.415  0.00  0.00    +0.000 A 
ATOM      2  C   UNL     1      -2.608  11.613  19.161  0.00  0.00    +0.000 A 
ATOM      3  C   UNL     1      -1.512  10.806  18.852  0.00  0.00    +0.000 A 
ATOM      4  C   UNL     1      -0.503  10.615  19.800  0.00  0.00    +0.000 A 
ATOM      5  N   UNL     1       0.599   9.825  19.557  0.00  0.00    +0.000 N 
ATOM      6  C   UNL     1       1.286   9.124  20.654  0.00  0.00    +0.000 C 
ATOM      7  C   UNL     1       1.652   7.700  20.163  0.00  0.00    +0.000 C 
ATOM      8  N   UNL     1       2.388   7.725  18.883  0.00  0.00    +0.000 N 
ATOM      9  C   UNL     1       3.406   6.806  18.688  0.00  0.00    +0.000 C 
ATOM     10  O   UNL     1       3.665   5.944  19.527  0.00  0.00    +0.000 OA
ATOM     11  N   UNL     1       4.150   6.999  17.542  0.00  0.00    +0.000 N 
ATOM     12  C   UNL     1       1.734   8.518  17.825  0.00  0.00    +0.000 C 
ATOM     13  C   UNL     1       1.418   9.938  18.336  0.00  0.00    +0.000 C 
ATOM     14  N   UNL     1      -0.631  11.175  21.032  0.00  0.00    +0.000 NA
ATOM     15  C   UNL     1      -1.714  11.978  21.352  0.00  0.00    +0.000 A 
ATOM     16  H   UNL     1       4.272   7.969  17.305  0.00  0.00    +0.000 HD
ENDROOT
BRANCH  11  17
ATOM     17  C   UNL     1       5.244   6.182  17.263  0.00  0.00    +0.000 A 
ATOM     18  C   UNL     1       6.638   6.460  17.216  0.00  0.00    +0.000 A 
ATOM     19  C   UNL     1       7.379   7.705  17.523  0.00  0.00    +0.000 C 
ATOM     20  N   UNL     1       7.338   5.360  16.901  0.00  0.00    +0.000 NA
ATOM     21  O   UNL     1       6.409   4.359  16.715  0.00  0.00    +0.000 OA
ATOM     22  C   UNL     1       5.161   4.847  16.936  0.00  0.00    +0.000 A 
ATOM     23  C   UNL     1       4.051   3.910  16.686  0.00  0.00    +0.000 C 
ENDBRANCH  11  17
BRANCH  15  24
ATOM     24  C   UNL     1      -1.712  12.588  22.753  0.00  0.00    +0.000 C 
ATOM     25  F   UNL     1      -2.881  12.526  23.440  0.00  0.00    +0.000 F 
ATOM     26  F   UNL     1      -0.771  12.023  23.563  0.00  0.00    +0.000 F 
ATOM     27  F   UNL     1      -1.414  13.921  22.720  0.00  0.00    +0.000 F 
ENDBRANCH  15  24
BRANCH   1  28
ATOM     28  C   UNL     1      -3.917  13.038  20.650  0.00  0.00    +0.000 C 
ATOM     29  O   UNL     1      -5.010  12.586  20.924  0.00  0.00    +0.000 OA
BRANCH  28  30
ATOM     30  O   UNL     1      -3.575  14.332  20.463  0.00  0.00    +0.000 OA
BRANCH  30  32
ATOM     31  C   UNL     1      -3.766  16.673  20.923  0.00  0.00    +0.000 C 
ATOM     32  C   UNL     1      -4.433  15.321  21.059  0.00  0.00    +0.000 C 
ENDBRANCH  30  32
ENDBRANCH  28  30
ENDBRANCH   1  28
BRANCH   3  33
ATOM     33  C   UNL     1      -1.526  10.145  17.588  0.00  0.00    +0.000 C 
ATOM     34  N   UNL     1      -1.568   9.596  16.564  0.00  0.00    +0.000 NA
ENDBRANCH   3  33
TORSDOF 6
ENDMDL
MODEL 7
REMARK VINA RESULT:      -6.9      1.014      1.767
REMARK  Name = 
REMARK  9 active torsions:
REMARK  status: ('A' for Active; 'I' for Inactive)
REMARK    1  A    between atoms: C_1  and  C_2
REMARK    2  A    between atoms: C_2  and  O_3
REMARK    3  A    between atoms: O_3  and  C_4
REMARK    4  A    between atoms: C_4  and  C_6
REMARK    5  A    between atoms: C_8  and  C_9
REMARK    6  A    between atoms: N_18  and  C_19
REMARK    7  A    between atoms: C_20  and  C_21
REMARK    8  A    between atoms: C_24  and  C_25
REMARK    9  A    between atoms: C_29  and  C_30
REMARK                            x       y       z     vdW  Elec       q    Type
REMARK                         _______ _______ _______ _____ _____    ______ ____
ROOT
ATOM      1  C   UNL     1      -2.608  12.623  20.582  0.00  0.00    +0.000 A 
ATOM      2  C   UNL     1      -2.604  11.934  19.365  0.00  0.00    +0.000 A 
ATOM      3  C   UNL     1      -1.558  11.067  19.044  0.00  0.00    +0.000 A 
ATOM      4  C   UNL     1      -0.500  10.896  19.940  0.00  0.00    +0.000 A 
ATOM      5  N   UNL     1       0.557  10.051  19.682  0.00  0.00    +0.000 N 
ATOM      6  C   UNL     1       1.286   9.393  20.779  0.00  0.00    +0.000 C 
ATOM      7  C   UNL     1       1.571   7.928  20.360  0.00  0.00    +0.000 C 
ATOM      8  N   UNL     1       2.226   7.846  19.038  0.00  0.00    +0.000 N 
ATOM      9  C   UNL     1       3.198   6.877  18.843  0.00  0.00    +0.000 C 
ATOM     10  O   UNL     1       3.478   6.060  19.719  0.00  0.00    +0.000 OA
ATOM     11  N   UNL     1       3.875   6.970  17.644  0.00  0.00    +0.000 N 
ATOM     12  C   UNL     1       1.536   8.596  17.973  0.00  0.00    +0.000 C 
ATOM     13  C   UNL     1       1.302  10.056  18.410  0.00  0.00    +0.000 C 
ATOM     14  N   UNL     1      -0.531  11.536  21.139  0.00  0.00    +0.000 NA
ATOM     15  C   UNL     1      -1.564  12.399  21.471  0.00  0.00    +0.000 A 
ATOM     16  H   UNL     1       4.016   7.919  17.338  0.00  0.00    +0.000 HD
ENDROOT
BRANCH  11  17
ATOM     17  C   UNL     1       4.920   6.096  17.353  0.00  0.00    +0.000 A 
ATOM     18  C   UNL     1       6.325   6.304  17.267  0.00  0.00    +0.000 A 
ATOM     19  C   UNL     1       7.133   7.516  17.535  0.00  0.00    +0.000 C 
ATOM     20  N   UNL     1       6.962   5.166  16.955  0.00  0.00    +0.000 NA
ATOM     21  O   UNL     1       5.981   4.209  16.809  0.00  0.00    +0.000 OA
ATOM     22  C   UNL     1       4.764   4.762  17.051  0.00  0.00    +0.000 A 
ATOM     23  C   UNL     1       3.604   3.876  16.844  0.00  0.00    +0.000 C 
ENDBRANCH  11  17
BRANCH  15  24
ATOM     24  C   UNL     1      -1.453  13.094  22.827  0.00  0.00    +0.000 C 
ATOM     25  F   UNL     1      -1.902  12.396  23.901  0.00  0.00    +0.000 F 
ATOM     26  F   UNL     1      -0.171  13.452  23.123  0.00  0.00    +0.000 F 
ATOM     27  F   UNL     1      -2.174  14.255  22.857  0.00  0.00    +0.000 F 
ENDBRANCH  15  24
BRANCH   1  28
ATOM     28  C   UNL     1      -3.768  13.498  20.835  0.00  0.00    +0.000 C 
ATOM     29  O   UNL     1      -3.832  14.665  20.509  0.00  0.00    +0.000 OA
BRANCH  28  30
ATOM     30  O   UNL     1      -4.685  12.772  21.512  0.00  0.00    +0.000 OA
BRANCH  30  32
ATOM     31  C   UNL     1      -5.113  12.872  23.865  0.00  0.00    +0.000 C 
ATOM     32  C   UNL     1      -5.449  13.466  22.513  0.00  0.00    +0.000 C 
ENDBRANCH  30  32
ENDBRANCH  28  30
ENDBRANCH   1  28
BRANCH   3  33
ATOM     33  C   UNL     1      -1.675  10.330  17.828  0.00  0.00    +0.000 C 
ATOM     34  N   UNL     1      -1.791   9.710  16.851  0.00  0.00    +0.000 NA
ENDBRANCH   3  33
TORSDOF 6
ENDMDL
MODEL 8
REMARK VINA RESULT:      -6.9      3.632     10.017
REMARK  Name = 
REMARK  9 active torsions:
REMARK  status: ('A' for Active; 'I' for Inactive)
REMARK    1  A    between atoms: C_1  and  C_2
REMARK    2  A    between atoms: C_2  and  O_3
REMARK    3  A    between atoms: O_3  and  C_4
REMARK    4  A    between atoms: C_4  and  C_6
REMARK    5  A    between atoms: C_8  and  C_9
REMARK    6  A    between atoms: N_18  and  C_19
REMARK    7  A    between atoms: C_20  and  C_21
REMARK    8  A    between atoms: C_24  and  C_25
REMARK    9  A    between atoms: C_29  and  C_30
REMARK                            x       y       z     vdW  Elec       q    Type
REMARK                         _______ _______ _______ _____ _____    ______ ____
ROOT
ATOM      1  C   UNL     1       3.129   6.416  18.580  0.00  0.00    +0.000 A 
ATOM      2  C   UNL     1       3.021   7.689  18.011  0.00  0.00    +0.000 A 
ATOM      3  C   UNL     1       2.178   8.649  18.572  0.00  0.00    +0.000 A 
ATOM      4  C   UNL     1       1.425   8.332  19.705  0.00  0.00    +0.000 A 
ATOM      5  N   UNL     1       0.580   9.238  20.308  0.00  0.00    +0.000 N 
ATOM      6  C   UNL     1       0.303   9.171  21.753  0.00  0.00    +0.000 C 
ATOM      7  C   UNL     1       0.303  10.616  22.313  0.00  0.00    +0.000 C 
ATOM      8  N   UNL     1      -0.591  11.509  21.547  0.00  0.00    +0.000 N 
ATOM      9  C   UNL     1      -1.312  12.471  22.237  0.00  0.00    +0.000 C 
ATOM     10  O   UNL     1      -1.176  12.631  23.449  0.00  0.00    +0.000 OA
ATOM     11  N   UNL     1      -2.242  13.152  21.479  0.00  0.00    +0.000 N 
ATOM     12  C   UNL     1      -0.367  11.486  20.090  0.00  0.00    +0.000 C 
ATOM     13  C   UNL     1      -0.409  10.037  19.564  0.00  0.00    +0.000 C 
ATOM     14  N   UNL     1       1.566   7.108  20.279  0.00  0.00    +0.000 NA
ATOM     15  C   UNL     1       2.400   6.145  19.732  0.00  0.00    +0.000 A 
ATOM     16  H   UNL     1      -2.679  12.580  20.775  0.00  0.00    +0.000 HD
ENDROOT
BRANCH  11  17
ATOM     17  C   UNL     1      -3.077  14.100  22.068  0.00  0.00    +0.000 A 
ATOM     18  C   UNL     1      -2.809  15.397  22.589  0.00  0.00    +0.000 A 
ATOM     19  C   UNL     1      -1.555  16.184  22.604  0.00  0.00    +0.000 C 
ATOM     20  N   UNL     1      -3.927  15.963  23.067  0.00  0.00    +0.000 NA
ATOM     21  O   UNL     1      -4.931  15.036  22.886  0.00  0.00    +0.000 OA
ATOM     22  C   UNL     1      -4.425  13.927  22.286  0.00  0.00    +0.000 A 
ATOM     23  C   UNL     1      -5.368  12.808  22.109  0.00  0.00    +0.000 C 
ENDBRANCH  11  17
BRANCH  15  24
ATOM     24  C   UNL     1       2.428   4.793  20.444  0.00  0.00    +0.000 C 
ATOM     25  F   UNL     1       3.576   4.077  20.332  0.00  0.00    +0.000 F 
ATOM     26  F   UNL     1       2.187   4.906  21.781  0.00  0.00    +0.000 F 
ATOM     27  F   UNL     1       1.462   3.954  19.966  0.00  0.00    +0.000 F 
ENDBRANCH  15  24
BRANCH   1  28
ATOM     28  C   UNL     1       4.062   5.482  17.925  0.00  0.00    +0.000 C 
ATOM     29  O   UNL     1       5.271   5.572  17.972  0.00  0.00    +0.000 OA
BRANCH  28  30
ATOM     30  O   UNL     1       3.321   4.570  17.256  0.00  0.00    +0.000 OA
BRANCH  30  32
ATOM     31  C   UNL     1       2.735   2.266  17.534  0.00  0.00    +0.000 C 
ATOM     32  C   UNL     1       3.847   3.233  17.188  0.00  0.00    +0.000 C 
ENDBRANCH  30  32
ENDBRANCH  28  30
ENDBRANCH   1  28
BRANCH   3  33
ATOM     33  C   UNL     1       2.197   9.952  17.990  0.00  0.00    +0.000 C 
ATOM     34  N   UNL     1       2.204  11.000  17.488  0.00  0.00    +0.000 NA
ENDBRANCH   3  33
TORSDOF 6
ENDMDL
MODEL 9
REMARK VINA RESULT:      -6.9      3.838      9.881
REMARK  Name = 
REMARK  9 active torsions:
REMARK  status: ('A' for Active; 'I' for Inactive)
REMARK    1  A    between atoms: C_1  and  C_2
REMARK    2  A    between atoms: C_2  and  O_3
REMARK    3  A    between atoms: O_3  and  C_4
REMARK    4  A    between atoms: C_4  and  C_6
REMARK    5  A    between atoms: C_8  and  C_9
REMARK    6  A    between atoms: N_18  and  C_19
REMARK    7  A    between atoms: C_20  and  C_21
REMARK    8  A    between atoms: C_24  and  C_25
REMARK    9  A    between atoms: C_29  and  C_30
REMARK                            x       y       z     vdW  Elec       q    Type
REMARK                         _______ _______ _______ _____ _____    ______ ____
ROOT
ATOM      1  C   UNL     1       3.116   6.039  18.720  0.00  0.00    +0.000 A 
ATOM      2  C   UNL     1       3.025   7.290  18.101  0.00  0.00    +0.000 A 
ATOM      3  C   UNL     1       2.207   8.287  18.634  0.00  0.00    +0.000 A 
ATOM      4  C   UNL     1       1.464   8.031  19.789  0.00  0.00    +0.000 A 
ATOM      5  N   UNL     1       0.645   8.977  20.366  0.00  0.00    +0.000 N 
ATOM      6  C   UNL     1       0.387   8.974  21.815  0.00  0.00    +0.000 C 
ATOM      7  C   UNL     1       0.422  10.440  22.316  0.00  0.00    +0.000 C 
ATOM      8  N   UNL     1      -0.467  11.318  21.526  0.00  0.00    +0.000 N 
ATOM      9  C   UNL     1      -1.159  12.321  22.186  0.00  0.00    +0.000 C 
ATOM     10  O   UNL     1      -1.004  12.527  23.389  0.00  0.00    +0.000 OA
ATOM     11  N   UNL     1      -2.088  12.988  21.414  0.00  0.00    +0.000 N 
ATOM     12  C   UNL     1      -0.263  11.232  20.069  0.00  0.00    +0.000 C 
ATOM     13  C   UNL     1      -0.340   9.764  19.602  0.00  0.00    +0.000 C 
ATOM     14  N   UNL     1       1.591   6.829  20.410  0.00  0.00    +0.000 NA
ATOM     15  C   UNL     1       2.399   5.829  19.892  0.00  0.00    +0.000 A 
ATOM     16  H   UNL     1      -2.545  12.396  20.740  0.00  0.00    +0.000 HD
ENDROOT
BRANCH  11  17
ATOM     17  C   UNL     1      -2.896  13.975  21.974  0.00  0.00    +0.000 A 
ATOM     18  C   UNL     1      -3.960  13.898  22.915  0.00  0.00    +0.000 A 
ATOM     19  C   UNL     1      -4.502  12.737  23.657  0.00  0.00    +0.000 C 
ATOM     20  N   UNL     1      -4.463  15.115  23.173  0.00  0.00    +0.000 NA
ATOM     21  O   UNL     1      -3.751  15.995  22.387  0.00  0.00    +0.000 OA
ATOM     22  C   UNL     1      -2.813  15.317  21.676  0.00  0.00    +0.000 A 
ATOM     23  C   UNL     1      -2.031  16.118  20.718  0.00  0.00    +0.000 C 
ENDBRANCH  11  17
BRANCH  15  24
ATOM     24  C   UNL     1       2.413   4.507  20.658  0.00  0.00    +0.000 C 
ATOM     25  F   UNL     1       1.382   3.658  20.414  0.00  0.00    +0.000 F 
ATOM     26  F   UNL     1       3.550   3.789  20.434  0.00  0.00    +0.000 F 
ATOM     27  F   UNL     1       2.366   4.709  22.009  0.00  0.00    +0.000 F 
ENDBRANCH  15  24
BRANCH   1  28
ATOM     28  C   UNL     1       4.022   5.061  18.091  0.00  0.00    +0.000 C 
ATOM     29  O   UNL     1       5.224   5.029  18.261  0.00  0.00    +0.000 OA
BRANCH  28  30
ATOM     30  O   UNL     1       3.275   4.271  17.289  0.00  0.00    +0.000 OA
BRANCH  30  32
ATOM     31  C   UNL     1       2.304   2.134  17.757  0.00  0.00    +0.000 C 
ATOM     32  C   UNL     1       3.559   2.862  17.322  0.00  0.00    +0.000 C 
ENDBRANCH  30  32
ENDBRANCH  28  30
ENDBRANCH   1  28
BRANCH   3  33
ATOM     33  C   UNL     1       2.242   9.565  17.999  0.00  0.00    +0.000 C 
ATOM     34  N   UNL     1       2.262  10.619  17.510  0.00  0.00    +0.000 NA
ENDBRANCH   3  33
TORSDOF 6
ENDMDL
