MODEL 1
REMARK VINA RESULT:      -5.6      0.000      0.000
REMARK  Name = 
REMARK  23 active torsions:
REMARK  status: ('A' for Active; 'I' for Inactive)
REMARK    1  A    between atoms: C_1  and  C_2
REMARK    2  A    between atoms: C_2  and  C_3
REMARK    3  A    between atoms: C_3  and  C_4
REMARK    4  A    between atoms: C_4  and  C_5
REMARK    5  A    between atoms: C_5  and  C_6
REMARK    6  A    between atoms: C_6  and  C_7
REMARK    7  A    between atoms: C_7  and  C_8
REMARK    8  A    between atoms: C_8  and  C_9
REMARK    9  A    between atoms: C_9  and  C_10
REMARK   10  A    between atoms: C_10  and  C_11
REMARK   11  A    between atoms: C_11  and  C_12
REMARK   12  A    between atoms: C_12  and  C_13
REMARK   13  A    between atoms: C_13  and  C_14
REMARK   14  A    between atoms: C_14  and  C_15
REMARK   15  A    between atoms: C_15  and  C_16
REMARK   16  A    between atoms: C_16  and  C_17
REMARK   17  A    between atoms: C_17  and  C_18
REMARK   18  A    between atoms: C_18  and  N_19
REMARK   19  A    between atoms: N_19  and  S_20
REMARK   20  A    between atoms: S_20  and  N_23
REMARK   21  A    between atoms: N_23  and  C_24
REMARK   22  A    between atoms: C_24  and  C_25
REMARK   23  A    between atoms: C_25  and  C_26
REMARK                            x       y       z     vdW  Elec       q    Type
REMARK                         _______ _______ _______ _____ _____    ______ ____
ROOT
ATOM      1  C   UNL     1       3.346   2.741  20.487  0.00  0.00    +0.000 C 
ENDROOT
BRANCH   1   2
ATOM      2  C   UNL     1       3.035   4.219  20.664  0.00  0.00    +0.000 C 
BRANCH   2   3
ATOM      3  C   UNL     1       1.536   4.454  20.600  0.00  0.00    +0.000 C 
BRANCH   3   4
ATOM      4  C   UNL     1       1.250   5.879  20.162  0.00  0.00    +0.000 C 
BRANCH   4   5
ATOM      5  C   UNL     1       2.517   6.525  19.634  0.00  0.00    +0.000 C 
BRANCH   5   6
ATOM      6  C   UNL     1       2.347   6.876  18.168  0.00  0.00    +0.000 C 
BRANCH   6   7
ATOM      7  C   UNL     1       2.152   8.374  18.013  0.00  0.00    +0.000 C 
BRANCH   7   8
ATOM      8  C   UNL     1       1.526   8.947  19.272  0.00  0.00    +0.000 C 
BRANCH   8   9
ATOM      9  C   UNL     1       0.866  10.278  18.962  0.00  0.00    +0.000 C 
BRANCH   9  10
ATOM     10  C   UNL     1      -0.640  10.162  19.121  0.00  0.00    +0.000 C 
BRANCH  10  11
ATOM     11  C   UNL     1      -1.341  11.106  18.157  0.00  0.00    +0.000 C 
BRANCH  11  12
ATOM     12  C   UNL     1      -2.582  10.440  17.581  0.00  0.00    +0.000 C 
BRANCH  12  14
ATOM     13  C   UNL     1      -3.437  10.274  15.241  0.00  0.00    +0.000 C 
ATOM     14  C   UNL     1      -2.304   9.909  16.182  0.00  0.00    +0.000 C 
ENDBRANCH  12  14
ENDBRANCH  11  12
ENDBRANCH  10  11
ENDBRANCH   9  10
ENDBRANCH   8   9
ENDBRANCH   7   8
ENDBRANCH   6   7
ENDBRANCH   5   6
ENDBRANCH   4   5
ENDBRANCH   3   4
ENDBRANCH   2   3
ENDBRANCH   1   2
BRANCH   1  15
ATOM     15  C   UNL     1       4.295   2.543  19.312  0.00  0.00    +0.000 C 
BRANCH  15  16
ATOM     16  C   UNL     1       3.514   2.240  18.043  0.00  0.00    +0.000 C 
BRANCH  16  17
ATOM     17  C   UNL     1       3.447   3.458  17.120  0.00  0.00    +0.000 C 
BRANCH  17  18
ATOM     18  C   UNL     1       4.720   4.277  17.308  0.00  0.00    +0.000 C 
BRANCH  18  19
ATOM     19  N   UNL     1       5.623   4.149  16.153  0.00  0.00    +0.000 NA
ATOM     20  H   UNL     1       5.172   4.373  15.268  0.00  0.00    +0.000 HD
BRANCH  19  21
ATOM     21  S   UNL     1       6.984   5.126  16.230  0.00  0.00    +0.000 S 
ATOM     22  O   UNL     1       6.539   6.463  16.555  0.00  0.00    +0.000 OA
ATOM     23  O   UNL     1       7.999   4.440  16.987  0.00  0.00    +0.000 OA
BRANCH  21  24
ATOM     24  N   UNL     1       7.424   5.122  14.605  0.00  0.00    +0.000 NA
ATOM     25  H   UNL     1       8.212   4.481  14.508  0.00  0.00    +0.000 HD
BRANCH  24  26
ATOM     26  C   UNL     1       6.273   4.749  13.743  0.00  0.00    +0.000 C 
BRANCH  26  27
ATOM     27  C   UNL     1       6.641   3.707  12.687  0.00  0.00    +0.000 C 
ATOM     28  C   UNL     1       5.419   3.117  12.005  0.00  0.00    +0.000 C 
ENDBRANCH  26  27
ENDBRANCH  24  26
ENDBRANCH  21  24
ENDBRANCH  19  21
ENDBRANCH  18  19
ENDBRANCH  17  18
ENDBRANCH  16  17
ENDBRANCH  15  16
ENDBRANCH   1  15
TORSDOF 21
ENDMDL
MODEL 2
REMARK VINA RESULT:      -5.6      2.312      3.641
REMARK  Name = 
REMARK  23 active torsions:
REMARK  status: ('A' for Active; 'I' for Inactive)
REMARK    1  A    between atoms: C_1  and  C_2
REMARK    2  A    between atoms: C_2  and  C_3
REMARK    3  A    between atoms: C_3  and  C_4
REMARK    4  A    between atoms: C_4  and  C_5
REMARK    5  A    between atoms: C_5  and  C_6
REMARK    6  A    between atoms: C_6  and  C_7
REMARK    7  A    between atoms: C_7  and  C_8
REMARK    8  A    between atoms: C_8  and  C_9
REMARK    9  A    between atoms: C_9  and  C_10
REMARK   10  A    between atoms: C_10  and  C_11
REMARK   11  A    between atoms: C_11  and  C_12
REMARK   12  A    between atoms: C_12  and  C_13
REMARK   13  A    between atoms: C_13  and  C_14
REMARK   14  A    between atoms: C_14  and  C_15
REMARK   15  A    between atoms: C_15  and  C_16
REMARK   16  A    between atoms: C_16  and  C_17
REMARK   17  A    between atoms: C_17  and  C_18
REMARK   18  A    between atoms: C_18  and  N_19
REMARK   19  A    between atoms: N_19  and  S_20
REMARK   20  A    between atoms: S_20  and  N_23
REMARK   21  A    between atoms: N_23  and  C_24
REMARK   22  A    between atoms: C_24  and  C_25
REMARK   23  A    between atoms: C_25  and  C_26
REMARK                            x       y       z     vdW  Elec       q    Type
REMARK                         _______ _______ _______ _____ _____    ______ ____
ROOT
ATOM      1  C   UNL     1       1.737   2.949  17.951  0.00  0.00    +0.000 C 
ENDROOT
BRANCH   1   2
ATOM      2  C   UNL     1       0.601   3.283  18.904  0.00  0.00    +0.000 C 
BRANCH   2   3
ATOM      3  C   UNL     1       1.118   3.372  20.330  0.00  0.00    +0.000 C 
BRANCH   3   4
ATOM      4  C   UNL     1       1.311   4.825  20.725  0.00  0.00    +0.000 C 
BRANCH   4   5
ATOM      5  C   UNL     1       2.629   5.342  20.179  0.00  0.00    +0.000 C 
BRANCH   5   6
ATOM      6  C   UNL     1       2.442   6.730  19.598  0.00  0.00    +0.000 C 
BRANCH   6   7
ATOM      7  C   UNL     1       2.803   6.728  18.124  0.00  0.00    +0.000 C 
BRANCH   7   8
ATOM      8  C   UNL     1       2.158   7.915  17.431  0.00  0.00    +0.000 C 
BRANCH   8   9
ATOM      9  C   UNL     1       2.145   9.114  18.362  0.00  0.00    +0.000 C 
BRANCH   9  10
ATOM     10  C   UNL     1       0.761   9.738  18.386  0.00  0.00    +0.000 C 
BRANCH  10  11
ATOM     11  C   UNL     1       0.640  10.693  19.563  0.00  0.00    +0.000 C 
BRANCH  11  12
ATOM     12  C   UNL     1      -0.308  10.121  20.607  0.00  0.00    +0.000 C 
BRANCH  12  14
ATOM     13  C   UNL     1      -0.356   9.574  23.042  0.00  0.00    +0.000 C 
ATOM     14  C   UNL     1       0.472   9.530  21.772  0.00  0.00    +0.000 C 
ENDBRANCH  12  14
ENDBRANCH  11  12
ENDBRANCH  10  11
ENDBRANCH   9  10
ENDBRANCH   8   9
ENDBRANCH   7   8
ENDBRANCH   6   7
ENDBRANCH   5   6
ENDBRANCH   4   5
ENDBRANCH   3   4
ENDBRANCH   2   3
ENDBRANCH   1   2
BRANCH   1  15
ATOM     15  C   UNL     1       2.662   1.916  18.582  0.00  0.00    +0.000 C 
BRANCH  15  16
ATOM     16  C   UNL     1       4.096   2.140  18.129  0.00  0.00    +0.000 C 
BRANCH  16  17
ATOM     17  C   UNL     1       4.243   3.452  17.357  0.00  0.00    +0.000 C 
BRANCH  17  18
ATOM     18  C   UNL     1       5.312   3.266  16.285  0.00  0.00    +0.000 C 
BRANCH  18  19
ATOM     19  N   UNL     1       6.450   4.175  16.491  0.00  0.00    +0.000 NA
ATOM     20  H   UNL     1       7.351   3.705  16.429  0.00  0.00    +0.000 HD
BRANCH  19  21
ATOM     21  S   UNL     1       6.525   5.444  15.396  0.00  0.00    +0.000 S 
ATOM     22  O   UNL     1       7.794   5.349  14.709  0.00  0.00    +0.000 OA
ATOM     23  O   UNL     1       5.268   5.522  14.698  0.00  0.00    +0.000 OA
BRANCH  21  24
ATOM     24  N   UNL     1       6.629   6.735  16.472  0.00  0.00    +0.000 NA
ATOM     25  H   UNL     1       5.862   7.372  16.253  0.00  0.00    +0.000 HD
BRANCH  24  26
ATOM     26  C   UNL     1       6.594   6.259  17.880  0.00  0.00    +0.000 C 
BRANCH  26  27
ATOM     27  C   UNL     1       7.885   6.568  18.638  0.00  0.00    +0.000 C 
ATOM     28  C   UNL     1       8.112   5.623  19.804  0.00  0.00    +0.000 C 
ENDBRANCH  26  27
ENDBRANCH  24  26
ENDBRANCH  21  24
ENDBRANCH  19  21
ENDBRANCH  18  19
ENDBRANCH  17  18
ENDBRANCH  16  17
ENDBRANCH  15  16
ENDBRANCH   1  15
TORSDOF 21
ENDMDL
MODEL 3
REMARK VINA RESULT:      -5.6      6.797      9.409
REMARK  Name = 
REMARK  23 active torsions:
REMARK  status: ('A' for Active; 'I' for Inactive)
REMARK    1  A    between atoms: C_1  and  C_2
REMARK    2  A    between atoms: C_2  and  C_3
REMARK    3  A    between atoms: C_3  and  C_4
REMARK    4  A    between atoms: C_4  and  C_5
REMARK    5  A    between atoms: C_5  and  C_6
REMARK    6  A    between atoms: C_6  and  C_7
REMARK    7  A    between atoms: C_7  and  C_8
REMARK    8  A    between atoms: C_8  and  C_9
REMARK    9  A    between atoms: C_9  and  C_10
REMARK   10  A    between atoms: C_10  and  C_11
REMARK   11  A    between atoms: C_11  and  C_12
REMARK   12  A    between atoms: C_12  and  C_13
REMARK   13  A    between atoms: C_13  and  C_14
REMARK   14  A    between atoms: C_14  and  C_15
REMARK   15  A    between atoms: C_15  and  C_16
REMARK   16  A    between atoms: C_16  and  C_17
REMARK   17  A    between atoms: C_17  and  C_18
REMARK   18  A    between atoms: C_18  and  N_19
REMARK   19  A    between atoms: N_19  and  S_20
REMARK   20  A    between atoms: S_20  and  N_23
REMARK   21  A    between atoms: N_23  and  C_24
REMARK   22  A    between atoms: C_24  and  C_25
REMARK   23  A    between atoms: C_25  and  C_26
REMARK                            x       y       z     vdW  Elec       q    Type
REMARK                         _______ _______ _______ _____ _____    ______ ____
ROOT
ATOM      1  C   UNL     1       8.772   9.111  18.777  0.00  0.00    +0.000 C 
ENDROOT
BRANCH   1   2
ATOM      2  C   UNL     1       7.678   8.857  17.753  0.00  0.00    +0.000 C 
BRANCH   2   3
ATOM      3  C   UNL     1       7.634   7.384  17.383  0.00  0.00    +0.000 C 
BRANCH   3   4
ATOM      4  C   UNL     1       7.762   6.529  18.631  0.00  0.00    +0.000 C 
BRANCH   4   5
ATOM      5  C   UNL     1       6.613   5.541  18.705  0.00  0.00    +0.000 C 
BRANCH   5   6
ATOM      6  C   UNL     1       6.201   5.118  17.307  0.00  0.00    +0.000 C 
BRANCH   6   7
ATOM      7  C   UNL     1       4.688   5.048  17.213  0.00  0.00    +0.000 C 
BRANCH   7   8
ATOM      8  C   UNL     1       4.063   6.116  18.093  0.00  0.00    +0.000 C 
BRANCH   8   9
ATOM      9  C   UNL     1       2.853   5.551  18.813  0.00  0.00    +0.000 C 
BRANCH   9  10
ATOM     10  C   UNL     1       1.872   4.972  17.809  0.00  0.00    +0.000 C 
BRANCH  10  11
ATOM     11  C   UNL     1       1.409   3.597  18.263  0.00  0.00    +0.000 C 
BRANCH  11  12
ATOM     12  C   UNL     1       2.193   3.159  19.490  0.00  0.00    +0.000 C 
BRANCH  12  14
ATOM     13  C   UNL     1       4.443   2.193  19.979  0.00  0.00    +0.000 C 
ATOM     14  C   UNL     1       3.195   2.072  19.126  0.00  0.00    +0.000 C 
ENDBRANCH  12  14
ENDBRANCH  11  12
ENDBRANCH  10  11
ENDBRANCH   9  10
ENDBRANCH   8   9
ENDBRANCH   7   8
ENDBRANCH   6   7
ENDBRANCH   5   6
ENDBRANCH   4   5
ENDBRANCH   3   4
ENDBRANCH   2   3
ENDBRANCH   1   2
BRANCH   1  15
ATOM     15  C   UNL     1       9.460  10.440  18.489  0.00  0.00    +0.000 C 
BRANCH  15  16
ATOM     16  C   UNL     1       9.283  11.395  19.658  0.00  0.00    +0.000 C 
BRANCH  16  17
ATOM     17  C   UNL     1      10.615  11.689  20.350  0.00  0.00    +0.000 C 
BRANCH  17  18
ATOM     18  C   UNL     1      11.580  12.264  19.318  0.00  0.00    +0.000 C 
BRANCH  18  19
ATOM     19  N   UNL     1      11.333  13.696  19.085  0.00  0.00    +0.000 NA
ATOM     20  H   UNL     1      12.078  14.292  19.442  0.00  0.00    +0.000 HD
BRANCH  19  21
ATOM     21  S   UNL     1      11.156  14.110  17.469  0.00  0.00    +0.000 S 
ATOM     22  O   UNL     1      11.725  15.428  17.295  0.00  0.00    +0.000 OA
ATOM     23  O   UNL     1      11.545  12.983  16.661  0.00  0.00    +0.000 OA
BRANCH  21  24
ATOM     24  N   UNL     1       9.481  14.272  17.404  0.00  0.00    +0.000 NA
ATOM     25  H   UNL     1       9.087  13.330  17.413  0.00  0.00    +0.000 HD
BRANCH  24  26
ATOM     26  C   UNL     1       8.983  15.112  18.524  0.00  0.00    +0.000 C 
BRANCH  26  27
ATOM     27  C   UNL     1       8.421  16.452  18.050  0.00  0.00    +0.000 C 
ATOM     28  C   UNL     1       7.289  16.949  18.931  0.00  0.00    +0.000 C 
ENDBRANCH  26  27
ENDBRANCH  24  26
ENDBRANCH  21  24
ENDBRANCH  19  21
ENDBRANCH  18  19
ENDBRANCH  17  18
ENDBRANCH  16  17
ENDBRANCH  15  16
ENDBRANCH   1  15
TORSDOF 21
ENDMDL
MODEL 4
REMARK VINA RESULT:      -5.6      1.650      2.423
REMARK  Name = 
REMARK  23 active torsions:
REMARK  status: ('A' for Active; 'I' for Inactive)
REMARK    1  A    between atoms: C_1  and  C_2
REMARK    2  A    between atoms: C_2  and  C_3
REMARK    3  A    between atoms: C_3  and  C_4
REMARK    4  A    between atoms: C_4  and  C_5
REMARK    5  A    between atoms: C_5  and  C_6
REMARK    6  A    between atoms: C_6  and  C_7
REMARK    7  A    between atoms: C_7  and  C_8
REMARK    8  A    between atoms: C_8  and  C_9
REMARK    9  A    between atoms: C_9  and  C_10
REMARK   10  A    between atoms: C_10  and  C_11
REMARK   11  A    between atoms: C_11  and  C_12
REMARK   12  A    between atoms: C_12  and  C_13
REMARK   13  A    between atoms: C_13  and  C_14
REMARK   14  A    between atoms: C_14  and  C_15
REMARK   15  A    between atoms: C_15  and  C_16
REMARK   16  A    between atoms: C_16  and  C_17
REMARK   17  A    between atoms: C_17  and  C_18
REMARK   18  A    between atoms: C_18  and  N_19
REMARK   19  A    between atoms: N_19  and  S_20
REMARK   20  A    between atoms: S_20  and  N_23
REMARK   21  A    between atoms: N_23  and  C_24
REMARK   22  A    between atoms: C_24  and  C_25
REMARK   23  A    between atoms: C_25  and  C_26
REMARK                            x       y       z     vdW  Elec       q    Type
REMARK                         _______ _______ _______ _____ _____    ______ ____
ROOT
ATOM      1  C   UNL     1       2.909   4.796  17.990  0.00  0.00    +0.000 C 
ENDROOT
BRANCH   1   2
ATOM      2  C   UNL     1       1.982   5.998  18.076  0.00  0.00    +0.000 C 
BRANCH   2   3
ATOM      3  C   UNL     1       2.790   7.283  18.140  0.00  0.00    +0.000 C 
BRANCH   3   4
ATOM      4  C   UNL     1       2.027   8.340  18.918  0.00  0.00    +0.000 C 
BRANCH   4   5
ATOM      5  C   UNL     1       1.814   7.881  20.348  0.00  0.00    +0.000 C 
BRANCH   5   6
ATOM      6  C   UNL     1       0.649   8.630  20.966  0.00  0.00    +0.000 C 
BRANCH   6   7
ATOM      7  C   UNL     1       1.017  10.090  21.160  0.00  0.00    +0.000 C 
BRANCH   7   8
ATOM      8  C   UNL     1       0.013  10.977  20.446  0.00  0.00    +0.000 C 
BRANCH   8   9
ATOM      9  C   UNL     1      -1.053  10.123  19.784  0.00  0.00    +0.000 C 
BRANCH   9  10
ATOM     10  C   UNL     1      -1.150  10.462  18.307  0.00  0.00    +0.000 C 
BRANCH  10  11
ATOM     11  C   UNL     1      -2.087  11.642  18.103  0.00  0.00    +0.000 C 
BRANCH  11  12
ATOM     12  C   UNL     1      -3.097  11.325  17.010  0.00  0.00    +0.000 C 
BRANCH  12  14
ATOM     13  C   UNL     1      -2.937  10.096  14.842  0.00  0.00    +0.000 C 
ATOM     14  C   UNL     1      -2.770   9.995  16.347  0.00  0.00    +0.000 C 
ENDBRANCH  12  14
ENDBRANCH  11  12
ENDBRANCH  10  11
ENDBRANCH   9  10
ENDBRANCH   8   9
ENDBRANCH   7   8
ENDBRANCH   6   7
ENDBRANCH   5   6
ENDBRANCH   4   5
ENDBRANCH   3   4
ENDBRANCH   2   3
ENDBRANCH   1   2
BRANCH   1  15
ATOM     15  C   UNL     1       3.693   4.645  19.288  0.00  0.00    +0.000 C 
BRANCH  15  16
ATOM     16  C   UNL     1       5.129   4.240  18.998  0.00  0.00    +0.000 C 
BRANCH  16  17
ATOM     17  C   UNL     1       5.872   5.325  18.216  0.00  0.00    +0.000 C 
BRANCH  17  18
ATOM     18  C   UNL     1       7.057   4.681  17.504  0.00  0.00    +0.000 C 
BRANCH  18  19
ATOM     19  N   UNL     1       6.620   3.813  16.400  0.00  0.00    +0.000 NA
ATOM     20  H   UNL     1       5.713   3.381  16.567  0.00  0.00    +0.000 HD
BRANCH  19  21
ATOM     21  S   UNL     1       6.484   4.595  14.921  0.00  0.00    +0.000 S 
ATOM     22  O   UNL     1       5.216   5.293  14.916  0.00  0.00    +0.000 OA
ATOM     23  O   UNL     1       7.733   5.251  14.633  0.00  0.00    +0.000 OA
BRANCH  21  24
ATOM     24  N   UNL     1       6.328   3.257  13.911  0.00  0.00    +0.000 NA
ATOM     25  H   UNL     1       5.630   2.642  14.332  0.00  0.00    +0.000 HD
BRANCH  24  26
ATOM     26  C   UNL     1       5.970   3.671  12.530  0.00  0.00    +0.000 C 
BRANCH  26  27
ATOM     27  C   UNL     1       5.707   2.480  11.608  0.00  0.00    +0.000 C 
ATOM     28  C   UNL     1       6.990   1.847  11.101  0.00  0.00    +0.000 C 
ENDBRANCH  26  27
ENDBRANCH  24  26
ENDBRANCH  21  24
ENDBRANCH  19  21
ENDBRANCH  18  19
ENDBRANCH  17  18
ENDBRANCH  16  17
ENDBRANCH  15  16
ENDBRANCH   1  15
TORSDOF 21
ENDMDL
MODEL 5
REMARK VINA RESULT:      -5.5      2.055      3.889
REMARK  Name = 
REMARK  23 active torsions:
REMARK  status: ('A' for Active; 'I' for Inactive)
REMARK    1  A    between atoms: C_1  and  C_2
REMARK    2  A    between atoms: C_2  and  C_3
REMARK    3  A    between atoms: C_3  and  C_4
REMARK    4  A    between atoms: C_4  and  C_5
REMARK    5  A    between atoms: C_5  and  C_6
REMARK    6  A    between atoms: C_6  and  C_7
REMARK    7  A    between atoms: C_7  and  C_8
REMARK    8  A    between atoms: C_8  and  C_9
REMARK    9  A    between atoms: C_9  and  C_10
REMARK   10  A    between atoms: C_10  and  C_11
REMARK   11  A    between atoms: C_11  and  C_12
REMARK   12  A    between atoms: C_12  and  C_13
REMARK   13  A    between atoms: C_13  and  C_14
REMARK   14  A    between atoms: C_14  and  C_15
REMARK   15  A    between atoms: C_15  and  C_16
REMARK   16  A    between atoms: C_16  and  C_17
REMARK   17  A    between atoms: C_17  and  C_18
REMARK   18  A    between atoms: C_18  and  N_19
REMARK   19  A    between atoms: N_19  and  S_20
REMARK   20  A    between atoms: S_20  and  N_23
REMARK   21  A    between atoms: N_23  and  C_24
REMARK   22  A    between atoms: C_24  and  C_25
REMARK   23  A    between atoms: C_25  and  C_26
REMARK                            x       y       z     vdW  Elec       q    Type
REMARK                         _______ _______ _______ _____ _____    ______ ____
ROOT
ATOM      1  C   UNL     1       4.904   3.936  18.458  0.00  0.00    +0.000 C 
ENDROOT
BRANCH   1   2
ATOM      2  C   UNL     1       5.015   3.234  19.801  0.00  0.00    +0.000 C 
BRANCH   2   3
ATOM      3  C   UNL     1       4.158   1.980  19.813  0.00  0.00    +0.000 C 
BRANCH   3   4
ATOM      4  C   UNL     1       3.438   1.829  18.485  0.00  0.00    +0.000 C 
BRANCH   4   5
ATOM      5  C   UNL     1       1.953   2.087  18.665  0.00  0.00    +0.000 C 
BRANCH   5   6
ATOM      6  C   UNL     1       1.662   2.450  20.109  0.00  0.00    +0.000 C 
BRANCH   6   7
ATOM      7  C   UNL     1       0.854   3.733  20.168  0.00  0.00    +0.000 C 
BRANCH   7   8
ATOM      8  C   UNL     1       1.781   4.933  20.099  0.00  0.00    +0.000 C 
BRANCH   8   9
ATOM      9  C   UNL     1       1.904   5.410  18.663  0.00  0.00    +0.000 C 
BRANCH   9  10
ATOM     10  C   UNL     1       2.162   6.906  18.632  0.00  0.00    +0.000 C 
BRANCH  10  11
ATOM     11  C   UNL     1       2.074   7.481  20.037  0.00  0.00    +0.000 C 
BRANCH  11  12
ATOM     12  C   UNL     1       1.266   8.770  20.026  0.00  0.00    +0.000 C 
BRANCH  12  14
ATOM     13  C   UNL     1       0.855  10.870  18.740  0.00  0.00    +0.000 C 
ATOM     14  C   UNL     1       1.333   9.432  18.658  0.00  0.00    +0.000 C 
ENDBRANCH  12  14
ENDBRANCH  11  12
ENDBRANCH  10  11
ENDBRANCH   9  10
ENDBRANCH   8   9
ENDBRANCH   7   8
ENDBRANCH   6   7
ENDBRANCH   5   6
ENDBRANCH   4   5
ENDBRANCH   3   4
ENDBRANCH   2   3
ENDBRANCH   1   2
BRANCH   1  15
ATOM     15  C   UNL     1       5.315   5.397  18.596  0.00  0.00    +0.000 C 
BRANCH  15  16
ATOM     16  C   UNL     1       6.637   5.510  19.338  0.00  0.00    +0.000 C 
BRANCH  16  17
ATOM     17  C   UNL     1       7.793   5.814  18.384  0.00  0.00    +0.000 C 
BRANCH  17  18
ATOM     18  C   UNL     1       7.228   6.490  17.139  0.00  0.00    +0.000 C 
BRANCH  18  19
ATOM     19  N   UNL     1       7.582   5.756  15.915  0.00  0.00    +0.000 NA
ATOM     20  H   UNL     1       8.162   4.938  16.094  0.00  0.00    +0.000 HD
BRANCH  19  21
ATOM     21  S   UNL     1       6.263   5.194  15.043  0.00  0.00    +0.000 S 
ATOM     22  O   UNL     1       6.027   3.826  15.450  0.00  0.00    +0.000 OA
ATOM     23  O   UNL     1       5.234   6.200  15.069  0.00  0.00    +0.000 OA
BRANCH  21  24
ATOM     24  N   UNL     1       6.943   5.152  13.504  0.00  0.00    +0.000 NA
ATOM     25  H   UNL     1       7.908   5.475  13.592  0.00  0.00    +0.000 HD
BRANCH  24  26
ATOM     26  C   UNL     1       6.846   3.791  12.915  0.00  0.00    +0.000 C 
BRANCH  26  27
ATOM     27  C   UNL     1       5.527   3.561  12.178  0.00  0.00    +0.000 C 
ATOM     28  C   UNL     1       5.459   2.190  11.528  0.00  0.00    +0.000 C 
ENDBRANCH  26  27
ENDBRANCH  24  26
ENDBRANCH  21  24
ENDBRANCH  19  21
ENDBRANCH  18  19
ENDBRANCH  17  18
ENDBRANCH  16  17
ENDBRANCH  15  16
ENDBRANCH   1  15
TORSDOF 21
ENDMDL
MODEL 6
REMARK VINA RESULT:      -5.5      6.721      8.686
REMARK  Name = 
REMARK  23 active torsions:
REMARK  status: ('A' for Active; 'I' for Inactive)
REMARK    1  A    between atoms: C_1  and  C_2
REMARK    2  A    between atoms: C_2  and  C_3
REMARK    3  A    between atoms: C_3  and  C_4
REMARK    4  A    between atoms: C_4  and  C_5
REMARK    5  A    between atoms: C_5  and  C_6
REMARK    6  A    between atoms: C_6  and  C_7
REMARK    7  A    between atoms: C_7  and  C_8
REMARK    8  A    between atoms: C_8  and  C_9
REMARK    9  A    between atoms: C_9  and  C_10
REMARK   10  A    between atoms: C_10  and  C_11
REMARK   11  A    between atoms: C_11  and  C_12
REMARK   12  A    between atoms: C_12  and  C_13
REMARK   13  A    between atoms: C_13  and  C_14
REMARK   14  A    between atoms: C_14  and  C_15
REMARK   15  A    between atoms: C_15  and  C_16
REMARK   16  A    between atoms: C_16  and  C_17
REMARK   17  A    between atoms: C_17  and  C_18
REMARK   18  A    between atoms: C_18  and  N_19
REMARK   19  A    between atoms: N_19  and  S_20
REMARK   20  A    between atoms: S_20  and  N_23
REMARK   21  A    between atoms: N_23  and  C_24
REMARK   22  A    between atoms: C_24  and  C_25
REMARK   23  A    between atoms: C_25  and  C_26
REMARK                            x       y       z     vdW  Elec       q    Type
REMARK                         _______ _______ _______ _____ _____    ______ ____
ROOT
ATOM      1  C   UNL     1       6.861   5.591  16.402  0.00  0.00    +0.000 C 
ENDROOT
BRANCH   1   2
ATOM      2  C   UNL     1       7.306   5.445  17.848  0.00  0.00    +0.000 C 
BRANCH   2   3
ATOM      3  C   UNL     1       7.841   6.767  18.371  0.00  0.00    +0.000 C 
BRANCH   3   4
ATOM      4  C   UNL     1       7.770   7.824  17.284  0.00  0.00    +0.000 C 
BRANCH   4   5
ATOM      5  C   UNL     1       7.952   9.205  17.888  0.00  0.00    +0.000 C 
BRANCH   5   6
ATOM      6  C   UNL     1       8.985   9.154  18.997  0.00  0.00    +0.000 C 
BRANCH   6   7
ATOM      7  C   UNL     1       9.331  10.562  19.448  0.00  0.00    +0.000 C 
BRANCH   7   8
ATOM      8  C   UNL     1       9.467  11.473  18.241  0.00  0.00    +0.000 C 
BRANCH   8   9
ATOM      9  C   UNL     1      10.923  11.571  17.827  0.00  0.00    +0.000 C 
BRANCH   9  10
ATOM     10  C   UNL     1      11.187  12.910  17.163  0.00  0.00    +0.000 C 
BRANCH  10  11
ATOM     11  C   UNL     1      12.260  13.670  17.927  0.00  0.00    +0.000 C 
BRANCH  11  12
ATOM     12  C   UNL     1      11.685  14.956  18.500  0.00  0.00    +0.000 C 
BRANCH  12  14
ATOM     13  C   UNL     1      10.565  16.539  16.927  0.00  0.00    +0.000 C 
ATOM     14  C   UNL     1      10.380  15.316  17.805  0.00  0.00    +0.000 C 
ENDBRANCH  12  14
ENDBRANCH  11  12
ENDBRANCH  10  11
ENDBRANCH   9  10
ENDBRANCH   8   9
ENDBRANCH   7   8
ENDBRANCH   6   7
ENDBRANCH   5   6
ENDBRANCH   4   5
ENDBRANCH   3   4
ENDBRANCH   2   3
ENDBRANCH   1   2
BRANCH   1  15
ATOM     15  C   UNL     1       5.357   5.373  16.293  0.00  0.00    +0.000 C 
BRANCH  15  16
ATOM     16  C   UNL     1       4.605   6.581  16.829  0.00  0.00    +0.000 C 
BRANCH  16  17
ATOM     17  C   UNL     1       3.390   6.162  17.659  0.00  0.00    +0.000 C 
BRANCH  17  18
ATOM     18  C   UNL     1       3.853   5.189  18.739  0.00  0.00    +0.000 C 
BRANCH  18  19
ATOM     19  N   UNL     1       3.525   5.679  20.087  0.00  0.00    +0.000 NA
ATOM     20  H   UNL     1       3.501   6.695  20.147  0.00  0.00    +0.000 HD
BRANCH  19  21
ATOM     21  S   UNL     1       2.041   5.155  20.668  0.00  0.00    +0.000 S 
ATOM     22  O   UNL     1       2.303   4.185  21.709  0.00  0.00    +0.000 OA
ATOM     23  O   UNL     1       1.197   6.303  20.871  0.00  0.00    +0.000 OA
BRANCH  21  24
ATOM     24  N   UNL     1       1.495   4.311  19.318  0.00  0.00    +0.000 NA
ATOM     25  H   UNL     1       2.294   4.190  18.695  0.00  0.00    +0.000 HD
BRANCH  24  26
ATOM     26  C   UNL     1       0.875   3.019  19.712  0.00  0.00    +0.000 C 
BRANCH  26  27
ATOM     27  C   UNL     1       1.369   1.846  18.866  0.00  0.00    +0.000 C 
ATOM     28  C   UNL     1       2.370   2.276  17.809  0.00  0.00    +0.000 C 
ENDBRANCH  26  27
ENDBRANCH  24  26
ENDBRANCH  21  24
ENDBRANCH  19  21
ENDBRANCH  18  19
ENDBRANCH  17  18
ENDBRANCH  16  17
ENDBRANCH  15  16
ENDBRANCH   1  15
TORSDOF 21
ENDMDL
MODEL 7
REMARK VINA RESULT:      -5.5      4.736      8.589
REMARK  Name = 
REMARK  23 active torsions:
REMARK  status: ('A' for Active; 'I' for Inactive)
REMARK    1  A    between atoms: C_1  and  C_2
REMARK    2  A    between atoms: C_2  and  C_3
REMARK    3  A    between atoms: C_3  and  C_4
REMARK    4  A    between atoms: C_4  and  C_5
REMARK    5  A    between atoms: C_5  and  C_6
REMARK    6  A    between atoms: C_6  and  C_7
REMARK    7  A    between atoms: C_7  and  C_8
REMARK    8  A    between atoms: C_8  and  C_9
REMARK    9  A    between atoms: C_9  and  C_10
REMARK   10  A    between atoms: C_10  and  C_11
REMARK   11  A    between atoms: C_11  and  C_12
REMARK   12  A    between atoms: C_12  and  C_13
REMARK   13  A    between atoms: C_13  and  C_14
REMARK   14  A    between atoms: C_14  and  C_15
REMARK   15  A    between atoms: C_15  and  C_16
REMARK   16  A    between atoms: C_16  and  C_17
REMARK   17  A    between atoms: C_17  and  C_18
REMARK   18  A    between atoms: C_18  and  N_19
REMARK   19  A    between atoms: N_19  and  S_20
REMARK   20  A    between atoms: S_20  and  N_23
REMARK   21  A    between atoms: N_23  and  C_24
REMARK   22  A    between atoms: C_24  and  C_25
REMARK   23  A    between atoms: C_25  and  C_26
REMARK                            x       y       z     vdW  Elec       q    Type
REMARK                         _______ _______ _______ _____ _____    ______ ____
ROOT
ATOM      1  C   UNL     1       1.640   6.575  20.571  0.00  0.00    +0.000 C 
ENDROOT
BRANCH   1   2
ATOM      2  C   UNL     1       1.310   5.096  20.445  0.00  0.00    +0.000 C 
BRANCH   2   3
ATOM      3  C   UNL     1       2.317   4.263  21.220  0.00  0.00    +0.000 C 
BRANCH   3   4
ATOM      4  C   UNL     1       2.328   2.839  20.696  0.00  0.00    +0.000 C 
BRANCH   4   5
ATOM      5  C   UNL     1       3.754   2.326  20.613  0.00  0.00    +0.000 C 
BRANCH   5   6
ATOM      6  C   UNL     1       4.298   2.530  19.212  0.00  0.00    +0.000 C 
BRANCH   6   7
ATOM      7  C   UNL     1       3.152   2.693  18.230  0.00  0.00    +0.000 C 
BRANCH   7   8
ATOM      8  C   UNL     1       3.453   3.828  17.267  0.00  0.00    +0.000 C 
BRANCH   8   9
ATOM      9  C   UNL     1       4.793   4.454  17.606  0.00  0.00    +0.000 C 
BRANCH   9  10
ATOM     10  C   UNL     1       5.155   5.503  16.570  0.00  0.00    +0.000 C 
BRANCH  10  11
ATOM     11  C   UNL     1       6.607   5.922  16.737  0.00  0.00    +0.000 C 
BRANCH  11  12
ATOM     12  C   UNL     1       6.942   6.078  18.212  0.00  0.00    +0.000 C 
BRANCH  12  14
ATOM     13  C   UNL     1       7.778   8.344  17.578  0.00  0.00    +0.000 C 
ATOM     14  C   UNL     1       8.052   7.102  18.404  0.00  0.00    +0.000 C 
ENDBRANCH  12  14
ENDBRANCH  11  12
ENDBRANCH  10  11
ENDBRANCH   9  10
ENDBRANCH   8   9
ENDBRANCH   7   8
ENDBRANCH   6   7
ENDBRANCH   5   6
ENDBRANCH   4   5
ENDBRANCH   3   4
ENDBRANCH   2   3
ENDBRANCH   1   2
BRANCH   1  15
ATOM     15  C   UNL     1       2.744   6.950  19.591  0.00  0.00    +0.000 C 
BRANCH  15  16
ATOM     16  C   UNL     1       2.189   7.058  18.180  0.00  0.00    +0.000 C 
BRANCH  16  17
ATOM     17  C   UNL     1       2.295   8.487  17.643  0.00  0.00    +0.000 C 
BRANCH  17  18
ATOM     18  C   UNL     1       1.637   9.430  18.645  0.00  0.00    +0.000 C 
BRANCH  18  19
ATOM     19  N   UNL     1       0.533  10.186  18.034  0.00  0.00    +0.000 NA
ATOM     20  H   UNL     1      -0.310   9.630  17.909  0.00  0.00    +0.000 HD
BRANCH  19  21
ATOM     21  S   UNL     1       0.058  11.538  18.907  0.00  0.00    +0.000 S 
ATOM     22  O   UNL     1       1.239  12.342  19.137  0.00  0.00    +0.000 OA
ATOM     23  O   UNL     1      -1.140  12.070  18.312  0.00  0.00    +0.000 OA
BRANCH  21  24
ATOM     24  N   UNL     1      -0.342  10.801  20.367  0.00  0.00    +0.000 NA
ATOM     25  H   UNL     1       0.533  10.577  20.841  0.00  0.00    +0.000 HD
BRANCH  24  26
ATOM     26  C   UNL     1      -1.227  11.675  21.180  0.00  0.00    +0.000 C 
BRANCH  26  27
ATOM     27  C   UNL     1      -0.907  11.611  22.674  0.00  0.00    +0.000 C 
ATOM     28  C   UNL     1      -0.741  10.185  23.169  0.00  0.00    +0.000 C 
ENDBRANCH  26  27
ENDBRANCH  24  26
ENDBRANCH  21  24
ENDBRANCH  19  21
ENDBRANCH  18  19
ENDBRANCH  17  18
ENDBRANCH  16  17
ENDBRANCH  15  16
ENDBRANCH   1  15
TORSDOF 21
ENDMDL
MODEL 8
REMARK VINA RESULT:      -5.4      5.472      9.346
REMARK  Name = 
REMARK  23 active torsions:
REMARK  status: ('A' for Active; 'I' for Inactive)
REMARK    1  A    between atoms: C_1  and  C_2
REMARK    2  A    between atoms: C_2  and  C_3
REMARK    3  A    between atoms: C_3  and  C_4
REMARK    4  A    between atoms: C_4  and  C_5
REMARK    5  A    between atoms: C_5  and  C_6
REMARK    6  A    between atoms: C_6  and  C_7
REMARK    7  A    between atoms: C_7  and  C_8
REMARK    8  A    between atoms: C_8  and  C_9
REMARK    9  A    between atoms: C_9  and  C_10
REMARK   10  A    between atoms: C_10  and  C_11
REMARK   11  A    between atoms: C_11  and  C_12
REMARK   12  A    between atoms: C_12  and  C_13
REMARK   13  A    between atoms: C_13  and  C_14
REMARK   14  A    between atoms: C_14  and  C_15
REMARK   15  A    between atoms: C_15  and  C_16
REMARK   16  A    between atoms: C_16  and  C_17
REMARK   17  A    between atoms: C_17  and  C_18
REMARK   18  A    between atoms: C_18  and  N_19
REMARK   19  A    between atoms: N_19  and  S_20
REMARK   20  A    between atoms: S_20  and  N_23
REMARK   21  A    between atoms: N_23  and  C_24
REMARK   22  A    between atoms: C_24  and  C_25
REMARK   23  A    between atoms: C_25  and  C_26
REMARK                            x       y       z     vdW  Elec       q    Type
REMARK                         _______ _______ _______ _____ _____    ______ ____
ROOT
ATOM      1  C   UNL     1       1.480   5.155  20.868  0.00  0.00    +0.000 C 
ENDROOT
BRANCH   1   2
ATOM      2  C   UNL     1       2.094   3.864  21.383  0.00  0.00    +0.000 C 
BRANCH   2   3
ATOM      3  C   UNL     1       1.504   2.670  20.652  0.00  0.00    +0.000 C 
BRANCH   3   4
ATOM      4  C   UNL     1       2.343   2.341  19.430  0.00  0.00    +0.000 C 
BRANCH   4   5
ATOM      5  C   UNL     1       1.565   2.653  18.165  0.00  0.00    +0.000 C 
BRANCH   5   6
ATOM      6  C   UNL     1       2.158   3.867  17.477  0.00  0.00    +0.000 C 
BRANCH   6   7
ATOM      7  C   UNL     1       3.618   3.614  17.147  0.00  0.00    +0.000 C 
BRANCH   7   8
ATOM      8  C   UNL     1       4.502   4.533  17.971  0.00  0.00    +0.000 C 
BRANCH   8   9
ATOM      9  C   UNL     1       4.455   5.941  17.407  0.00  0.00    +0.000 C 
BRANCH   9  10
ATOM     10  C   UNL     1       5.080   5.970  16.025  0.00  0.00    +0.000 C 
BRANCH  10  11
ATOM     11  C   UNL     1       6.590   5.825  16.130  0.00  0.00    +0.000 C 
BRANCH  11  12
ATOM     12  C   UNL     1       7.048   4.568  15.405  0.00  0.00    +0.000 C 
BRANCH  12  14
ATOM     13  C   UNL     1       6.117   3.646  13.280  0.00  0.00    +0.000 C 
ATOM     14  C   UNL     1       6.949   4.754  13.898  0.00  0.00    +0.000 C 
ENDBRANCH  12  14
ENDBRANCH  11  12
ENDBRANCH  10  11
ENDBRANCH   9  10
ENDBRANCH   8   9
ENDBRANCH   7   8
ENDBRANCH   6   7
ENDBRANCH   5   6
ENDBRANCH   4   5
ENDBRANCH   3   4
ENDBRANCH   2   3
ENDBRANCH   1   2
BRANCH   1  15
ATOM     15  C   UNL     1       2.568   6.069  20.318  0.00  0.00    +0.000 C 
BRANCH  15  16
ATOM     16  C   UNL     1       2.007   7.453  20.033  0.00  0.00    +0.000 C 
BRANCH  16  17
ATOM     17  C   UNL     1       1.041   7.904  21.130  0.00  0.00    +0.000 C 
BRANCH  17  18
ATOM     18  C   UNL     1       1.594   9.173  21.769  0.00  0.00    +0.000 C 
BRANCH  18  19
ATOM     19  N   UNL     1       0.584   9.846  22.601  0.00  0.00    +0.000 NA
ATOM     20  H   UNL     1       0.962  10.202  23.477  0.00  0.00    +0.000 HD
BRANCH  19  21
ATOM     21  S   UNL     1      -0.157  11.157  21.861  0.00  0.00    +0.000 S 
ATOM     22  O   UNL     1       0.876  12.124  21.559  0.00  0.00    +0.000 OA
ATOM     23  O   UNL     1      -1.074  10.663  20.867  0.00  0.00    +0.000 OA
BRANCH  21  24
ATOM     24  N   UNL     1      -1.039  11.751  23.166  0.00  0.00    +0.000 NA
ATOM     25  H   UNL     1      -0.548  11.470  24.015  0.00  0.00    +0.000 HD
BRANCH  24  26
ATOM     26  C   UNL     1      -1.213  13.223  23.065  0.00  0.00    +0.000 C 
BRANCH  26  27
ATOM     27  C   UNL     1      -2.659  13.663  23.292  0.00  0.00    +0.000 C 
ATOM     28  C   UNL     1      -3.657  12.571  22.948  0.00  0.00    +0.000 C 
ENDBRANCH  26  27
ENDBRANCH  24  26
ENDBRANCH  21  24
ENDBRANCH  19  21
ENDBRANCH  18  19
ENDBRANCH  17  18
ENDBRANCH  16  17
ENDBRANCH  15  16
ENDBRANCH   1  15
TORSDOF 21
ENDMDL
MODEL 9
REMARK VINA RESULT:      -5.4      1.380      1.706
REMARK  Name = 
REMARK  23 active torsions:
REMARK  status: ('A' for Active; 'I' for Inactive)
REMARK    1  A    between atoms: C_1  and  C_2
REMARK    2  A    between atoms: C_2  and  C_3
REMARK    3  A    between atoms: C_3  and  C_4
REMARK    4  A    between atoms: C_4  and  C_5
REMARK    5  A    between atoms: C_5  and  C_6
REMARK    6  A    between atoms: C_6  and  C_7
REMARK    7  A    between atoms: C_7  and  C_8
REMARK    8  A    between atoms: C_8  and  C_9
REMARK    9  A    between atoms: C_9  and  C_10
REMARK   10  A    between atoms: C_10  and  C_11
REMARK   11  A    between atoms: C_11  and  C_12
REMARK   12  A    between atoms: C_12  and  C_13
REMARK   13  A    between atoms: C_13  and  C_14
REMARK   14  A    between atoms: C_14  and  C_15
REMARK   15  A    between atoms: C_15  and  C_16
REMARK   16  A    between atoms: C_16  and  C_17
REMARK   17  A    between atoms: C_17  and  C_18
REMARK   18  A    between atoms: C_18  and  N_19
REMARK   19  A    between atoms: N_19  and  S_20
REMARK   20  A    between atoms: S_20  and  N_23
REMARK   21  A    between atoms: N_23  and  C_24
REMARK   22  A    between atoms: C_24  and  C_25
REMARK   23  A    between atoms: C_25  and  C_26
REMARK                            x       y       z     vdW  Elec       q    Type
REMARK                         _______ _______ _______ _____ _____    ______ ____
ROOT
ATOM      1  C   UNL     1       2.365   2.978  19.695  0.00  0.00    +0.000 C 
ENDROOT
BRANCH   1   2
ATOM      2  C   UNL     1       1.424   4.142  19.432  0.00  0.00    +0.000 C 
BRANCH   2   3
ATOM      3  C   UNL     1       1.687   5.266  20.419  0.00  0.00    +0.000 C 
BRANCH   3   4
ATOM      4  C   UNL     1       2.611   6.299  19.799  0.00  0.00    +0.000 C 
BRANCH   4   5
ATOM      5  C   UNL     1       1.983   7.678  19.885  0.00  0.00    +0.000 C 
BRANCH   5   6
ATOM      6  C   UNL     1       1.000   7.729  21.039  0.00  0.00    +0.000 C 
BRANCH   6   7
ATOM      7  C   UNL     1       0.614   9.168  21.328  0.00  0.00    +0.000 C 
BRANCH   7   8
ATOM      8  C   UNL     1       0.942  10.042  20.131  0.00  0.00    +0.000 C 
BRANCH   8   9
ATOM      9  C   UNL     1      -0.045  11.192  20.042  0.00  0.00    +0.000 C 
BRANCH   9  10
ATOM     10  C   UNL     1      -1.323  10.729  19.366  0.00  0.00    +0.000 C 
BRANCH  10  11
ATOM     11  C   UNL     1      -1.030  10.288  17.941  0.00  0.00    +0.000 C 
BRANCH  11  12
ATOM     12  C   UNL     1      -2.306   9.799  17.271  0.00  0.00    +0.000 C 
BRANCH  12  14
ATOM     13  C   UNL     1      -4.138  11.313  16.507  0.00  0.00    +0.000 C 
ATOM     14  C   UNL     1      -2.754  10.777  16.195  0.00  0.00    +0.000 C 
ENDBRANCH  12  14
ENDBRANCH  11  12
ENDBRANCH  10  11
ENDBRANCH   9  10
ENDBRANCH   8   9
ENDBRANCH   7   8
ENDBRANCH   6   7
ENDBRANCH   5   6
ENDBRANCH   4   5
ENDBRANCH   3   4
ENDBRANCH   2   3
ENDBRANCH   1   2
BRANCH   1  15
ATOM     15  C   UNL     1       2.543   2.152  18.427  0.00  0.00    +0.000 C 
BRANCH  15  16
ATOM     16  C   UNL     1       3.800   2.578  17.686  0.00  0.00    +0.000 C 
BRANCH  16  17
ATOM     17  C   UNL     1       3.704   4.027  17.204  0.00  0.00    +0.000 C 
BRANCH  17  18
ATOM     18  C   UNL     1       5.053   4.702  17.431  0.00  0.00    +0.000 C 
BRANCH  18  19
ATOM     19  N   UNL     1       6.124   4.045  16.667  0.00  0.00    +0.000 NA
ATOM     20  H   UNL     1       5.948   3.056  16.503  0.00  0.00    +0.000 HD
BRANCH  19  21
ATOM     21  S   UNL     1       6.400   4.713  15.152  0.00  0.00    +0.000 S 
ATOM     22  O   UNL     1       5.269   5.558  14.840  0.00  0.00    +0.000 OA
ATOM     23  O   UNL     1       7.760   5.184  15.100  0.00  0.00    +0.000 OA
BRANCH  21  24
ATOM     24  N   UNL     1       6.270   3.325  14.208  0.00  0.00    +0.000 NA
ATOM     25  H   UNL     1       5.590   2.714  14.662  0.00  0.00    +0.000 HD
BRANCH  24  26
ATOM     26  C   UNL     1       5.892   3.665  12.812  0.00  0.00    +0.000 C 
BRANCH  26  27
ATOM     27  C   UNL     1       7.046   3.478  11.827  0.00  0.00    +0.000 C 
ATOM     28  C   UNL     1       7.074   2.084  11.225  0.00  0.00    +0.000 C 
ENDBRANCH  26  27
ENDBRANCH  24  26
ENDBRANCH  21  24
ENDBRANCH  19  21
ENDBRANCH  18  19
ENDBRANCH  17  18
ENDBRANCH  16  17
ENDBRANCH  15  16
ENDBRANCH   1  15
TORSDOF 21
ENDMDL
