MODEL 1
REMARK VINA RESULT:      -5.7      0.000      0.000
REMARK  Name = 
REMARK  7 active torsions:
REMARK  status: ('A' for Active; 'I' for Inactive)
REMARK    1  A    between atoms: C_1  and  C_2
REMARK    2  A    between atoms: C_4  and  C_5
REMARK    3  A    between atoms: C_7  and  O_8
REMARK    4  A    between atoms: O_8  and  P_9
REMARK    5  A    between atoms: P_9  and  O_11
REMARK    6  A    between atoms: P_9  and  O_12
REMARK    7  A    between atoms: C_13  and  C_14
REMARK                            x       y       z     vdW  Elec       q    Type
REMARK                         _______ _______ _______ _____ _____    ______ ____
ROOT
ATOM      1  C   UNL     1       6.520   5.235  15.643  0.00  0.00    +0.000 C 
ATOM      2  C   UNL     1       5.280   5.015  16.457  0.00  0.00    +0.000 A 
ATOM      3  C   UNL     1       4.759   3.737  16.652  0.00  0.00    +0.000 A 
ATOM      4  C   UNL     1       3.597   3.557  17.417  0.00  0.00    +0.000 A 
ATOM      5  C   UNL     1       2.914   4.648  17.996  0.00  0.00    +0.000 A 
ATOM      6  C   UNL     1       3.430   5.933  17.779  0.00  0.00    +0.000 A 
ATOM      7  C   UNL     1       4.609   6.103  17.023  0.00  0.00    +0.000 A 
ENDROOT
BRANCH   4   8
ATOM      8  C   UNL     1       3.121   2.167  17.618  0.00  0.00    +0.000 C 
ATOM      9  O   UNL     1       3.487   1.485  18.567  0.00  0.00    +0.000 OA
ENDBRANCH   4   8
BRANCH   6  10
ATOM     10  C   UNL     1       2.789   7.185  18.218  0.00  0.00    +0.000 C 
ATOM     11  O   UNL     1       2.918   8.225  17.584  0.00  0.00    +0.000 OA
ENDBRANCH   6  10
BRANCH   5  12
ATOM     12  O   UNL     1       1.783   4.318  18.688  0.00  0.00    +0.000 OA
BRANCH  12  13
ATOM     13  P   UNL     1       1.523   4.237  20.260  0.00  0.00    +0.000 P 
ATOM     14  O   UNL     1       1.259   5.508  20.987  0.00  0.00    +0.000 OA
BRANCH  13  15
ATOM     15  O   UNL     1       0.349   3.161  20.372  0.00  0.00    +0.000 OA
ATOM     16  H   UNL     1       0.491   2.533  21.102  0.00  0.00    +0.000 HD
ENDBRANCH  13  15
BRANCH  13  17
ATOM     17  O   UNL     1       2.719   3.383  20.881  0.00  0.00    +0.000 OA
ATOM     18  H   UNL     1       2.608   2.435  20.666  0.00  0.00    +0.000 HD
ENDBRANCH  13  17
ENDBRANCH  12  13
ENDBRANCH   5  12
TORSDOF 6
ENDMDL
MODEL 2
REMARK VINA RESULT:      -5.7      2.187      4.003
REMARK  Name = 
REMARK  7 active torsions:
REMARK  status: ('A' for Active; 'I' for Inactive)
REMARK    1  A    between atoms: C_1  and  C_2
REMARK    2  A    between atoms: C_4  and  C_5
REMARK    3  A    between atoms: C_7  and  O_8
REMARK    4  A    between atoms: O_8  and  P_9
REMARK    5  A    between atoms: P_9  and  O_11
REMARK    6  A    between atoms: P_9  and  O_12
REMARK    7  A    between atoms: C_13  and  C_14
REMARK                            x       y       z     vdW  Elec       q    Type
REMARK                         _______ _______ _______ _____ _____    ______ ____
ROOT
ATOM      1  C   UNL     1       1.474   9.376  18.352  0.00  0.00    +0.000 C 
ATOM      2  C   UNL     1       2.223   8.089  18.532  0.00  0.00    +0.000 A 
ATOM      3  C   UNL     1       1.942   7.230  19.593  0.00  0.00    +0.000 A 
ATOM      4  C   UNL     1       2.658   6.032  19.741  0.00  0.00    +0.000 A 
ATOM      5  C   UNL     1       3.683   5.665  18.843  0.00  0.00    +0.000 A 
ATOM      6  C   UNL     1       3.975   6.543  17.790  0.00  0.00    +0.000 A 
ATOM      7  C   UNL     1       3.239   7.737  17.639  0.00  0.00    +0.000 A 
ENDROOT
BRANCH   4   8
ATOM      8  C   UNL     1       2.280   5.146  20.868  0.00  0.00    +0.000 C 
ATOM      9  O   UNL     1       1.285   4.433  20.829  0.00  0.00    +0.000 OA
ENDBRANCH   4   8
BRANCH   6  10
ATOM     10  C   UNL     1       5.079   6.369  16.828  0.00  0.00    +0.000 C 
ATOM     11  O   UNL     1       5.052   5.486  15.979  0.00  0.00    +0.000 OA
ENDBRANCH   6  10
BRANCH   5  12
ATOM     12  O   UNL     1       4.307   4.486  19.132  0.00  0.00    +0.000 OA
BRANCH  12  13
ATOM     13  P   UNL     1       4.026   3.010  18.593  0.00  0.00    +0.000 P 
ATOM     14  O   UNL     1       2.608   2.593  18.421  0.00  0.00    +0.000 OA
BRANCH  13  15
ATOM     15  O   UNL     1       4.896   2.947  17.256  0.00  0.00    +0.000 OA
ATOM     16  H   UNL     1       5.689   3.509  17.305  0.00  0.00    +0.000 HD
ENDBRANCH  13  15
BRANCH  13  17
ATOM     17  O   UNL     1       4.878   2.017  19.505  0.00  0.00    +0.000 OA
ATOM     18  H   UNL     1       5.557   1.560  18.969  0.00  0.00    +0.000 HD
ENDBRANCH  13  17
ENDBRANCH  12  13
ENDBRANCH   5  12
TORSDOF 6
ENDMDL
MODEL 3
REMARK VINA RESULT:      -5.7      2.189      3.884
REMARK  Name = 
REMARK  7 active torsions:
REMARK  status: ('A' for Active; 'I' for Inactive)
REMARK    1  A    between atoms: C_1  and  C_2
REMARK    2  A    between atoms: C_4  and  C_5
REMARK    3  A    between atoms: C_7  and  O_8
REMARK    4  A    between atoms: O_8  and  P_9
REMARK    5  A    between atoms: P_9  and  O_11
REMARK    6  A    between atoms: P_9  and  O_12
REMARK    7  A    between atoms: C_13  and  C_14
REMARK                            x       y       z     vdW  Elec       q    Type
REMARK                         _______ _______ _______ _____ _____    ______ ____
ROOT
ATOM      1  C   UNL     1       2.196   8.905  17.708  0.00  0.00    +0.000 C 
ATOM      2  C   UNL     1       2.791   7.616  18.189  0.00  0.00    +0.000 A 
ATOM      3  C   UNL     1       3.891   7.044  17.554  0.00  0.00    +0.000 A 
ATOM      4  C   UNL     1       4.429   5.836  18.022  0.00  0.00    +0.000 A 
ATOM      5  C   UNL     1       3.875   5.157  19.129  0.00  0.00    +0.000 A 
ATOM      6  C   UNL     1       2.756   5.727  19.751  0.00  0.00    +0.000 A 
ATOM      7  C   UNL     1       2.232   6.950  19.284  0.00  0.00    +0.000 A 
ENDROOT
BRANCH   4   8
ATOM      8  C   UNL     1       5.625   5.305  17.324  0.00  0.00    +0.000 C 
ATOM      9  O   UNL     1       6.762   5.537  17.714  0.00  0.00    +0.000 OA
ENDBRANCH   4   8
BRANCH   6  10
ATOM     10  C   UNL     1       1.991   5.102  20.847  0.00  0.00    +0.000 C 
ATOM     11  O   UNL     1       0.907   4.569  20.645  0.00  0.00    +0.000 OA
ENDBRANCH   6  10
BRANCH   5  12
ATOM     12  O   UNL     1       4.490   3.980  19.449  0.00  0.00    +0.000 OA
BRANCH  12  13
ATOM     13  P   UNL     1       4.032   2.474  19.190  0.00  0.00    +0.000 P 
ATOM     14  O   UNL     1       2.629   2.107  19.524  0.00  0.00    +0.000 OA
BRANCH  13  15
ATOM     15  O   UNL     1       4.425   2.240  17.660  0.00  0.00    +0.000 OA
ATOM     16  H   UNL     1       5.271   2.662  17.427  0.00  0.00    +0.000 HD
ENDBRANCH  13  15
BRANCH  13  17
ATOM     17  O   UNL     1       5.119   1.536  19.885  0.00  0.00    +0.000 OA
ATOM     18  H   UNL     1       5.731   2.071  20.429  0.00  0.00    +0.000 HD
ENDBRANCH  13  17
ENDBRANCH  12  13
ENDBRANCH   5  12
TORSDOF 6
ENDMDL
MODEL 4
REMARK VINA RESULT:      -5.7      3.146      5.373
REMARK  Name = 
REMARK  7 active torsions:
REMARK  status: ('A' for Active; 'I' for Inactive)
REMARK    1  A    between atoms: C_1  and  C_2
REMARK    2  A    between atoms: C_4  and  C_5
REMARK    3  A    between atoms: C_7  and  O_8
REMARK    4  A    between atoms: O_8  and  P_9
REMARK    5  A    between atoms: P_9  and  O_11
REMARK    6  A    between atoms: P_9  and  O_12
REMARK    7  A    between atoms: C_13  and  C_14
REMARK                            x       y       z     vdW  Elec       q    Type
REMARK                         _______ _______ _______ _____ _____    ______ ____
ROOT
ATOM      1  C   UNL     1       1.295   2.728  18.492  0.00  0.00    +0.000 C 
ATOM      2  C   UNL     1       2.367   3.686  18.068  0.00  0.00    +0.000 A 
ATOM      3  C   UNL     1       2.260   5.052  18.320  0.00  0.00    +0.000 A 
ATOM      4  C   UNL     1       3.276   5.929  17.912  0.00  0.00    +0.000 A 
ATOM      5  C   UNL     1       4.421   5.468  17.227  0.00  0.00    +0.000 A 
ATOM      6  C   UNL     1       4.514   4.096  16.957  0.00  0.00    +0.000 A 
ATOM      7  C   UNL     1       3.495   3.220  17.386  0.00  0.00    +0.000 A 
ENDROOT
BRANCH   4   8
ATOM      8  C   UNL     1       3.117   7.363  18.249  0.00  0.00    +0.000 C 
ATOM      9  O   UNL     1       2.116   7.792  18.811  0.00  0.00    +0.000 OA
ENDBRANCH   4   8
BRANCH   6  10
ATOM     10  C   UNL     1       5.583   3.463  16.163  0.00  0.00    +0.000 C 
ATOM     11  O   UNL     1       5.867   3.863  15.041  0.00  0.00    +0.000 OA
ENDBRANCH   6  10
BRANCH   5  12
ATOM     12  O   UNL     1       5.309   6.443  16.869  0.00  0.00    +0.000 OA
BRANCH  12  13
ATOM     13  P   UNL     1       6.832   6.658  17.296  0.00  0.00    +0.000 P 
ATOM     14  O   UNL     1       7.284   6.057  18.580  0.00  0.00    +0.000 OA
BRANCH  13  15
ATOM     15  O   UNL     1       7.637   6.149  16.015  0.00  0.00    +0.000 OA
ATOM     16  H   UNL     1       7.269   5.324  15.651  0.00  0.00    +0.000 HD
ENDBRANCH  13  15
BRANCH  13  17
ATOM     17  O   UNL     1       7.125   8.222  17.184  0.00  0.00    +0.000 OA
ATOM     18  H   UNL     1       7.820   8.390  16.517  0.00  0.00    +0.000 HD
ENDBRANCH  13  17
ENDBRANCH  12  13
ENDBRANCH   5  12
TORSDOF 6
ENDMDL
MODEL 5
REMARK VINA RESULT:      -5.6      2.447      4.830
REMARK  Name = 
REMARK  7 active torsions:
REMARK  status: ('A' for Active; 'I' for Inactive)
REMARK    1  A    between atoms: C_1  and  C_2
REMARK    2  A    between atoms: C_4  and  C_5
REMARK    3  A    between atoms: C_7  and  O_8
REMARK    4  A    between atoms: O_8  and  P_9
REMARK    5  A    between atoms: P_9  and  O_11
REMARK    6  A    between atoms: P_9  and  O_12
REMARK    7  A    between atoms: C_13  and  C_14
REMARK                            x       y       z     vdW  Elec       q    Type
REMARK                         _______ _______ _______ _____ _____    ______ ____
ROOT
ATOM      1  C   UNL     1       0.960   8.144  20.920  0.00  0.00    +0.000 C 
ATOM      2  C   UNL     1       1.732   6.945  20.455  0.00  0.00    +0.000 A 
ATOM      3  C   UNL     1       2.728   7.056  19.488  0.00  0.00    +0.000 A 
ATOM      4  C   UNL     1       3.436   5.919  19.068  0.00  0.00    +0.000 A 
ATOM      5  C   UNL     1       3.159   4.638  19.592  0.00  0.00    +0.000 A 
ATOM      6  C   UNL     1       2.141   4.530  20.549  0.00  0.00    +0.000 A 
ATOM      7  C   UNL     1       1.447   5.681  20.978  0.00  0.00    +0.000 A 
ENDROOT
BRANCH   4   8
ATOM      8  C   UNL     1       4.510   6.116  18.066  0.00  0.00    +0.000 C 
ATOM      9  O   UNL     1       4.323   5.941  16.868  0.00  0.00    +0.000 OA
ENDBRANCH   4   8
BRANCH   6  10
ATOM     10  C   UNL     1       1.652   3.261  21.120  0.00  0.00    +0.000 C 
ATOM     11  O   UNL     1       2.053   2.852  22.203  0.00  0.00    +0.000 OA
ENDBRANCH   6  10
BRANCH   5  12
ATOM     12  O   UNL     1       3.910   3.626  19.066  0.00  0.00    +0.000 OA
BRANCH  12  13
ATOM     13  P   UNL     1       3.581   2.602  17.887  0.00  0.00    +0.000 P 
ATOM     14  O   UNL     1       2.230   2.668  17.268  0.00  0.00    +0.000 OA
BRANCH  13  15
ATOM     15  O   UNL     1       4.784   2.838  16.864  0.00  0.00    +0.000 OA
ATOM     16  H   UNL     1       4.517   2.691  15.939  0.00  0.00    +0.000 HD
ENDBRANCH  13  15
BRANCH  13  17
ATOM     17  O   UNL     1       3.970   1.149  18.417  0.00  0.00    +0.000 OA
ATOM     18  H   UNL     1       4.720   0.789  17.903  0.00  0.00    +0.000 HD
ENDBRANCH  13  17
ENDBRANCH  12  13
ENDBRANCH   5  12
TORSDOF 6
ENDMDL
MODEL 6
REMARK VINA RESULT:      -5.6      2.317      4.194
REMARK  Name = 
REMARK  7 active torsions:
REMARK  status: ('A' for Active; 'I' for Inactive)
REMARK    1  A    between atoms: C_1  and  C_2
REMARK    2  A    between atoms: C_4  and  C_5
REMARK    3  A    between atoms: C_7  and  O_8
REMARK    4  A    between atoms: O_8  and  P_9
REMARK    5  A    between atoms: P_9  and  O_11
REMARK    6  A    between atoms: P_9  and  O_12
REMARK    7  A    between atoms: C_13  and  C_14
REMARK                            x       y       z     vdW  Elec       q    Type
REMARK                         _______ _______ _______ _____ _____    ______ ____
ROOT
ATOM      1  C   UNL     1       1.152   8.720  20.467  0.00  0.00    +0.000 C 
ATOM      2  C   UNL     1       1.818   7.428  20.099  0.00  0.00    +0.000 A 
ATOM      3  C   UNL     1       1.655   6.282  20.875  0.00  0.00    +0.000 A 
ATOM      4  C   UNL     1       2.290   5.085  20.510  0.00  0.00    +0.000 A 
ATOM      5  C   UNL     1       3.119   5.003  19.370  0.00  0.00    +0.000 A 
ATOM      6  C   UNL     1       3.296   6.164  18.606  0.00  0.00    +0.000 A 
ATOM      7  C   UNL     1       2.640   7.358  18.970  0.00  0.00    +0.000 A 
ENDROOT
BRANCH   4   8
ATOM      8  C   UNL     1       2.040   3.894  21.357  0.00  0.00    +0.000 C 
ATOM      9  O   UNL     1       1.203   3.050  21.062  0.00  0.00    +0.000 OA
ENDBRANCH   4   8
BRANCH   6  10
ATOM     10  C   UNL     1       4.205   6.283  17.451  0.00  0.00    +0.000 C 
ATOM     11  O   UNL     1       5.405   6.058  17.558  0.00  0.00    +0.000 OA
ENDBRANCH   6  10
BRANCH   5  12
ATOM     12  O   UNL     1       3.690   3.780  19.161  0.00  0.00    +0.000 OA
BRANCH  12  13
ATOM     13  P   UNL     1       3.506   2.748  17.957  0.00  0.00    +0.000 P 
ATOM     14  O   UNL     1       2.237   2.805  17.183  0.00  0.00    +0.000 OA
BRANCH  13  15
ATOM     15  O   UNL     1       4.820   2.983  17.082  0.00  0.00    +0.000 OA
ATOM     16  H   UNL     1       5.347   3.736  17.402  0.00  0.00    +0.000 HD
ENDBRANCH  13  15
BRANCH  13  17
ATOM     17  O   UNL     1       3.835   1.299  18.538  0.00  0.00    +0.000 OA
ATOM     18  H   UNL     1       4.772   1.073  18.376  0.00  0.00    +0.000 HD
ENDBRANCH  13  17
ENDBRANCH  12  13
ENDBRANCH   5  12
TORSDOF 6
ENDMDL
MODEL 7
REMARK VINA RESULT:      -5.6      1.899      3.746
REMARK  Name = 
REMARK  7 active torsions:
REMARK  status: ('A' for Active; 'I' for Inactive)
REMARK    1  A    between atoms: C_1  and  C_2
REMARK    2  A    between atoms: C_4  and  C_5
REMARK    3  A    between atoms: C_7  and  O_8
REMARK    4  A    between atoms: O_8  and  P_9
REMARK    5  A    between atoms: P_9  and  O_11
REMARK    6  A    between atoms: P_9  and  O_12
REMARK    7  A    between atoms: C_13  and  C_14
REMARK                            x       y       z     vdW  Elec       q    Type
REMARK                         _______ _______ _______ _____ _____    ______ ____
ROOT
ATOM      1  C   UNL     1       2.236   9.210  18.023  0.00  0.00    +0.000 C 
ATOM      2  C   UNL     1       2.616   7.777  18.243  0.00  0.00    +0.000 A 
ATOM      3  C   UNL     1       2.177   7.074  19.363  0.00  0.00    +0.000 A 
ATOM      4  C   UNL     1       2.548   5.733  19.547  0.00  0.00    +0.000 A 
ATOM      5  C   UNL     1       3.380   5.061  18.626  0.00  0.00    +0.000 A 
ATOM      6  C   UNL     1       3.836   5.780  17.512  0.00  0.00    +0.000 A 
ATOM      7  C   UNL     1       3.444   7.122  17.326  0.00  0.00    +0.000 A 
ENDROOT
BRANCH   4   8
ATOM      8  C   UNL     1       2.011   5.034  20.739  0.00  0.00    +0.000 C 
ATOM      9  O   UNL     1       0.954   4.416  20.709  0.00  0.00    +0.000 OA
ENDBRANCH   4   8
BRANCH   6  10
ATOM     10  C   UNL     1       4.792   5.269  16.512  0.00  0.00    +0.000 C 
ATOM     11  O   UNL     1       5.306   6.010  15.683  0.00  0.00    +0.000 OA
ENDBRANCH   6  10
BRANCH   5  12
ATOM     12  O   UNL     1       3.676   3.769  18.954  0.00  0.00    +0.000 OA
BRANCH  12  13
ATOM     13  P   UNL     1       3.019   2.402  18.458  0.00  0.00    +0.000 P 
ATOM     14  O   UNL     1       2.346   2.396  17.132  0.00  0.00    +0.000 OA
BRANCH  13  15
ATOM     15  O   UNL     1       4.222   1.360  18.588  0.00  0.00    +0.000 OA
ATOM     16  H   UNL     1       4.902   1.657  19.218  0.00  0.00    +0.000 HD
ENDBRANCH  13  15
BRANCH  13  17
ATOM     17  O   UNL     1       2.093   1.879  19.647  0.00  0.00    +0.000 OA
ATOM     18  H   UNL     1       2.243   2.411  20.454  0.00  0.00    +0.000 HD
ENDBRANCH  13  17
ENDBRANCH  12  13
ENDBRANCH   5  12
TORSDOF 6
ENDMDL
MODEL 8
REMARK VINA RESULT:      -5.5      0.792      3.410
REMARK  Name = 
REMARK  7 active torsions:
REMARK  status: ('A' for Active; 'I' for Inactive)
REMARK    1  A    between atoms: C_1  and  C_2
REMARK    2  A    between atoms: C_4  and  C_5
REMARK    3  A    between atoms: C_7  and  O_8
REMARK    4  A    between atoms: O_8  and  P_9
REMARK    5  A    between atoms: P_9  and  O_11
REMARK    6  A    between atoms: P_9  and  O_12
REMARK    7  A    between atoms: C_13  and  C_14
REMARK                            x       y       z     vdW  Elec       q    Type
REMARK                         _______ _______ _______ _____ _____    ______ ____
ROOT
ATOM      1  C   UNL     1       6.511   5.061  15.141  0.00  0.00    +0.000 C 
ATOM      2  C   UNL     1       5.341   5.098  16.078  0.00  0.00    +0.000 A 
ATOM      3  C   UNL     1       4.859   6.302  16.587  0.00  0.00    +0.000 A 
ATOM      4  C   UNL     1       3.763   6.311  17.464  0.00  0.00    +0.000 A 
ATOM      5  C   UNL     1       3.128   5.117  17.868  0.00  0.00    +0.000 A 
ATOM      6  C   UNL     1       3.630   3.908  17.368  0.00  0.00    +0.000 A 
ATOM      7  C   UNL     1       4.721   3.910  16.474  0.00  0.00    +0.000 A 
ENDROOT
BRANCH   4   8
ATOM      8  C   UNL     1       3.277   7.630  17.935  0.00  0.00    +0.000 C 
ATOM      9  O   UNL     1       2.530   8.327  17.260  0.00  0.00    +0.000 OA
ENDBRANCH   4   8
BRANCH   6  10
ATOM     10  C   UNL     1       3.156   2.569  17.767  0.00  0.00    +0.000 C 
ATOM     11  O   UNL     1       2.006   2.209  17.549  0.00  0.00    +0.000 OA
ENDBRANCH   6  10
BRANCH   5  12
ATOM     12  O   UNL     1       2.094   5.284  18.745  0.00  0.00    +0.000 OA
BRANCH  12  13
ATOM     13  P   UNL     1       1.957   4.843  20.273  0.00  0.00    +0.000 P 
ATOM     14  O   UNL     1       3.093   4.105  20.887  0.00  0.00    +0.000 OA
BRANCH  13  15
ATOM     15  O   UNL     1       1.590   6.212  21.008  0.00  0.00    +0.000 OA
ATOM     16  H   UNL     1       0.661   6.237  21.298  0.00  0.00    +0.000 HD
ENDBRANCH  13  15
BRANCH  13  17
ATOM     17  O   UNL     1       0.558   4.090  20.410  0.00  0.00    +0.000 OA
ATOM     18  H   UNL     1       0.133   4.313  21.263  0.00  0.00    +0.000 HD
ENDBRANCH  13  17
ENDBRANCH  12  13
ENDBRANCH   5  12
TORSDOF 6
ENDMDL
MODEL 9
REMARK VINA RESULT:      -5.5      1.973      3.813
REMARK  Name = 
REMARK  7 active torsions:
REMARK  status: ('A' for Active; 'I' for Inactive)
REMARK    1  A    between atoms: C_1  and  C_2
REMARK    2  A    between atoms: C_4  and  C_5
REMARK    3  A    between atoms: C_7  and  O_8
REMARK    4  A    between atoms: O_8  and  P_9
REMARK    5  A    between atoms: P_9  and  O_11
REMARK    6  A    between atoms: P_9  and  O_12
REMARK    7  A    between atoms: C_13  and  C_14
REMARK                            x       y       z     vdW  Elec       q    Type
REMARK                         _______ _______ _______ _____ _____    ______ ____
ROOT
ATOM      1  C   UNL     1       2.322   9.243  17.905  0.00  0.00    +0.000 C 
ATOM      2  C   UNL     1       2.723   7.819  18.151  0.00  0.00    +0.000 A 
ATOM      3  C   UNL     1       3.619   7.162  17.310  0.00  0.00    +0.000 A 
ATOM      4  C   UNL     1       3.977   5.829  17.561  0.00  0.00    +0.000 A 
ATOM      5  C   UNL     1       3.439   5.110  18.650  0.00  0.00    +0.000 A 
ATOM      6  C   UNL     1       2.522   5.769  19.481  0.00  0.00    +0.000 A 
ATOM      7  C   UNL     1       2.181   7.114  19.230  0.00  0.00    +0.000 A 
ENDROOT
BRANCH   4   8
ATOM      8  C   UNL     1       4.966   5.205  16.651  0.00  0.00    +0.000 C 
ATOM      9  O   UNL     1       5.202   5.658  15.537  0.00  0.00    +0.000 OA
ENDBRANCH   4   8
BRANCH   6  10
ATOM     10  C   UNL     1       1.788   5.139  20.594  0.00  0.00    +0.000 C 
ATOM     11  O   UNL     1       2.375   4.556  21.497  0.00  0.00    +0.000 OA
ENDBRANCH   6  10
BRANCH   5  12
ATOM     12  O   UNL     1       3.861   3.814  18.749  0.00  0.00    +0.000 OA
BRANCH  12  13
ATOM     13  P   UNL     1       3.076   2.451  18.480  0.00  0.00    +0.000 P 
ATOM     14  O   UNL     1       2.231   1.908  19.578  0.00  0.00    +0.000 OA
BRANCH  13  15
ATOM     15  O   UNL     1       2.280   2.758  17.131  0.00  0.00    +0.000 OA
ATOM     16  H   UNL     1       2.648   2.278  16.367  0.00  0.00    +0.000 HD
ENDBRANCH  13  15
BRANCH  13  17
ATOM     17  O   UNL     1       4.144   1.407  17.921  0.00  0.00    +0.000 OA
ATOM     18  H   UNL     1       4.929   1.378  18.504  0.00  0.00    +0.000 HD
ENDBRANCH  13  17
ENDBRANCH  12  13
ENDBRANCH   5  12
TORSDOF 6
ENDMDL
