MODEL 1
REMARK VINA RESULT:      -8.5      0.000      0.000
REMARK  Name = 
REMARK  8 active torsions:
REMARK  status: ('A' for Active; 'I' for Inactive)
REMARK    1  A    between atoms: C_1  and  C_2
REMARK    2  A    between atoms: C_4  and  C_5
REMARK    3  A    between atoms: C_14  and  C_15
REMARK    4  A    between atoms: N_17  and  C_18
REMARK    5  A    between atoms: N_17  and  C_19
REMARK    6  A    between atoms: C_22  and  C_23
REMARK    7  A    between atoms: C_23  and  N_24
REMARK    8  A    between atoms: C_28  and  C_29
REMARK                            x       y       z     vdW  Elec       q    Type
REMARK                         _______ _______ _______ _____ _____    ______ ____
ROOT
ATOM      1  C   UNL     1       0.583  10.824  21.125  0.00  0.00    +0.000 C 
ATOM      2  O   UNL     1       1.482  10.552  21.932  0.00  0.00    +0.000 OA
ATOM      3  N   UNL     1       0.433  10.092  19.927  0.00  0.00    +0.000 N 
ATOM      4  C   UNL     1      -0.426  10.488  18.821  0.00  0.00    +0.000 C 
ENDROOT
BRANCH   1  11
ATOM      5  C   UNL     1       0.425  14.006  20.219  0.00  0.00    +0.000 C 
ATOM      6  C   UNL     1      -0.395  13.284  21.242  0.00  0.00    +0.000 A 
ATOM      7  N   UNL     1      -1.268  14.130  21.846  0.00  0.00    +0.000 NA
ATOM      8  C   UNL     1      -2.004  13.690  22.880  0.00  0.00    +0.000 A 
ATOM      9  N   UNL     1      -1.966  12.431  23.327  0.00  0.00    +0.000 NA
ATOM     10  C   UNL     1      -1.134  11.594  22.663  0.00  0.00    +0.000 A 
ATOM     11  C   UNL     1      -0.313  11.932  21.577  0.00  0.00    +0.000 A 
BRANCH   8  12
ATOM     12  C   UNL     1      -2.851  14.670  23.580  0.00  0.00    +0.000 A 
ATOM     13  C   UNL     1      -4.227  14.775  23.290  0.00  0.00    +0.000 A 
ATOM     14  C   UNL     1      -5.043  15.709  23.932  0.00  0.00    +0.000 A 
ATOM     15  C   UNL     1      -4.486  16.565  24.873  0.00  0.00    +0.000 A 
ATOM     16  F   UNL     1      -5.264  17.466  25.485  0.00  0.00    +0.000 F 
ATOM     17  C   UNL     1      -3.137  16.504  25.181  0.00  0.00    +0.000 A 
ATOM     18  C   UNL     1      -2.323  15.561  24.544  0.00  0.00    +0.000 A 
ENDBRANCH   8  12
ENDBRANCH   1  11
BRANCH   3  19
ATOM     19  C   UNL     1       1.179   8.862  19.721  0.00  0.00    +0.000 A 
ATOM     20  C   UNL     1       1.252   7.847  20.695  0.00  0.00    +0.000 A 
ATOM     21  C   UNL     1       1.915   6.622  20.435  0.00  0.00    +0.000 A 
ATOM     22  C   UNL     1       2.529   6.382  19.203  0.00  0.00    +0.000 A 
ATOM     23  C   UNL     1       2.480   7.414  18.247  0.00  0.00    +0.000 A 
ATOM     24  C   UNL     1       1.806   8.618  18.497  0.00  0.00    +0.000 A 
BRANCH  22  25
ATOM     25  C   UNL     1       3.370   5.157  18.861  0.00  0.00    +0.000 C 
BRANCH  25  26
ATOM     26  N   UNL     1       3.047   4.396  17.647  0.00  0.00    +0.000 NA
ATOM     27  C   UNL     1       3.935   3.247  17.414  0.00  0.00    +0.000 C 
ATOM     28  C   UNL     1       3.671   1.953  18.228  0.00  0.00    +0.000 C 
ATOM     29  N   UNL     1       2.317   1.643  18.675  0.00  0.00    +0.000 NA
ATOM     30  C   UNL     1       1.326   2.716  18.642  0.00  0.00    +0.000 C 
ATOM     31  C   UNL     1       0.931   3.188  20.050  0.00  0.00    +0.000 C 
ATOM     32  C   UNL     1       1.652   3.888  17.669  0.00  0.00    +0.000 C 
ATOM     33  H   UNL     1       2.326   1.144  19.567  0.00  0.00    +0.000 HD
ENDBRANCH  25  26
ENDBRANCH  22  25
ENDBRANCH   3  19
TORSDOF 5
ENDMDL
MODEL 2
REMARK VINA RESULT:      -8.0      0.986      1.842
REMARK  Name = 
REMARK  8 active torsions:
REMARK  status: ('A' for Active; 'I' for Inactive)
REMARK    1  A    between atoms: C_1  and  C_2
REMARK    2  A    between atoms: C_4  and  C_5
REMARK    3  A    between atoms: C_14  and  C_15
REMARK    4  A    between atoms: N_17  and  C_18
REMARK    5  A    between atoms: N_17  and  C_19
REMARK    6  A    between atoms: C_22  and  C_23
REMARK    7  A    between atoms: C_23  and  N_24
REMARK    8  A    between atoms: C_28  and  C_29
REMARK                            x       y       z     vdW  Elec       q    Type
REMARK                         _______ _______ _______ _____ _____    ______ ____
ROOT
ATOM      1  C   UNL     1       0.253  11.602  20.940  0.00  0.00    +0.000 C 
ATOM      2  O   UNL     1       1.357  11.614  21.500  0.00  0.00    +0.000 OA
ATOM      3  N   UNL     1      -0.054  10.637  19.955  0.00  0.00    +0.000 N 
ATOM      4  C   UNL     1      -1.215  10.693  19.081  0.00  0.00    +0.000 C 
ENDROOT
BRANCH   1  11
ATOM      5  C   UNL     1      -0.731  14.473  19.615  0.00  0.00    +0.000 C 
ATOM      6  C   UNL     1      -1.107  13.876  20.935  0.00  0.00    +0.000 A 
ATOM      7  N   UNL     1      -1.937  14.703  21.621  0.00  0.00    +0.000 NA
ATOM      8  C   UNL     1      -2.284  14.392  22.881  0.00  0.00    +0.000 A 
ATOM      9  N   UNL     1      -1.894  13.271  23.496  0.00  0.00    +0.000 NA
ATOM     10  C   UNL     1      -1.120  12.435  22.764  0.00  0.00    +0.000 A 
ATOM     11  C   UNL     1      -0.687  12.648  21.446  0.00  0.00    +0.000 A 
BRANCH   8  12
ATOM     12  C   UNL     1      -3.090  15.372  23.628  0.00  0.00    +0.000 A 
ATOM     13  C   UNL     1      -2.487  16.251  24.551  0.00  0.00    +0.000 A 
ATOM     14  C   UNL     1      -3.238  17.177  25.279  0.00  0.00    +0.000 A 
ATOM     15  C   UNL     1      -4.614  17.228  25.100  0.00  0.00    +0.000 A 
ATOM     16  F   UNL     1      -5.337  18.109  25.802  0.00  0.00    +0.000 F 
ATOM     17  C   UNL     1      -5.249  16.376  24.212  0.00  0.00    +0.000 A 
ATOM     18  C   UNL     1      -4.494  15.456  23.476  0.00  0.00    +0.000 A 
ENDBRANCH   8  12
ENDBRANCH   1  11
BRANCH   3  19
ATOM     19  C   UNL     1       0.827   9.501  19.742  0.00  0.00    +0.000 A 
ATOM     20  C   UNL     1       1.062   8.527  20.733  0.00  0.00    +0.000 A 
ATOM     21  C   UNL     1       1.857   7.385  20.469  0.00  0.00    +0.000 A 
ATOM     22  C   UNL     1       2.445   7.189  19.217  0.00  0.00    +0.000 A 
ATOM     23  C   UNL     1       2.231   8.182  18.243  0.00  0.00    +0.000 A 
ATOM     24  C   UNL     1       1.428   9.302  18.497  0.00  0.00    +0.000 A 
BRANCH  22  25
ATOM     25  C   UNL     1       3.414   6.065  18.864  0.00  0.00    +0.000 C 
BRANCH  25  26
ATOM     26  N   UNL     1       3.229   4.750  19.492  0.00  0.00    +0.000 NA
ATOM     27  C   UNL     1       1.870   4.207  19.338  0.00  0.00    +0.000 C 
ATOM     28  C   UNL     1       1.506   3.547  17.982  0.00  0.00    +0.000 C 
ATOM     29  N   UNL     1       2.550   2.917  17.182  0.00  0.00    +0.000 NA
ATOM     30  C   UNL     1       3.940   3.224  17.508  0.00  0.00    +0.000 C 
ATOM     31  C   UNL     1       4.614   4.091  16.434  0.00  0.00    +0.000 C 
ATOM     32  C   UNL     1       4.178   3.744  18.957  0.00  0.00    +0.000 C 
ATOM     33  H   UNL     1       2.353   3.004  16.182  0.00  0.00    +0.000 HD
ENDBRANCH  25  26
ENDBRANCH  22  25
ENDBRANCH   3  19
TORSDOF 5
ENDMDL
MODEL 3
REMARK VINA RESULT:      -7.9      1.632      2.644
REMARK  Name = 
REMARK  8 active torsions:
REMARK  status: ('A' for Active; 'I' for Inactive)
REMARK    1  A    between atoms: C_1  and  C_2
REMARK    2  A    between atoms: C_4  and  C_5
REMARK    3  A    between atoms: C_14  and  C_15
REMARK    4  A    between atoms: N_17  and  C_18
REMARK    5  A    between atoms: N_17  and  C_19
REMARK    6  A    between atoms: C_22  and  C_23
REMARK    7  A    between atoms: C_23  and  N_24
REMARK    8  A    between atoms: C_28  and  C_29
REMARK                            x       y       z     vdW  Elec       q    Type
REMARK                         _______ _______ _______ _____ _____    ______ ____
ROOT
ATOM      1  C   UNL     1       0.632  11.246  20.757  0.00  0.00    +0.000 C 
ATOM      2  O   UNL     1       1.817  11.388  21.085  0.00  0.00    +0.000 OA
ATOM      3  N   UNL     1       0.259  10.321  19.757  0.00  0.00    +0.000 N 
ATOM      4  C   UNL     1      -1.057  10.260  19.140  0.00  0.00    +0.000 C 
ENDROOT
BRANCH   1  11
ATOM      5  C   UNL     1      -1.303  10.520  23.345  0.00  0.00    +0.000 C 
ATOM      6  C   UNL     1      -1.163  11.822  22.619  0.00  0.00    +0.000 A 
ATOM      7  N   UNL     1      -1.998  12.757  23.139  0.00  0.00    +0.000 NA
ATOM      8  C   UNL     1      -2.102  13.954  22.538  0.00  0.00    +0.000 A 
ATOM      9  N   UNL     1      -1.384  14.305  21.467  0.00  0.00    +0.000 NA
ATOM     10  C   UNL     1      -0.512  13.374  21.010  0.00  0.00    +0.000 A 
ATOM     11  C   UNL     1      -0.315  12.093  21.545  0.00  0.00    +0.000 A 
BRANCH   8  12
ATOM     12  C   UNL     1      -3.104  14.896  23.065  0.00  0.00    +0.000 A 
ATOM     13  C   UNL     1      -4.479  14.705  22.816  0.00  0.00    +0.000 A 
ATOM     14  C   UNL     1      -5.442  15.596  23.295  0.00  0.00    +0.000 A 
ATOM     15  C   UNL     1      -5.038  16.705  24.026  0.00  0.00    +0.000 A 
ATOM     16  F   UNL     1      -5.958  17.565  24.480  0.00  0.00    +0.000 F 
ATOM     17  C   UNL     1      -3.697  16.938  24.285  0.00  0.00    +0.000 A 
ATOM     18  C   UNL     1      -2.734  16.039  23.813  0.00  0.00    +0.000 A 
ENDBRANCH   8  12
ENDBRANCH   1  11
BRANCH   3  19
ATOM     19  C   UNL     1       1.222   9.354  19.256  0.00  0.00    +0.000 A 
ATOM     20  C   UNL     1       1.581   8.198  19.977  0.00  0.00    +0.000 A 
ATOM     21  C   UNL     1       2.457   7.230  19.428  0.00  0.00    +0.000 A 
ATOM     22  C   UNL     1       3.005   7.393  18.153  0.00  0.00    +0.000 A 
ATOM     23  C   UNL     1       2.667   8.567  17.453  0.00  0.00    +0.000 A 
ATOM     24  C   UNL     1       1.784   9.515  17.987  0.00  0.00    +0.000 A 
BRANCH  22  25
ATOM     25  C   UNL     1       4.049   6.480  17.518  0.00  0.00    +0.000 C 
BRANCH  25  26
ATOM     26  N   UNL     1       4.235   5.132  18.069  0.00  0.00    +0.000 NA
ATOM     27  C   UNL     1       4.284   4.076  17.046  0.00  0.00    +0.000 C 
ATOM     28  C   UNL     1       5.614   3.882  16.271  0.00  0.00    +0.000 C 
ATOM     29  N   UNL     1       6.880   4.221  16.912  0.00  0.00    +0.000 NA
ATOM     30  C   UNL     1       6.835   5.046  18.118  0.00  0.00    +0.000 C 
ATOM     31  C   UNL     1       7.382   6.461  17.877  0.00  0.00    +0.000 C 
ATOM     32  C   UNL     1       5.476   5.032  18.877  0.00  0.00    +0.000 C 
ATOM     33  H   UNL     1       7.562   4.560  16.230  0.00  0.00    +0.000 HD
ENDBRANCH  25  26
ENDBRANCH  22  25
ENDBRANCH   3  19
TORSDOF 5
ENDMDL
MODEL 4
REMARK VINA RESULT:      -7.8      1.064      1.609
REMARK  Name = 
REMARK  8 active torsions:
REMARK  status: ('A' for Active; 'I' for Inactive)
REMARK    1  A    between atoms: C_1  and  C_2
REMARK    2  A    between atoms: C_4  and  C_5
REMARK    3  A    between atoms: C_14  and  C_15
REMARK    4  A    between atoms: N_17  and  C_18
REMARK    5  A    between atoms: N_17  and  C_19
REMARK    6  A    between atoms: C_22  and  C_23
REMARK    7  A    between atoms: C_23  and  N_24
REMARK    8  A    between atoms: C_28  and  C_29
REMARK                            x       y       z     vdW  Elec       q    Type
REMARK                         _______ _______ _______ _____ _____    ______ ____
ROOT
ATOM      1  C   UNL     1      -0.302  10.074  21.205  0.00  0.00    +0.000 C 
ATOM      2  O   UNL     1      -0.556   9.023  21.808  0.00  0.00    +0.000 OA
ATOM      3  N   UNL     1       0.740  10.134  20.254  0.00  0.00    +0.000 N 
ATOM      4  C   UNL     1       1.265  11.365  19.683  0.00  0.00    +0.000 C 
ENDROOT
BRANCH   1  11
ATOM      5  C   UNL     1      -2.168  12.027  19.289  0.00  0.00    +0.000 C 
ATOM      6  C   UNL     1      -2.002  12.062  20.776  0.00  0.00    +0.000 A 
ATOM      7  N   UNL     1      -2.722  13.075  21.320  0.00  0.00    +0.000 NA
ATOM      8  C   UNL     1      -2.600  13.340  22.632  0.00  0.00    +0.000 A 
ATOM      9  N   UNL     1      -1.837  12.621  23.460  0.00  0.00    +0.000 NA
ATOM     10  C   UNL     1      -1.181  11.576  22.900  0.00  0.00    +0.000 A 
ATOM     11  C   UNL     1      -1.222  11.201  21.549  0.00  0.00    +0.000 A 
BRANCH   8  12
ATOM     12  C   UNL     1      -3.308  14.520  23.157  0.00  0.00    +0.000 A 
ATOM     13  C   UNL     1      -2.964  15.072  24.408  0.00  0.00    +0.000 A 
ATOM     14  C   UNL     1      -3.635  16.180  24.930  0.00  0.00    +0.000 A 
ATOM     15  C   UNL     1      -4.673  16.749  24.205  0.00  0.00    +0.000 A 
ATOM     16  F   UNL     1      -5.323  17.808  24.706  0.00  0.00    +0.000 F 
ATOM     17  C   UNL     1      -5.052  16.234  22.977  0.00  0.00    +0.000 A 
ATOM     18  C   UNL     1      -4.372  15.128  22.451  0.00  0.00    +0.000 A 
ENDBRANCH   8  12
ENDBRANCH   1  11
BRANCH   3  19
ATOM     19  C   UNL     1       1.384   8.915  19.794  0.00  0.00    +0.000 A 
ATOM     20  C   UNL     1       1.875   8.765  18.481  0.00  0.00    +0.000 A 
ATOM     21  C   UNL     1       2.574   7.599  18.085  0.00  0.00    +0.000 A 
ATOM     22  C   UNL     1       2.794   6.550  18.981  0.00  0.00    +0.000 A 
ATOM     23  C   UNL     1       2.272   6.694  20.281  0.00  0.00    +0.000 A 
ATOM     24  C   UNL     1       1.598   7.856  20.679  0.00  0.00    +0.000 A 
BRANCH  22  25
ATOM     25  C   UNL     1       3.423   5.206  18.629  0.00  0.00    +0.000 C 
BRANCH  25  26
ATOM     26  N   UNL     1       2.887   4.454  17.487  0.00  0.00    +0.000 NA
ATOM     27  C   UNL     1       3.655   3.242  17.164  0.00  0.00    +0.000 C 
ATOM     28  C   UNL     1       3.414   1.981  18.034  0.00  0.00    +0.000 C 
ATOM     29  N   UNL     1       2.114   1.775  18.664  0.00  0.00    +0.000 NA
ATOM     30  C   UNL     1       1.204   2.916  18.740  0.00  0.00    +0.000 C 
ATOM     31  C   UNL     1       1.035   3.433  20.176  0.00  0.00    +0.000 C 
ATOM     32  C   UNL     1       1.477   4.048  17.706  0.00  0.00    +0.000 C 
ATOM     33  H   UNL     1       2.208   1.288  19.558  0.00  0.00    +0.000 HD
ENDBRANCH  25  26
ENDBRANCH  22  25
ENDBRANCH   3  19
TORSDOF 5
ENDMDL
MODEL 5
REMARK VINA RESULT:      -7.8      1.556      2.415
REMARK  Name = 
REMARK  8 active torsions:
REMARK  status: ('A' for Active; 'I' for Inactive)
REMARK    1  A    between atoms: C_1  and  C_2
REMARK    2  A    between atoms: C_4  and  C_5
REMARK    3  A    between atoms: C_14  and  C_15
REMARK    4  A    between atoms: N_17  and  C_18
REMARK    5  A    between atoms: N_17  and  C_19
REMARK    6  A    between atoms: C_22  and  C_23
REMARK    7  A    between atoms: C_23  and  N_24
REMARK    8  A    between atoms: C_28  and  C_29
REMARK                            x       y       z     vdW  Elec       q    Type
REMARK                         _______ _______ _______ _____ _____    ______ ____
ROOT
ATOM      1  C   UNL     1       0.344  11.965  20.276  0.00  0.00    +0.000 C 
ATOM      2  O   UNL     1       1.544  12.197  20.473  0.00  0.00    +0.000 OA
ATOM      3  N   UNL     1      -0.069  10.826  19.550  0.00  0.00    +0.000 N 
ATOM      4  C   UNL     1      -1.423  10.603  19.065  0.00  0.00    +0.000 C 
ENDROOT
BRANCH   1  11
ATOM      5  C   UNL     1      -0.484  15.047  19.392  0.00  0.00    +0.000 C 
ATOM      6  C   UNL     1      -0.926  14.269  20.592  0.00  0.00    +0.000 A 
ATOM      7  N   UNL     1      -1.745  15.015  21.376  0.00  0.00    +0.000 NA
ATOM      8  C   UNL     1      -2.145  14.527  22.562  0.00  0.00    +0.000 A 
ATOM      9  N   UNL     1      -1.820  13.309  23.004  0.00  0.00    +0.000 NA
ATOM     10  C   UNL     1      -1.055  12.563  22.171  0.00  0.00    +0.000 A 
ATOM     11  C   UNL     1      -0.572  12.959  20.915  0.00  0.00    +0.000 A 
BRANCH   8  12
ATOM     12  C   UNL     1      -2.937  15.413  23.432  0.00  0.00    +0.000 A 
ATOM     13  C   UNL     1      -2.312  16.411  24.209  0.00  0.00    +0.000 A 
ATOM     14  C   UNL     1      -3.044  17.250  25.051  0.00  0.00    +0.000 A 
ATOM     15  C   UNL     1      -4.422  17.095  25.136  0.00  0.00    +0.000 A 
ATOM     16  F   UNL     1      -5.126  17.893  25.948  0.00  0.00    +0.000 F 
ATOM     17  C   UNL     1      -5.075  16.121  24.399  0.00  0.00    +0.000 A 
ATOM     18  C   UNL     1      -4.341  15.287  23.548  0.00  0.00    +0.000 A 
ENDBRANCH   8  12
ENDBRANCH   1  11
BRANCH   3  19
ATOM     19  C   UNL     1       0.886   9.783  19.217  0.00  0.00    +0.000 A 
ATOM     20  C   UNL     1       1.196   8.728  20.099  0.00  0.00    +0.000 A 
ATOM     21  C   UNL     1       2.066   7.678  19.715  0.00  0.00    +0.000 A 
ATOM     22  C   UNL     1       2.656   7.657  18.449  0.00  0.00    +0.000 A 
ATOM     23  C   UNL     1       2.367   8.731  17.586  0.00  0.00    +0.000 A 
ATOM     24  C   UNL     1       1.491   9.759  17.958  0.00  0.00    +0.000 A 
BRANCH  22  25
ATOM     25  C   UNL     1       3.697   6.647  17.978  0.00  0.00    +0.000 C 
BRANCH  25  26
ATOM     26  N   UNL     1       3.818   5.371  18.696  0.00  0.00    +0.000 NA
ATOM     27  C   UNL     1       3.540   4.193  17.860  0.00  0.00    +0.000 C 
ATOM     28  C   UNL     1       4.664   3.701  16.911  0.00  0.00    +0.000 C 
ATOM     29  N   UNL     1       6.061   3.928  17.265  0.00  0.00    +0.000 NA
ATOM     30  C   UNL     1       6.349   4.903  18.314  0.00  0.00    +0.000 C 
ATOM     31  C   UNL     1       7.010   6.175  17.763  0.00  0.00    +0.000 C 
ATOM     32  C   UNL     1       5.167   5.195  19.286  0.00  0.00    +0.000 C 
ATOM     33  H   UNL     1       6.637   4.067  16.431  0.00  0.00    +0.000 HD
ENDBRANCH  25  26
ENDBRANCH  22  25
ENDBRANCH   3  19
TORSDOF 5
ENDMDL
MODEL 6
REMARK VINA RESULT:      -7.7      1.486      2.005
REMARK  Name = 
REMARK  8 active torsions:
REMARK  status: ('A' for Active; 'I' for Inactive)
REMARK    1  A    between atoms: C_1  and  C_2
REMARK    2  A    between atoms: C_4  and  C_5
REMARK    3  A    between atoms: C_14  and  C_15
REMARK    4  A    between atoms: N_17  and  C_18
REMARK    5  A    between atoms: N_17  and  C_19
REMARK    6  A    between atoms: C_22  and  C_23
REMARK    7  A    between atoms: C_23  and  N_24
REMARK    8  A    between atoms: C_28  and  C_29
REMARK                            x       y       z     vdW  Elec       q    Type
REMARK                         _______ _______ _______ _____ _____    ______ ____
ROOT
ATOM      1  C   UNL     1       0.333  11.942  20.888  0.00  0.00    +0.000 C 
ATOM      2  O   UNL     1       1.488  11.901  21.333  0.00  0.00    +0.000 OA
ATOM      3  N   UNL     1      -0.127  10.976  19.966  0.00  0.00    +0.000 N 
ATOM      4  C   UNL     1      -1.366  11.081  19.212  0.00  0.00    +0.000 C 
ENDROOT
BRANCH   1  11
ATOM      5  C   UNL     1       0.180  15.160  20.120  0.00  0.00    +0.000 C 
ATOM      6  C   UNL     1      -0.567  14.417  21.183  0.00  0.00    +0.000 A 
ATOM      7  N   UNL     1      -1.361  15.258  21.893  0.00  0.00    +0.000 NA
ATOM      8  C   UNL     1      -2.016  14.793  22.970  0.00  0.00    +0.000 A 
ATOM      9  N   UNL     1      -1.972  13.517  23.365  0.00  0.00    +0.000 NA
ATOM     10  C   UNL     1      -1.223  12.688  22.599  0.00  0.00    +0.000 A 
ATOM     11  C   UNL     1      -0.491  13.051  21.458  0.00  0.00    +0.000 A 
BRANCH   8  12
ATOM     12  C   UNL     1      -2.774  15.764  23.778  0.00  0.00    +0.000 A 
ATOM     13  C   UNL     1      -4.171  15.649  23.924  0.00  0.00    +0.000 A 
ATOM     14  C   UNL     1      -4.909  16.569  24.673  0.00  0.00    +0.000 A 
ATOM     15  C   UNL     1      -4.253  17.630  25.283  0.00  0.00    +0.000 A 
ATOM     16  F   UNL     1      -4.958  18.518  25.996  0.00  0.00    +0.000 F 
ATOM     17  C   UNL     1      -2.883  17.788  25.157  0.00  0.00    +0.000 A 
ATOM     18  C   UNL     1      -2.144  16.860  24.414  0.00  0.00    +0.000 A 
ENDBRANCH   8  12
ENDBRANCH   1  11
BRANCH   3  19
ATOM     19  C   UNL     1       0.663   9.786  19.696  0.00  0.00    +0.000 A 
ATOM     20  C   UNL     1       1.287   9.556  18.454  0.00  0.00    +0.000 A 
ATOM     21  C   UNL     1       2.121   8.430  18.246  0.00  0.00    +0.000 A 
ATOM     22  C   UNL     1       2.345   7.500  19.265  0.00  0.00    +0.000 A 
ATOM     23  C   UNL     1       1.691   7.720  20.492  0.00  0.00    +0.000 A 
ATOM     24  C   UNL     1       0.883   8.845  20.704  0.00  0.00    +0.000 A 
BRANCH  22  25
ATOM     25  C   UNL     1       3.120   6.195  19.114  0.00  0.00    +0.000 C 
BRANCH  25  26
ATOM     26  N   UNL     1       3.742   5.890  17.818  0.00  0.00    +0.000 NA
ATOM     27  C   UNL     1       5.166   6.254  17.746  0.00  0.00    +0.000 C 
ATOM     28  C   UNL     1       6.191   5.291  18.401  0.00  0.00    +0.000 C 
ATOM     29  N   UNL     1       5.890   3.866  18.490  0.00  0.00    +0.000 NA
ATOM     30  C   UNL     1       4.507   3.446  18.278  0.00  0.00    +0.000 C 
ATOM     31  C   UNL     1       3.841   2.953  19.571  0.00  0.00    +0.000 C 
ATOM     32  C   UNL     1       3.628   4.451  17.476  0.00  0.00    +0.000 C 
ATOM     33  H   UNL     1       6.301   3.453  19.330  0.00  0.00    +0.000 HD
ENDBRANCH  25  26
ENDBRANCH  22  25
ENDBRANCH   3  19
TORSDOF 5
ENDMDL
MODEL 7
REMARK VINA RESULT:      -7.7      1.297      1.499
REMARK  Name = 
REMARK  8 active torsions:
REMARK  status: ('A' for Active; 'I' for Inactive)
REMARK    1  A    between atoms: C_1  and  C_2
REMARK    2  A    between atoms: C_4  and  C_5
REMARK    3  A    between atoms: C_14  and  C_15
REMARK    4  A    between atoms: N_17  and  C_18
REMARK    5  A    between atoms: N_17  and  C_19
REMARK    6  A    between atoms: C_22  and  C_23
REMARK    7  A    between atoms: C_23  and  N_24
REMARK    8  A    between atoms: C_28  and  C_29
REMARK                            x       y       z     vdW  Elec       q    Type
REMARK                         _______ _______ _______ _____ _____    ______ ____
ROOT
ATOM      1  C   UNL     1      -0.142  11.623  20.763  0.00  0.00    +0.000 C 
ATOM      2  O   UNL     1       0.694  11.512  21.670  0.00  0.00    +0.000 OA
ATOM      3  N   UNL     1      -0.118  10.765  19.641  0.00  0.00    +0.000 N 
ATOM      4  C   UNL     1      -0.894  10.972  18.428  0.00  0.00    +0.000 C 
ENDROOT
BRANCH   1  11
ATOM      5  C   UNL     1      -0.480  14.660  19.487  0.00  0.00    +0.000 C 
ATOM      6  C   UNL     1      -1.325  13.982  20.520  0.00  0.00    +0.000 A 
ATOM      7  N   UNL     1      -2.313  14.805  20.953  0.00  0.00    +0.000 NA
ATOM      8  C   UNL     1      -3.098  14.413  21.971  0.00  0.00    +0.000 A 
ATOM      9  N   UNL     1      -2.996  13.219  22.562  0.00  0.00    +0.000 NA
ATOM     10  C   UNL     1      -2.043  12.394  22.065  0.00  0.00    +0.000 A 
ATOM     11  C   UNL     1      -1.161  12.687  21.014  0.00  0.00    +0.000 A 
BRANCH   8  12
ATOM     12  C   UNL     1      -4.080  15.382  22.486  0.00  0.00    +0.000 A 
ATOM     13  C   UNL     1      -4.811  15.116  23.661  0.00  0.00    +0.000 A 
ATOM     14  C   UNL     1      -5.758  16.016  24.156  0.00  0.00    +0.000 A 
ATOM     15  C   UNL     1      -5.995  17.199  23.469  0.00  0.00    +0.000 A 
ATOM     16  F   UNL     1      -6.907  18.060  23.937  0.00  0.00    +0.000 F 
ATOM     17  C   UNL     1      -5.308  17.497  22.304  0.00  0.00    +0.000 A 
ATOM     18  C   UNL     1      -4.353  16.598  21.815  0.00  0.00    +0.000 A 
ENDBRANCH   8  12
ENDBRANCH   1  11
BRANCH   3  19
ATOM     19  C   UNL     1       0.739   9.591  19.634  0.00  0.00    +0.000 A 
ATOM     20  C   UNL     1       0.818   8.703  20.724  0.00  0.00    +0.000 A 
ATOM     21  C   UNL     1       1.596   7.521  20.657  0.00  0.00    +0.000 A 
ATOM     22  C   UNL     1       2.321   7.199  19.507  0.00  0.00    +0.000 A 
ATOM     23  C   UNL     1       2.263   8.109  18.434  0.00  0.00    +0.000 A 
ATOM     24  C   UNL     1       1.477   9.268  18.493  0.00  0.00    +0.000 A 
BRANCH  22  25
ATOM     25  C   UNL     1       3.283   6.023  19.371  0.00  0.00    +0.000 C 
BRANCH  25  26
ATOM     26  N   UNL     1       3.196   5.176  18.174  0.00  0.00    +0.000 NA
ATOM     27  C   UNL     1       4.236   4.138  18.107  0.00  0.00    +0.000 C 
ATOM     28  C   UNL     1       4.034   2.858  18.959  0.00  0.00    +0.000 C 
ATOM     29  N   UNL     1       2.684   2.401  19.270  0.00  0.00    +0.000 NA
ATOM     30  C   UNL     1       1.583   3.340  19.067  0.00  0.00    +0.000 C 
ATOM     31  C   UNL     1       0.972   3.819  20.393  0.00  0.00    +0.000 C 
ATOM     32  C   UNL     1       1.879   4.500  18.071  0.00  0.00    +0.000 C 
ATOM     33  H   UNL     1       2.648   1.946  20.185  0.00  0.00    +0.000 HD
ENDBRANCH  25  26
ENDBRANCH  22  25
ENDBRANCH   3  19
TORSDOF 5
ENDMDL
MODEL 8
REMARK VINA RESULT:      -7.6      2.004      2.830
REMARK  Name = 
REMARK  8 active torsions:
REMARK  status: ('A' for Active; 'I' for Inactive)
REMARK    1  A    between atoms: C_1  and  C_2
REMARK    2  A    between atoms: C_4  and  C_5
REMARK    3  A    between atoms: C_14  and  C_15
REMARK    4  A    between atoms: N_17  and  C_18
REMARK    5  A    between atoms: N_17  and  C_19
REMARK    6  A    between atoms: C_22  and  C_23
REMARK    7  A    between atoms: C_23  and  N_24
REMARK    8  A    between atoms: C_28  and  C_29
REMARK                            x       y       z     vdW  Elec       q    Type
REMARK                         _______ _______ _______ _____ _____    ______ ____
ROOT
ATOM      1  C   UNL     1       0.121  10.603  20.008  0.00  0.00    +0.000 C 
ATOM      2  O   UNL     1       0.596  11.088  18.973  0.00  0.00    +0.000 OA
ATOM      3  N   UNL     1       0.388   9.265  20.374  0.00  0.00    +0.000 N 
ATOM      4  C   UNL     1      -0.312   8.542  21.425  0.00  0.00    +0.000 C 
ENDROOT
BRANCH   1  11
ATOM      5  C   UNL     1      -2.757  12.106  19.358  0.00  0.00    +0.000 C 
ATOM      6  C   UNL     1      -1.883  12.245  20.564  0.00  0.00    +0.000 A 
ATOM      7  N   UNL     1      -2.400  13.148  21.436  0.00  0.00    +0.000 NA
ATOM      8  C   UNL     1      -1.691  13.497  22.522  0.00  0.00    +0.000 A 
ATOM      9  N   UNL     1      -0.506  12.963  22.830  0.00  0.00    +0.000 NA
ATOM     10  C   UNL     1      -0.045  12.018  21.976  0.00  0.00    +0.000 A 
ATOM     11  C   UNL     1      -0.685  11.572  20.810  0.00  0.00    +0.000 A 
BRANCH   8  12
ATOM     12  C   UNL     1      -2.237  14.564  23.378  0.00  0.00    +0.000 A 
ATOM     13  C   UNL     1      -3.624  14.663  23.614  0.00  0.00    +0.000 A 
ATOM     14  C   UNL     1      -4.161  15.677  24.411  0.00  0.00    +0.000 A 
ATOM     15  C   UNL     1      -3.312  16.618  24.977  0.00  0.00    +0.000 A 
ATOM     16  F   UNL     1      -3.825  17.596  25.736  0.00  0.00    +0.000 F 
ATOM     17  C   UNL     1      -1.945  16.565  24.763  0.00  0.00    +0.000 A 
ATOM     18  C   UNL     1      -1.407  15.543  23.972  0.00  0.00    +0.000 A 
ENDBRANCH   8  12
ENDBRANCH   1  11
BRANCH   3  19
ATOM     19  C   UNL     1       1.406   8.502  19.672  0.00  0.00    +0.000 A 
ATOM     20  C   UNL     1       1.988   7.337  20.211  0.00  0.00    +0.000 A 
ATOM     21  C   UNL     1       2.916   6.566  19.470  0.00  0.00    +0.000 A 
ATOM     22  C   UNL     1       3.294   6.939  18.178  0.00  0.00    +0.000 A 
ATOM     23  C   UNL     1       2.733   8.121  17.659  0.00  0.00    +0.000 A 
ATOM     24  C   UNL     1       1.800   8.873  18.384  0.00  0.00    +0.000 A 
BRANCH  22  25
ATOM     25  C   UNL     1       4.371   6.254  17.341  0.00  0.00    +0.000 C 
BRANCH  25  26
ATOM     26  N   UNL     1       4.747   4.873  17.670  0.00  0.00    +0.000 NA
ATOM     27  C   UNL     1       5.061   4.050  16.492  0.00  0.00    +0.000 C 
ATOM     28  C   UNL     1       6.462   4.218  15.847  0.00  0.00    +0.000 C 
ATOM     29  N   UNL     1       7.594   4.626  16.672  0.00  0.00    +0.000 NA
ATOM     30  C   UNL     1       7.309   5.192  17.989  0.00  0.00    +0.000 C 
ATOM     31  C   UNL     1       7.617   6.695  18.056  0.00  0.00    +0.000 C 
ATOM     32  C   UNL     1       5.917   4.820  18.580  0.00  0.00    +0.000 C 
ATOM     33  H   UNL     1       8.258   5.191  16.137  0.00  0.00    +0.000 HD
ENDBRANCH  25  26
ENDBRANCH  22  25
ENDBRANCH   3  19
TORSDOF 5
ENDMDL
MODEL 9
REMARK VINA RESULT:      -7.5      0.718      1.859
REMARK  Name = 
REMARK  8 active torsions:
REMARK  status: ('A' for Active; 'I' for Inactive)
REMARK    1  A    between atoms: C_1  and  C_2
REMARK    2  A    between atoms: C_4  and  C_5
REMARK    3  A    between atoms: C_14  and  C_15
REMARK    4  A    between atoms: N_17  and  C_18
REMARK    5  A    between atoms: N_17  and  C_19
REMARK    6  A    between atoms: C_22  and  C_23
REMARK    7  A    between atoms: C_23  and  N_24
REMARK    8  A    between atoms: C_28  and  C_29
REMARK                            x       y       z     vdW  Elec       q    Type
REMARK                         _______ _______ _______ _____ _____    ______ ____
ROOT
ATOM      1  C   UNL     1       0.574  10.748  21.289  0.00  0.00    +0.000 C 
ATOM      2  O   UNL     1       1.348  10.345  22.167  0.00  0.00    +0.000 OA
ATOM      3  N   UNL     1       0.494  10.103  20.035  0.00  0.00    +0.000 N 
ATOM      4  C   UNL     1      -0.194  10.643  18.873  0.00  0.00    +0.000 C 
ENDROOT
BRANCH   1  11
ATOM      5  C   UNL     1       0.827  13.981  20.614  0.00  0.00    +0.000 C 
ATOM      6  C   UNL     1      -0.177  13.283  21.477  0.00  0.00    +0.000 A 
ATOM      7  N   UNL     1      -1.035  14.173  22.037  0.00  0.00    +0.000 NA
ATOM      8  C   UNL     1      -1.931  13.744  22.942  0.00  0.00    +0.000 A 
ATOM      9  N   UNL     1      -2.067  12.463  23.294  0.00  0.00    +0.000 NA
ATOM     10  C   UNL     1      -1.240  11.589  22.670  0.00  0.00    +0.000 A 
ATOM     11  C   UNL     1      -0.264  11.911  21.716  0.00  0.00    +0.000 A 
BRANCH   8  12
ATOM     12  C   UNL     1      -2.763  14.759  23.610  0.00  0.00    +0.000 A 
ATOM     13  C   UNL     1      -2.338  15.368  24.808  0.00  0.00    +0.000 A 
ATOM     14  C   UNL     1      -3.121  16.321  25.465  0.00  0.00    +0.000 A 
ATOM     15  C   UNL     1      -4.354  16.672  24.931  0.00  0.00    +0.000 A 
ATOM     16  F   UNL     1      -5.109  17.580  25.562  0.00  0.00    +0.000 F 
ATOM     17  C   UNL     1      -4.816  16.092  23.762  0.00  0.00    +0.000 A 
ATOM     18  C   UNL     1      -4.026  15.144  23.101  0.00  0.00    +0.000 A 
ENDBRANCH   8  12
ENDBRANCH   1  11
BRANCH   3  19
ATOM     19  C   UNL     1       1.145   8.820  19.828  0.00  0.00    +0.000 A 
ATOM     20  C   UNL     1       1.900   8.530  18.675  0.00  0.00    +0.000 A 
ATOM     21  C   UNL     1       2.594   7.303  18.537  0.00  0.00    +0.000 A 
ATOM     22  C   UNL     1       2.545   6.331  19.540  0.00  0.00    +0.000 A 
ATOM     23  C   UNL     1       1.762   6.615  20.675  0.00  0.00    +0.000 A 
ATOM     24  C   UNL     1       1.092   7.838  20.820  0.00  0.00    +0.000 A 
BRANCH  22  25
ATOM     25  C   UNL     1       3.149   4.933  19.444  0.00  0.00    +0.000 C 
BRANCH  25  26
ATOM     26  N   UNL     1       2.619   3.875  20.314  0.00  0.00    +0.000 NA
ATOM     27  C   UNL     1       1.181   3.623  20.131  0.00  0.00    +0.000 C 
ATOM     28  C   UNL     1       0.748   2.763  18.915  0.00  0.00    +0.000 C 
ATOM     29  N   UNL     1       1.654   1.750  18.386  0.00  0.00    +0.000 NA
ATOM     30  C   UNL     1       3.057   1.811  18.791  0.00  0.00    +0.000 C 
ATOM     31  C   UNL     1       3.979   2.234  17.637  0.00  0.00    +0.000 C 
ATOM     32  C   UNL     1       3.330   2.588  20.113  0.00  0.00    +0.000 C 
ATOM     33  H   UNL     1       1.542   1.643  17.376  0.00  0.00    +0.000 HD
ENDBRANCH  25  26
ENDBRANCH  22  25
ENDBRANCH   3  19
TORSDOF 5
ENDMDL
