MODEL 1
REMARK VINA RESULT:      -8.0      0.000      0.000
REMARK  Name = 
REMARK  2 active torsions:
REMARK  status: ('A' for Active; 'I' for Inactive)
REMARK    1  A    between atoms: C_2  and  O_3
REMARK    2  A    between atoms: O_3  and  C_4
REMARK                            x       y       z     vdW  Elec       q    Type
REMARK                         _______ _______ _______ _____ _____    ______ ____
ROOT
ATOM      1  O   UNL     1       2.377   8.155  18.495  0.00  0.00    +0.000 OA
ATOM      2  C   UNL     1       2.323   7.184  19.249  0.00  0.00    +0.000 C 
ATOM      3  N   UNL     1       2.727   5.868  18.892  0.00  0.00    +0.000 N 
ATOM      4  C   UNL     1       3.690   5.733  17.795  0.00  0.00    +0.000 A 
ATOM      5  C   UNL     1       4.566   6.797  17.480  0.00  0.00    +0.000 A 
ATOM      6  C   UNL     1       5.521   6.711  16.457  0.00  0.00    +0.000 A 
ATOM      7  C   UNL     1       5.634   5.552  15.708  0.00  0.00    +0.000 A 
ATOM      8  C   UNL     1       4.806   4.478  16.004  0.00  0.00    +0.000 A 
ATOM      9  C   UNL     1       3.863   4.558  17.048  0.00  0.00    +0.000 A 
ATOM     10  S   UNL     1       2.939   3.090  17.351  0.00  0.00    +0.000 S 
ATOM     11  C   UNL     1       2.600   3.362  19.069  0.00  0.00    +0.000 A 
ATOM     12  C   UNL     1       2.471   2.192  19.843  0.00  0.00    +0.000 A 
ATOM     13  C   UNL     1       1.994   2.254  21.141  0.00  0.00    +0.000 A 
ATOM     14  C   UNL     1       1.561   3.474  21.626  0.00  0.00    +0.000 A 
ATOM     15  C   UNL     1       1.714   4.639  20.858  0.00  0.00    +0.000 A 
ATOM     16  C   UNL     1       2.341   4.643  19.598  0.00  0.00    +0.000 A 
ENDROOT
BRANCH   2  17
ATOM     17  O   UNL     1       1.865   7.334  20.523  0.00  0.00    +0.000 OA
BRANCH  17  18
ATOM     18  C   UNL     1       1.133   8.541  20.835  0.00  0.00    +0.000 C 
ATOM     19  C   UNL     1      -0.322   8.221  21.151  0.00  0.00    +0.000 C 
ATOM     20  C   UNL     1      -0.697   8.969  22.416  0.00  0.00    +0.000 C 
ATOM     21  C   UNL     1       0.587   9.470  23.051  0.00  0.00    +0.000 C 
ATOM     22  C   UNL     1       1.731   9.153  22.101  0.00  0.00    +0.000 C 
ENDBRANCH  17  18
ENDBRANCH   2  17
TORSDOF 2
ENDMDL
MODEL 2
REMARK VINA RESULT:      -7.7      2.263      6.193
REMARK  Name = 
REMARK  2 active torsions:
REMARK  status: ('A' for Active; 'I' for Inactive)
REMARK    1  A    between atoms: C_2  and  O_3
REMARK    2  A    between atoms: O_3  and  C_4
REMARK                            x       y       z     vdW  Elec       q    Type
REMARK                         _______ _______ _______ _____ _____    ______ ____
ROOT
ATOM      1  O   UNL     1       5.425   7.064  17.048  0.00  0.00    +0.000 OA
ATOM      2  C   UNL     1       4.837   5.985  17.124  0.00  0.00    +0.000 C 
ATOM      3  N   UNL     1       3.748   5.725  18.000  0.00  0.00    +0.000 N 
ATOM      4  C   UNL     1       2.968   6.876  18.465  0.00  0.00    +0.000 A 
ATOM      5  C   UNL     1       2.929   8.066  17.703  0.00  0.00    +0.000 A 
ATOM      6  C   UNL     1       2.180   9.186  18.090  0.00  0.00    +0.000 A 
ATOM      7  C   UNL     1       1.442   9.157  19.260  0.00  0.00    +0.000 A 
ATOM      8  C   UNL     1       1.438   7.998  20.023  0.00  0.00    +0.000 A 
ATOM      9  C   UNL     1       2.172   6.864  19.620  0.00  0.00    +0.000 A 
ATOM     10  S   UNL     1       2.007   5.447  20.651  0.00  0.00    +0.000 S 
ATOM     11  C   UNL     1       2.332   4.210  19.424  0.00  0.00    +0.000 A 
ATOM     12  C   UNL     1       1.684   2.977  19.634  0.00  0.00    +0.000 A 
ATOM     13  C   UNL     1       2.020   1.866  18.881  0.00  0.00    +0.000 A 
ATOM     14  C   UNL     1       3.067   1.970  17.983  0.00  0.00    +0.000 A 
ATOM     15  C   UNL     1       3.693   3.207  17.763  0.00  0.00    +0.000 A 
ATOM     16  C   UNL     1       3.275   4.395  18.392  0.00  0.00    +0.000 A 
ENDROOT
BRANCH   2  17
ATOM     17  O   UNL     1       5.212   4.946  16.326  0.00  0.00    +0.000 OA
BRANCH  17  18
ATOM     18  C   UNL     1       5.578   5.247  14.960  0.00  0.00    +0.000 C 
ATOM     19  C   UNL     1       7.090   5.185  14.783  0.00  0.00    +0.000 C 
ATOM     20  C   UNL     1       7.377   4.378  13.531  0.00  0.00    +0.000 C 
ATOM     21  C   UNL     1       6.092   3.677  13.132  0.00  0.00    +0.000 C 
ATOM     22  C   UNL     1       4.988   4.168  14.054  0.00  0.00    +0.000 C 
ENDBRANCH  17  18
ENDBRANCH   2  17
TORSDOF 2
ENDMDL
MODEL 3
REMARK VINA RESULT:      -7.7      1.011      1.066
REMARK  Name = 
REMARK  2 active torsions:
REMARK  status: ('A' for Active; 'I' for Inactive)
REMARK    1  A    between atoms: C_2  and  O_3
REMARK    2  A    between atoms: O_3  and  C_4
REMARK                            x       y       z     vdW  Elec       q    Type
REMARK                         _______ _______ _______ _____ _____    ______ ____
ROOT
ATOM      1  O   UNL     1       2.854   8.187  17.836  0.00  0.00    +0.000 OA
ATOM      2  C   UNL     1       2.574   7.261  18.597  0.00  0.00    +0.000 C 
ATOM      3  N   UNL     1       3.084   5.939  18.473  0.00  0.00    +0.000 N 
ATOM      4  C   UNL     1       4.346   5.770  17.748  0.00  0.00    +0.000 A 
ATOM      5  C   UNL     1       5.266   6.839  17.656  0.00  0.00    +0.000 A 
ATOM      6  C   UNL     1       6.497   6.722  16.996  0.00  0.00    +0.000 A 
ATOM      7  C   UNL     1       6.853   5.525  16.399  0.00  0.00    +0.000 A 
ATOM      8  C   UNL     1       5.986   4.446  16.488  0.00  0.00    +0.000 A 
ATOM      9  C   UNL     1       4.759   4.558  17.173  0.00  0.00    +0.000 A 
ATOM     10  S   UNL     1       3.803   3.083  17.265  0.00  0.00    +0.000 S 
ATOM     11  C   UNL     1       2.933   3.445  18.767  0.00  0.00    +0.000 A 
ATOM     12  C   UNL     1       2.578   2.321  19.535  0.00  0.00    +0.000 A 
ATOM     13  C   UNL     1       1.712   2.444  20.609  0.00  0.00    +0.000 A 
ATOM     14  C   UNL     1       1.136   3.678  20.851  0.00  0.00    +0.000 A 
ATOM     15  C   UNL     1       1.512   4.799  20.095  0.00  0.00    +0.000 A 
ATOM     16  C   UNL     1       2.507   4.747  19.100  0.00  0.00    +0.000 A 
ENDROOT
BRANCH   2  17
ATOM     17  O   UNL     1       1.734   7.472  19.648  0.00  0.00    +0.000 OA
BRANCH  17  18
ATOM     18  C   UNL     1       1.638   8.817  20.171  0.00  0.00    +0.000 C 
ATOM     19  C   UNL     1       0.481   9.565  19.520  0.00  0.00    +0.000 C 
ATOM     20  C   UNL     1      -0.305  10.251  20.621  0.00  0.00    +0.000 C 
ATOM     21  C   UNL     1       0.154   9.667  21.944  0.00  0.00    +0.000 C 
ATOM     22  C   UNL     1       1.319   8.732  21.662  0.00  0.00    +0.000 C 
ENDBRANCH  17  18
ENDBRANCH   2  17
TORSDOF 2
ENDMDL
MODEL 4
REMARK VINA RESULT:      -7.2      3.676      6.987
REMARK  Name = 
REMARK  2 active torsions:
REMARK  status: ('A' for Active; 'I' for Inactive)
REMARK    1  A    between atoms: C_2  and  O_3
REMARK    2  A    between atoms: O_3  and  C_4
REMARK                            x       y       z     vdW  Elec       q    Type
REMARK                         _______ _______ _______ _____ _____    ______ ____
ROOT
ATOM      1  O   UNL     1       1.539   9.405  17.272  0.00  0.00    +0.000 OA
ATOM      2  C   UNL     1       1.338   9.212  18.471  0.00  0.00    +0.000 C 
ATOM      3  N   UNL     1       0.297   9.828  19.219  0.00  0.00    +0.000 N 
ATOM      4  C   UNL     1      -0.871  10.309  18.476  0.00  0.00    +0.000 A 
ATOM      5  C   UNL     1      -1.209   9.738  17.228  0.00  0.00    +0.000 A 
ATOM      6  C   UNL     1      -2.329  10.145  16.490  0.00  0.00    +0.000 A 
ATOM      7  C   UNL     1      -3.154  11.145  16.974  0.00  0.00    +0.000 A 
ATOM      8  C   UNL     1      -2.867  11.714  18.207  0.00  0.00    +0.000 A 
ATOM      9  C   UNL     1      -1.755  11.287  18.960  0.00  0.00    +0.000 A 
ATOM     10  S   UNL     1      -1.566  12.049  20.535  0.00  0.00    +0.000 S 
ATOM     11  C   UNL     1      -0.700  10.731  21.345  0.00  0.00    +0.000 A 
ATOM     12  C   UNL     1      -0.923  10.635  22.732  0.00  0.00    +0.000 A 
ATOM     13  C   UNL     1      -0.147   9.798  23.516  0.00  0.00    +0.000 A 
ATOM     14  C   UNL     1       0.909   9.131  22.921  0.00  0.00    +0.000 A 
ATOM     15  C   UNL     1       1.112   9.214  21.534  0.00  0.00    +0.000 A 
ATOM     16  C   UNL     1       0.248   9.926  20.680  0.00  0.00    +0.000 A 
ENDROOT
BRANCH   2  17
ATOM     17  O   UNL     1       2.132   8.350  19.166  0.00  0.00    +0.000 OA
BRANCH  17  18
ATOM     18  C   UNL     1       2.348   7.036  18.604  0.00  0.00    +0.000 C 
ATOM     19  C   UNL     1       3.679   6.980  17.863  0.00  0.00    +0.000 C 
ATOM     20  C   UNL     1       4.398   5.717  18.297  0.00  0.00    +0.000 C 
ATOM     21  C   UNL     1       3.683   5.179  19.523  0.00  0.00    +0.000 C 
ATOM     22  C   UNL     1       2.445   6.032  19.751  0.00  0.00    +0.000 C 
ENDBRANCH  17  18
ENDBRANCH   2  17
TORSDOF 2
ENDMDL
MODEL 5
REMARK VINA RESULT:      -7.2      2.180      5.600
REMARK  Name = 
REMARK  2 active torsions:
REMARK  status: ('A' for Active; 'I' for Inactive)
REMARK    1  A    between atoms: C_2  and  O_3
REMARK    2  A    between atoms: O_3  and  C_4
REMARK                            x       y       z     vdW  Elec       q    Type
REMARK                         _______ _______ _______ _____ _____    ______ ____
ROOT
ATOM      1  O   UNL     1       4.663   6.820  16.771  0.00  0.00    +0.000 OA
ATOM      2  C   UNL     1       3.969   5.863  17.112  0.00  0.00    +0.000 C 
ATOM      3  N   UNL     1       3.014   5.899  18.166  0.00  0.00    +0.000 N 
ATOM      4  C   UNL     1       2.469   7.209  18.535  0.00  0.00    +0.000 A 
ATOM      5  C   UNL     1       2.450   8.265  17.596  0.00  0.00    +0.000 A 
ATOM      6  C   UNL     1       1.918   9.528  17.889  0.00  0.00    +0.000 A 
ATOM      7  C   UNL     1       1.384   9.782  19.141  0.00  0.00    +0.000 A 
ATOM      8  C   UNL     1       1.365   8.763  20.083  0.00  0.00    +0.000 A 
ATOM      9  C   UNL     1       1.878   7.486  19.777  0.00  0.00    +0.000 A 
ATOM     10  S   UNL     1       1.713   6.278  21.047  0.00  0.00    +0.000 S 
ATOM     11  C   UNL     1       1.678   4.837  20.014  0.00  0.00    +0.000 A 
ATOM     12  C   UNL     1       0.928   3.759  20.521  0.00  0.00    +0.000 A 
ATOM     13  C   UNL     1       0.997   2.510  19.927  0.00  0.00    +0.000 A 
ATOM     14  C   UNL     1       1.887   2.325  18.885  0.00  0.00    +0.000 A 
ATOM     15  C   UNL     1       2.615   3.410  18.371  0.00  0.00    +0.000 A 
ATOM     16  C   UNL     1       2.454   4.726  18.842  0.00  0.00    +0.000 A 
ENDROOT
BRANCH   2  17
ATOM     17  O   UNL     1       4.077   4.673  16.458  0.00  0.00    +0.000 OA
BRANCH  17  18
ATOM     18  C   UNL     1       5.362   4.009  16.482  0.00  0.00    +0.000 C 
ATOM     19  C   UNL     1       6.238   4.492  15.333  0.00  0.00    +0.000 C 
ATOM     20  C   UNL     1       7.612   4.802  15.896  0.00  0.00    +0.000 C 
ATOM     21  C   UNL     1       7.492   4.831  17.409  0.00  0.00    +0.000 C 
ATOM     22  C   UNL     1       6.081   4.399  17.773  0.00  0.00    +0.000 C 
ENDBRANCH  17  18
ENDBRANCH   2  17
TORSDOF 2
ENDMDL
MODEL 6
REMARK VINA RESULT:      -7.0      1.859      5.822
REMARK  Name = 
REMARK  2 active torsions:
REMARK  status: ('A' for Active; 'I' for Inactive)
REMARK    1  A    between atoms: C_2  and  O_3
REMARK    2  A    between atoms: O_3  and  C_4
REMARK                            x       y       z     vdW  Elec       q    Type
REMARK                         _______ _______ _______ _____ _____    ______ ____
ROOT
ATOM      1  O   UNL     1       4.456   8.003  17.558  0.00  0.00    +0.000 OA
ATOM      2  C   UNL     1       3.984   6.873  17.432  0.00  0.00    +0.000 C 
ATOM      3  N   UNL     1       3.082   6.273  18.353  0.00  0.00    +0.000 N 
ATOM      4  C   UNL     1       2.295   7.170  19.205  0.00  0.00    +0.000 A 
ATOM      5  C   UNL     1       2.027   8.495  18.792  0.00  0.00    +0.000 A 
ATOM      6  C   UNL     1       1.260   9.384  19.558  0.00  0.00    +0.000 A 
ATOM      7  C   UNL     1       0.732   8.978  20.771  0.00  0.00    +0.000 A 
ATOM      8  C   UNL     1       0.956   7.677  21.199  0.00  0.00    +0.000 A 
ATOM      9  C   UNL     1       1.706   6.777  20.417  0.00  0.00    +0.000 A 
ATOM     10  S   UNL     1       1.838   5.142  21.056  0.00  0.00    +0.000 S 
ATOM     11  C   UNL     1       2.059   4.291  19.517  0.00  0.00    +0.000 A 
ATOM     12  C   UNL     1       1.564   2.974  19.487  0.00  0.00    +0.000 A 
ATOM     13  C   UNL     1       1.864   2.130  18.432  0.00  0.00    +0.000 A 
ATOM     14  C   UNL     1       2.734   2.581  17.456  0.00  0.00    +0.000 A 
ATOM     15  C   UNL     1       3.206   3.902  17.480  0.00  0.00    +0.000 A 
ATOM     16  C   UNL     1       2.798   4.839  18.448  0.00  0.00    +0.000 A 
ENDROOT
BRANCH   2  17
ATOM     17  O   UNL     1       4.309   6.115  16.348  0.00  0.00    +0.000 OA
BRANCH  17  18
ATOM     18  C   UNL     1       5.709   6.005  16.001  0.00  0.00    +0.000 C 
ATOM     19  C   UNL     1       6.517   5.492  17.186  0.00  0.00    +0.000 C 
ATOM     20  C   UNL     1       7.429   4.389  16.682  0.00  0.00    +0.000 C 
ATOM     21  C   UNL     1       6.956   4.002  15.293  0.00  0.00    +0.000 C 
ATOM     22  C   UNL     1       5.849   4.963  14.892  0.00  0.00    +0.000 C 
ENDBRANCH  17  18
ENDBRANCH   2  17
TORSDOF 2
ENDMDL
MODEL 7
REMARK VINA RESULT:      -7.0      2.885      4.996
REMARK  Name = 
REMARK  2 active torsions:
REMARK  status: ('A' for Active; 'I' for Inactive)
REMARK    1  A    between atoms: C_2  and  O_3
REMARK    2  A    between atoms: O_3  and  C_4
REMARK                            x       y       z     vdW  Elec       q    Type
REMARK                         _______ _______ _______ _____ _____    ______ ____
ROOT
ATOM      1  O   UNL     1       4.297   2.058  17.235  0.00  0.00    +0.000 OA
ATOM      2  C   UNL     1       3.650   3.086  17.434  0.00  0.00    +0.000 C 
ATOM      3  N   UNL     1       4.107   4.395  17.119  0.00  0.00    +0.000 N 
ATOM      4  C   UNL     1       5.140   4.517  16.086  0.00  0.00    +0.000 A 
ATOM      5  C   UNL     1       5.284   3.516  15.098  0.00  0.00    +0.000 A 
ATOM      6  C   UNL     1       6.238   3.596  14.075  0.00  0.00    +0.000 A 
ATOM      7  C   UNL     1       7.090   4.685  14.003  0.00  0.00    +0.000 A 
ATOM      8  C   UNL     1       6.963   5.699  14.942  0.00  0.00    +0.000 A 
ATOM      9  C   UNL     1       5.987   5.629  15.956  0.00  0.00    +0.000 A 
ATOM     10  S   UNL     1       5.900   7.024  17.025  0.00  0.00    +0.000 S 
ATOM     11  C   UNL     1       4.191   6.884  17.477  0.00  0.00    +0.000 A 
ATOM     12  C   UNL     1       3.550   8.103  17.769  0.00  0.00    +0.000 A 
ATOM     13  C   UNL     1       2.290   8.118  18.343  0.00  0.00    +0.000 A 
ATOM     14  C   UNL     1       1.717   6.912  18.705  0.00  0.00    +0.000 A 
ATOM     15  C   UNL     1       2.352   5.700  18.390  0.00  0.00    +0.000 A 
ATOM     16  C   UNL     1       3.557   5.638  17.665  0.00  0.00    +0.000 A 
ENDROOT
BRANCH   2  17
ATOM     17  O   UNL     1       2.404   3.013  17.978  0.00  0.00    +0.000 OA
BRANCH  17  18
ATOM     18  C   UNL     1       2.246   2.241  19.191  0.00  0.00    +0.000 C 
ATOM     19  C   UNL     1       3.318   2.611  20.208  0.00  0.00    +0.000 C 
ATOM     20  C   UNL     1       2.635   2.817  21.547  0.00  0.00    +0.000 C 
ATOM     21  C   UNL     1       1.142   2.902  21.292  0.00  0.00    +0.000 C 
ATOM     22  C   UNL     1       0.902   2.604  19.821  0.00  0.00    +0.000 C 
ENDBRANCH  17  18
ENDBRANCH   2  17
TORSDOF 2
ENDMDL
MODEL 8
REMARK VINA RESULT:      -7.0      2.436      4.746
REMARK  Name = 
REMARK  2 active torsions:
REMARK  status: ('A' for Active; 'I' for Inactive)
REMARK    1  A    between atoms: C_2  and  O_3
REMARK    2  A    between atoms: O_3  and  C_4
REMARK                            x       y       z     vdW  Elec       q    Type
REMARK                         _______ _______ _______ _____ _____    ______ ____
ROOT
ATOM      1  O   UNL     1       5.483   3.140  19.325  0.00  0.00    +0.000 OA
ATOM      2  C   UNL     1       4.581   3.976  19.385  0.00  0.00    +0.000 C 
ATOM      3  N   UNL     1       4.393   5.022  18.441  0.00  0.00    +0.000 N 
ATOM      4  C   UNL     1       4.955   4.829  17.100  0.00  0.00    +0.000 A 
ATOM      5  C   UNL     1       5.176   3.526  16.600  0.00  0.00    +0.000 A 
ATOM      6  C   UNL     1       5.688   3.286  15.318  0.00  0.00    +0.000 A 
ATOM      7  C   UNL     1       6.001   4.347  14.486  0.00  0.00    +0.000 A 
ATOM      8  C   UNL     1       5.776   5.640  14.934  0.00  0.00    +0.000 A 
ATOM      9  C   UNL     1       5.239   5.880  16.214  0.00  0.00    +0.000 A 
ATOM     10  S   UNL     1       4.940   7.568  16.609  0.00  0.00    +0.000 S 
ATOM     11  C   UNL     1       3.623   7.322  17.771  0.00  0.00    +0.000 A 
ATOM     12  C   UNL     1       2.680   8.365  17.834  0.00  0.00    +0.000 A 
ATOM     13  C   UNL     1       1.734   8.402  18.843  0.00  0.00    +0.000 A 
ATOM     14  C   UNL     1       1.794   7.443  19.837  0.00  0.00    +0.000 A 
ATOM     15  C   UNL     1       2.722   6.393  19.756  0.00  0.00    +0.000 A 
ATOM     16  C   UNL     1       3.595   6.230  18.664  0.00  0.00    +0.000 A 
ENDROOT
BRANCH   2  17
ATOM     17  O   UNL     1       3.672   3.926  20.397  0.00  0.00    +0.000 OA
BRANCH  17  18
ATOM     18  C   UNL     1       2.702   2.853  20.377  0.00  0.00    +0.000 C 
ATOM     19  C   UNL     1       1.371   3.320  20.953  0.00  0.00    +0.000 C 
ATOM     20  C   UNL     1       0.273   2.865  20.011  0.00  0.00    +0.000 C 
ATOM     21  C   UNL     1       0.932   2.423  18.718  0.00  0.00    +0.000 C 
ATOM     22  C   UNL     1       2.437   2.472  18.921  0.00  0.00    +0.000 C 
ENDBRANCH  17  18
ENDBRANCH   2  17
TORSDOF 2
ENDMDL
MODEL 9
REMARK VINA RESULT:      -6.9      2.103      5.979
REMARK  Name = 
REMARK  2 active torsions:
REMARK  status: ('A' for Active; 'I' for Inactive)
REMARK    1  A    between atoms: C_2  and  O_3
REMARK    2  A    between atoms: O_3  and  C_4
REMARK                            x       y       z     vdW  Elec       q    Type
REMARK                         _______ _______ _______ _____ _____    ______ ____
ROOT
ATOM      1  O   UNL     1       4.680   7.772  17.180  0.00  0.00    +0.000 OA
ATOM      2  C   UNL     1       4.081   6.724  17.420  0.00  0.00    +0.000 C 
ATOM      3  N   UNL     1       3.045   6.595  18.386  0.00  0.00    +0.000 N 
ATOM      4  C   UNL     1       2.315   7.810  18.756  0.00  0.00    +0.000 A 
ATOM      5  C   UNL     1       2.245   8.902  17.861  0.00  0.00    +0.000 A 
ATOM      6  C   UNL     1       1.541  10.077  18.156  0.00  0.00    +0.000 A 
ATOM      7  C   UNL     1       0.878  10.204  19.365  0.00  0.00    +0.000 A 
ATOM      8  C   UNL     1       0.905   9.144  20.260  0.00  0.00    +0.000 A 
ATOM      9  C   UNL     1       1.594   7.954  19.952  0.00  0.00    +0.000 A 
ATOM     10  S   UNL     1       1.473   6.673  21.153  0.00  0.00    +0.000 S 
ATOM     11  C   UNL     1       1.700   5.291  20.065  0.00  0.00    +0.000 A 
ATOM     12  C   UNL     1       1.048   4.108  20.461  0.00  0.00    +0.000 A 
ATOM     13  C   UNL     1       1.318   2.907  19.827  0.00  0.00    +0.000 A 
ATOM     14  C   UNL     1       2.307   2.881  18.861  0.00  0.00    +0.000 A 
ATOM     15  C   UNL     1       2.938   4.068  18.456  0.00  0.00    +0.000 A 
ATOM     16  C   UNL     1       2.578   5.331  18.963  0.00  0.00    +0.000 A 
ENDROOT
BRANCH   2  17
ATOM     17  O   UNL     1       4.388   5.589  16.732  0.00  0.00    +0.000 OA
BRANCH  17  18
ATOM     18  C   UNL     1       5.312   5.706  15.625  0.00  0.00    +0.000 C 
ATOM     19  C   UNL     1       6.746   5.498  16.097  0.00  0.00    +0.000 C 
ATOM     20  C   UNL     1       7.415   4.536  15.133  0.00  0.00    +0.000 C 
ATOM     21  C   UNL     1       6.328   3.905  14.283  0.00  0.00    +0.000 C 
ATOM     22  C   UNL     1       5.013   4.586  14.629  0.00  0.00    +0.000 C 
ENDBRANCH  17  18
ENDBRANCH   2  17
TORSDOF 2
ENDMDL
