MODEL 1
REMARK VINA RESULT:      -9.1      0.000      0.000
REMARK  Name = 
REMARK  5 active torsions:
REMARK  status: ('A' for Active; 'I' for Inactive)
REMARK    1  A    between atoms: C_2  and  C_30
REMARK    2  A    between atoms: N_3  and  C_4
REMARK    3  A    between atoms: C_4  and  C_5
REMARK    4  A    between atoms: C_8  and  N_9
REMARK    5  A    between atoms: N_13  and  C_14
REMARK                            x       y       z     vdW  Elec       q    Type
REMARK                         _______ _______ _______ _____ _____    ______ ____
ROOT
ATOM      1  N   UNL     1      -0.178  10.760  22.135  0.00  0.00    +0.000 N 
ATOM      2  C   UNL     1      -1.136  11.741  22.122  0.00  0.00    +0.000 A 
ATOM      3  N   UNL     1      -1.887  11.934  21.039  0.00  0.00    +0.000 NA
ATOM      4  C   UNL     1      -2.863  12.864  21.089  0.00  0.00    +0.000 A 
ATOM      5  N   UNL     1      -3.629  13.114  19.911  0.00  0.00    +0.000 N 
ATOM      6  C   UNL     1      -3.128  13.598  22.252  0.00  0.00    +0.000 A 
ATOM      7  C   UNL     1      -4.190  14.526  22.416  0.00  0.00    +0.000 A 
ATOM      8  C   UNL     1      -4.347  15.226  23.610  0.00  0.00    +0.000 A 
ATOM      9  C   UNL     1      -3.451  15.006  24.647  0.00  0.00    +0.000 A 
ATOM     10  C   UNL     1      -2.427  14.066  24.493  0.00  0.00    +0.000 A 
ATOM     11  C   UNL     1      -2.256  13.347  23.315  0.00  0.00    +0.000 A 
ATOM     12  N   UNL     1      -1.270  12.445  23.248  0.00  0.00    +0.000 NA
ATOM     13  H   UNL     1       0.440  10.812  22.931  0.00  0.00    +0.000 HD
ATOM     14  H   UNL     1      -3.537  14.092  19.665  0.00  0.00    +0.000 HD
ENDROOT
BRANCH   5  15
ATOM     15  C   UNL     1      -3.612  12.265  18.778  0.00  0.00    +0.000 A 
ATOM     16  C   UNL     1      -2.390  11.882  18.199  0.00  0.00    +0.000 A 
ATOM     17  C   UNL     1      -2.353  11.127  17.030  0.00  0.00    +0.000 A 
ATOM     18  C   UNL     1      -3.545  10.736  16.429  0.00  0.00    +0.000 A 
ATOM     19 CL   UNL     1      -3.505   9.870  14.943  0.00  0.00    +0.000 Cl
ATOM     20  C   UNL     1      -4.769  11.060  17.014  0.00  0.00    +0.000 A 
ATOM     21  C   UNL     1      -4.801  11.816  18.193  0.00  0.00    +0.000 A 
ENDBRANCH   5  15
BRANCH   1  25
ATOM     22  C   UNL     1       2.197   8.916  19.040  0.00  0.00    +0.000 C 
ATOM     23  C   UNL     1       1.209  10.032  18.654  0.00  0.00    +0.000 C 
ATOM     24  C   UNL     1       0.784  10.868  19.868  0.00  0.00    +0.000 C 
ATOM     25  C   UNL     1       0.173   9.986  20.962  0.00  0.00    +0.000 C 
ATOM     26  C   UNL     1       1.179   8.901  21.372  0.00  0.00    +0.000 C 
ATOM     27  C   UNL     1       1.617   8.057  20.175  0.00  0.00    +0.000 C 
BRANCH  22  28
ATOM     28  C   UNL     1       2.552   8.017  17.840  0.00  0.00    +0.000 C 
BRANCH  28  31
ATOM     29  O   UNL     1       4.270   5.822  17.273  0.00  0.00    +0.000 OA
ATOM     30  C   UNL     1       3.171   5.615  17.766  0.00  0.00    +0.000 C 
ATOM     31  N   UNL     1       2.274   6.616  18.082  0.00  0.00    +0.000 N 
ATOM     32  H   UNL     1       1.443   6.389  18.610  0.00  0.00    +0.000 HD
BRANCH  30  33
ATOM     33  C   UNL     1       2.739   4.228  18.092  0.00  0.00    +0.000 A 
ATOM     34  C   UNL     1       1.509   4.037  18.732  0.00  0.00    +0.000 A 
ATOM     35  C   UNL     1       1.075   2.746  19.045  0.00  0.00    +0.000 A 
ATOM     36  C   UNL     1       1.876   1.646  18.733  0.00  0.00    +0.000 A 
ATOM     37  C   UNL     1       3.111   1.832  18.113  0.00  0.00    +0.000 A 
ATOM     38  C   UNL     1       3.547   3.121  17.797  0.00  0.00    +0.000 A 
ENDBRANCH  30  33
ENDBRANCH  28  31
ENDBRANCH  22  28
ENDBRANCH   1  25
TORSDOF 5
ENDMDL
MODEL 2
REMARK VINA RESULT:      -8.7      0.607      1.163
REMARK  Name = 
REMARK  5 active torsions:
REMARK  status: ('A' for Active; 'I' for Inactive)
REMARK    1  A    between atoms: C_2  and  C_30
REMARK    2  A    between atoms: N_3  and  C_4
REMARK    3  A    between atoms: C_4  and  C_5
REMARK    4  A    between atoms: C_8  and  N_9
REMARK    5  A    between atoms: N_13  and  C_14
REMARK                            x       y       z     vdW  Elec       q    Type
REMARK                         _______ _______ _______ _____ _____    ______ ____
ROOT
ATOM      1  N   UNL     1      -0.194  10.547  22.114  0.00  0.00    +0.000 N 
ATOM      2  C   UNL     1      -1.118  11.561  22.115  0.00  0.00    +0.000 A 
ATOM      3  N   UNL     1      -1.822  11.831  21.017  0.00  0.00    +0.000 NA
ATOM      4  C   UNL     1      -2.768  12.790  21.078  0.00  0.00    +0.000 A 
ATOM      5  N   UNL     1      -3.481  13.123  19.887  0.00  0.00    +0.000 N 
ATOM      6  C   UNL     1      -3.052  13.477  22.265  0.00  0.00    +0.000 A 
ATOM      7  C   UNL     1      -4.088  14.432  22.437  0.00  0.00    +0.000 A 
ATOM      8  C   UNL     1      -4.265  15.080  23.657  0.00  0.00    +0.000 A 
ATOM      9  C   UNL     1      -3.417  14.780  24.713  0.00  0.00    +0.000 A 
ATOM     10  C   UNL     1      -2.419  13.813  24.550  0.00  0.00    +0.000 A 
ATOM     11  C   UNL     1      -2.228  13.146  23.345  0.00  0.00    +0.000 A 
ATOM     12  N   UNL     1      -1.270  12.214  23.269  0.00  0.00    +0.000 NA
ATOM     13  H   UNL     1       0.395  10.540  22.933  0.00  0.00    +0.000 HD
ATOM     14  H   UNL     1      -3.348  14.107  19.693  0.00  0.00    +0.000 HD
ENDROOT
BRANCH   5  15
ATOM     15  C   UNL     1      -3.450  12.328  18.715  0.00  0.00    +0.000 A 
ATOM     16  C   UNL     1      -4.639  11.802  18.186  0.00  0.00    +0.000 A 
ATOM     17  C   UNL     1      -4.621  10.941  17.091  0.00  0.00    +0.000 A 
ATOM     18  C   UNL     1      -3.406  10.604  16.506  0.00  0.00    +0.000 A 
ATOM     19 CL   UNL     1      -3.372   9.481  15.203  0.00  0.00    +0.000 Cl
ATOM     20  C   UNL     1      -2.217  11.155  16.982  0.00  0.00    +0.000 A 
ATOM     21  C   UNL     1      -2.241  12.024  18.080  0.00  0.00    +0.000 A 
ENDBRANCH   5  15
BRANCH   1  25
ATOM     22  C   UNL     1       2.222   8.861  18.961  0.00  0.00    +0.000 C 
ATOM     23  C   UNL     1       1.203   9.961  18.610  0.00  0.00    +0.000 C 
ATOM     24  C   UNL     1       0.758  10.749  19.849  0.00  0.00    +0.000 C 
ATOM     25  C   UNL     1       0.175   9.819  20.918  0.00  0.00    +0.000 C 
ATOM     26  C   UNL     1       1.211   8.749  21.294  0.00  0.00    +0.000 C 
ATOM     27  C   UNL     1       1.668   7.954  20.071  0.00  0.00    +0.000 C 
BRANCH  22  28
ATOM     28  C   UNL     1       2.598   8.008  17.734  0.00  0.00    +0.000 C 
BRANCH  28  31
ATOM     29  O   UNL     1       4.690   6.168  17.164  0.00  0.00    +0.000 OA
ATOM     30  C   UNL     1       3.663   5.768  17.692  0.00  0.00    +0.000 C 
ATOM     31  N   UNL     1       2.599   6.587  18.013  0.00  0.00    +0.000 N 
ATOM     32  H   UNL     1       1.840   6.219  18.570  0.00  0.00    +0.000 HD
BRANCH  30  33
ATOM     33  C   UNL     1       3.513   4.333  18.060  0.00  0.00    +0.000 A 
ATOM     34  C   UNL     1       4.318   3.810  19.079  0.00  0.00    +0.000 A 
ATOM     35  C   UNL     1       4.196   2.468  19.449  0.00  0.00    +0.000 A 
ATOM     36  C   UNL     1       3.280   1.643  18.793  0.00  0.00    +0.000 A 
ATOM     37  C   UNL     1       2.490   2.155  17.765  0.00  0.00    +0.000 A 
ATOM     38  C   UNL     1       2.608   3.497  17.393  0.00  0.00    +0.000 A 
ENDBRANCH  30  33
ENDBRANCH  28  31
ENDBRANCH  22  28
ENDBRANCH   1  25
TORSDOF 5
ENDMDL
MODEL 3
REMARK VINA RESULT:      -8.7      5.285      7.089
REMARK  Name = 
REMARK  5 active torsions:
REMARK  status: ('A' for Active; 'I' for Inactive)
REMARK    1  A    between atoms: C_2  and  C_30
REMARK    2  A    between atoms: N_3  and  C_4
REMARK    3  A    between atoms: C_4  and  C_5
REMARK    4  A    between atoms: C_8  and  N_9
REMARK    5  A    between atoms: N_13  and  C_14
REMARK                            x       y       z     vdW  Elec       q    Type
REMARK                         _______ _______ _______ _____ _____    ______ ____
ROOT
ATOM      1  N   UNL     1       1.740  14.921  21.797  0.00  0.00    +0.000 N 
ATOM      2  C   UNL     1       0.595  14.219  22.072  0.00  0.00    +0.000 A 
ATOM      3  N   UNL     1       0.370  13.043  21.490  0.00  0.00    +0.000 NA
ATOM      4  C   UNL     1      -0.736  12.353  21.838  0.00  0.00    +0.000 A 
ATOM      5  N   UNL     1      -1.009  11.120  21.172  0.00  0.00    +0.000 N 
ATOM      6  C   UNL     1      -1.625  12.821  22.814  0.00  0.00    +0.000 A 
ATOM      7  C   UNL     1      -2.758  12.118  23.301  0.00  0.00    +0.000 A 
ATOM      8  C   UNL     1      -3.596  12.690  24.255  0.00  0.00    +0.000 A 
ATOM      9  C   UNL     1      -3.311  13.962  24.732  0.00  0.00    +0.000 A 
ATOM     10  C   UNL     1      -2.176  14.637  24.274  0.00  0.00    +0.000 A 
ATOM     11  C   UNL     1      -1.318  14.083  23.329  0.00  0.00    +0.000 A 
ATOM     12  N   UNL     1      -0.235  14.776  22.957  0.00  0.00    +0.000 NA
ATOM     13  H   UNL     1       1.729  15.865  22.154  0.00  0.00    +0.000 HD
ATOM     14  H   UNL     1      -1.919  11.184  20.731  0.00  0.00    +0.000 HD
ENDROOT
BRANCH   5  15
ATOM     15  C   UNL     1      -0.061  10.445  20.367  0.00  0.00    +0.000 A 
ATOM     16  C   UNL     1       0.099  10.795  19.017  0.00  0.00    +0.000 A 
ATOM     17  C   UNL     1       0.957  10.081  18.184  0.00  0.00    +0.000 A 
ATOM     18  C   UNL     1       1.675   9.008  18.700  0.00  0.00    +0.000 A 
ATOM     19 CL   UNL     1       2.677   8.075  17.657  0.00  0.00    +0.000 Cl
ATOM     20  C   UNL     1       1.572   8.675  20.050  0.00  0.00    +0.000 A 
ATOM     21  C   UNL     1       0.712   9.399  20.884  0.00  0.00    +0.000 A 
ENDBRANCH   5  15
BRANCH   1  25
ATOM     22  C   UNL     1       4.806  15.154  18.768  0.00  0.00    +0.000 C 
ATOM     23  C   UNL     1       3.382  14.739  18.355  0.00  0.00    +0.000 C 
ATOM     24  C   UNL     1       2.341  15.124  19.414  0.00  0.00    +0.000 C 
ATOM     25  C   UNL     1       2.686  14.516  20.777  0.00  0.00    +0.000 C 
ATOM     26  C   UNL     1       4.091  14.966  21.204  0.00  0.00    +0.000 C 
ATOM     27  C   UNL     1       5.143  14.594  20.159  0.00  0.00    +0.000 C 
BRANCH  22  28
ATOM     28  C   UNL     1       5.863  14.685  17.750  0.00  0.00    +0.000 C 
BRANCH  28  31
ATOM     29  O   UNL     1       7.552  12.574  16.867  0.00  0.00    +0.000 OA
ATOM     30  C   UNL     1       7.845  13.197  17.876  0.00  0.00    +0.000 C 
ATOM     31  N   UNL     1       7.091  14.241  18.376  0.00  0.00    +0.000 N 
ATOM     32  H   UNL     1       7.459  14.800  19.133  0.00  0.00    +0.000 HD
BRANCH  30  33
ATOM     33  C   UNL     1       9.089  12.875  18.628  0.00  0.00    +0.000 A 
ATOM     34  C   UNL     1       9.421  13.648  19.747  0.00  0.00    +0.000 A 
ATOM     35  C   UNL     1      10.580  13.365  20.475  0.00  0.00    +0.000 A 
ATOM     36  C   UNL     1      11.415  12.318  20.079  0.00  0.00    +0.000 A 
ATOM     37  C   UNL     1      11.099  11.558  18.954  0.00  0.00    +0.000 A 
ATOM     38  C   UNL     1       9.940  11.836  18.225  0.00  0.00    +0.000 A 
ENDBRANCH  30  33
ENDBRANCH  28  31
ENDBRANCH  22  28
ENDBRANCH   1  25
TORSDOF 5
ENDMDL
MODEL 4
REMARK VINA RESULT:      -8.6      1.580      2.201
REMARK  Name = 
REMARK  5 active torsions:
REMARK  status: ('A' for Active; 'I' for Inactive)
REMARK    1  A    between atoms: C_2  and  C_30
REMARK    2  A    between atoms: N_3  and  C_4
REMARK    3  A    between atoms: C_4  and  C_5
REMARK    4  A    between atoms: C_8  and  N_9
REMARK    5  A    between atoms: N_13  and  C_14
REMARK                            x       y       z     vdW  Elec       q    Type
REMARK                         _______ _______ _______ _____ _____    ______ ____
ROOT
ATOM      1  N   UNL     1      -0.184  10.699  22.149  0.00  0.00    +0.000 N 
ATOM      2  C   UNL     1      -1.088  11.730  22.160  0.00  0.00    +0.000 A 
ATOM      3  N   UNL     1      -1.869  11.952  21.104  0.00  0.00    +0.000 NA
ATOM      4  C   UNL     1      -2.791  12.933  21.180  0.00  0.00    +0.000 A 
ATOM      5  N   UNL     1      -3.587  13.211  20.028  0.00  0.00    +0.000 N 
ATOM      6  C   UNL     1      -2.972  13.692  22.343  0.00  0.00    +0.000 A 
ATOM      7  C   UNL     1      -3.976  14.678  22.535  0.00  0.00    +0.000 A 
ATOM      8  C   UNL     1      -4.049  15.398  23.725  0.00  0.00    +0.000 A 
ATOM      9  C   UNL     1      -3.127  15.141  24.730  0.00  0.00    +0.000 A 
ATOM     10  C   UNL     1      -2.161  14.146  24.550  0.00  0.00    +0.000 A 
ATOM     11  C   UNL     1      -2.074  13.406  23.375  0.00  0.00    +0.000 A 
ATOM     12  N   UNL     1      -1.141  12.452  23.282  0.00  0.00    +0.000 NA
ATOM     13  H   UNL     1       0.467  10.727  22.920  0.00  0.00    +0.000 HD
ATOM     14  H   UNL     1      -3.454  14.181  19.767  0.00  0.00    +0.000 HD
ENDROOT
BRANCH   5  15
ATOM     15  C   UNL     1      -3.659  12.351  18.906  0.00  0.00    +0.000 A 
ATOM     16  C   UNL     1      -2.488  11.969  18.232  0.00  0.00    +0.000 A 
ATOM     17  C   UNL     1      -2.544  11.202  17.070  0.00  0.00    +0.000 A 
ATOM     18  C   UNL     1      -3.778  10.799  16.575  0.00  0.00    +0.000 A 
ATOM     19 CL   UNL     1      -3.857   9.917  15.100  0.00  0.00    +0.000 Cl
ATOM     20  C   UNL     1      -4.951  11.122  17.257  0.00  0.00    +0.000 A 
ATOM     21  C   UNL     1      -4.890  11.890  18.427  0.00  0.00    +0.000 A 
ENDBRANCH   5  15
BRANCH   1  25
ATOM     22  C   UNL     1       1.949   8.817  18.904  0.00  0.00    +0.000 C 
ATOM     23  C   UNL     1       0.894   9.890  18.577  0.00  0.00    +0.000 C 
ATOM     24  C   UNL     1       0.558  10.756  19.798  0.00  0.00    +0.000 C 
ATOM     25  C   UNL     1       0.081   9.896  20.973  0.00  0.00    +0.000 C 
ATOM     26  C   UNL     1       1.154   8.854  21.321  0.00  0.00    +0.000 C 
ATOM     27  C   UNL     1       1.504   7.982  20.115  0.00  0.00    +0.000 C 
BRANCH  22  28
ATOM     28  C   UNL     1       2.218   7.887  17.705  0.00  0.00    +0.000 C 
BRANCH  28  31
ATOM     29  O   UNL     1       2.838   5.115  17.833  0.00  0.00    +0.000 OA
ATOM     30  C   UNL     1       3.744   5.934  17.803  0.00  0.00    +0.000 C 
ATOM     31  N   UNL     1       3.540   7.298  17.733  0.00  0.00    +0.000 N 
ATOM     32  H   UNL     1       4.328   7.909  17.574  0.00  0.00    +0.000 HD
BRANCH  30  33
ATOM     33  C   UNL     1       5.165   5.488  17.808  0.00  0.00    +0.000 A 
ATOM     34  C   UNL     1       5.688   4.891  16.655  0.00  0.00    +0.000 A 
ATOM     35  C   UNL     1       7.020   4.467  16.628  0.00  0.00    +0.000 A 
ATOM     36  C   UNL     1       7.825   4.627  17.758  0.00  0.00    +0.000 A 
ATOM     37  C   UNL     1       7.303   5.203  18.914  0.00  0.00    +0.000 A 
ATOM     38  C   UNL     1       5.972   5.630  18.944  0.00  0.00    +0.000 A 
ENDBRANCH  30  33
ENDBRANCH  28  31
ENDBRANCH  22  28
ENDBRANCH   1  25
TORSDOF 5
ENDMDL
MODEL 5
REMARK VINA RESULT:      -8.6      1.016      1.166
REMARK  Name = 
REMARK  5 active torsions:
REMARK  status: ('A' for Active; 'I' for Inactive)
REMARK    1  A    between atoms: C_2  and  C_30
REMARK    2  A    between atoms: N_3  and  C_4
REMARK    3  A    between atoms: C_4  and  C_5
REMARK    4  A    between atoms: C_8  and  N_9
REMARK    5  A    between atoms: N_13  and  C_14
REMARK                            x       y       z     vdW  Elec       q    Type
REMARK                         _______ _______ _______ _____ _____    ______ ____
ROOT
ATOM      1  N   UNL     1       0.093  10.446  22.109  0.00  0.00    +0.000 N 
ATOM      2  C   UNL     1      -0.729  11.543  22.061  0.00  0.00    +0.000 A 
ATOM      3  N   UNL     1      -1.473  11.780  20.982  0.00  0.00    +0.000 NA
ATOM      4  C   UNL     1      -2.318  12.831  21.000  0.00  0.00    +0.000 A 
ATOM      5  N   UNL     1      -3.071  13.123  19.823  0.00  0.00    +0.000 N 
ATOM      6  C   UNL     1      -2.459  13.649  22.129  0.00  0.00    +0.000 A 
ATOM      7  C   UNL     1      -3.387  14.715  22.262  0.00  0.00    +0.000 A 
ATOM      8  C   UNL     1      -3.424  15.487  23.421  0.00  0.00    +0.000 A 
ATOM      9  C   UNL     1      -2.542  15.201  24.454  0.00  0.00    +0.000 A 
ATOM     10  C   UNL     1      -1.653  14.129  24.332  0.00  0.00    +0.000 A 
ATOM     11  C   UNL     1      -1.603  13.338  23.189  0.00  0.00    +0.000 A 
ATOM     12  N   UNL     1      -0.745  12.311  23.152  0.00  0.00    +0.000 NA
ATOM     13  H   UNL     1       0.730  10.455  22.891  0.00  0.00    +0.000 HD
ATOM     14  H   UNL     1      -2.858  14.067  19.527  0.00  0.00    +0.000 HD
ENDROOT
BRANCH   5  15
ATOM     15  C   UNL     1      -3.190  12.225  18.735  0.00  0.00    +0.000 A 
ATOM     16  C   UNL     1      -2.057  11.868  17.985  0.00  0.00    +0.000 A 
ATOM     17  C   UNL     1      -2.166  11.063  16.854  0.00  0.00    +0.000 A 
ATOM     18  C   UNL     1      -3.417  10.597  16.464  0.00  0.00    +0.000 A 
ATOM     19 CL   UNL     1      -3.568   9.667  15.025  0.00  0.00    +0.000 Cl
ATOM     20  C   UNL     1      -4.548  10.896  17.222  0.00  0.00    +0.000 A 
ATOM     21  C   UNL     1      -4.433  11.701  18.362  0.00  0.00    +0.000 A 
ENDBRANCH   5  15
BRANCH   1  25
ATOM     22  C   UNL     1       2.127   8.285  18.976  0.00  0.00    +0.000 C 
ATOM     23  C   UNL     1       1.154   9.414  18.590  0.00  0.00    +0.000 C 
ATOM     24  C   UNL     1       0.866  10.352  19.769  0.00  0.00    +0.000 C 
ATOM     25  C   UNL     1       0.314   9.577  20.971  0.00  0.00    +0.000 C 
ATOM     26  C   UNL     1       1.307   8.478  21.378  0.00  0.00    +0.000 C 
ATOM     27  C   UNL     1       1.609   7.534  20.214  0.00  0.00    +0.000 C 
BRANCH  22  28
ATOM     28  C   UNL     1       2.344   7.288  17.820  0.00  0.00    +0.000 C 
BRANCH  28  31
ATOM     29  O   UNL     1       1.222   4.713  17.377  0.00  0.00    +0.000 OA
ATOM     30  C   UNL     1       2.266   4.815  18.004  0.00  0.00    +0.000 C 
ATOM     31  N   UNL     1       2.888   6.021  18.262  0.00  0.00    +0.000 N 
ATOM     32  H   UNL     1       3.814   6.025  18.665  0.00  0.00    +0.000 HD
BRANCH  30  33
ATOM     33  C   UNL     1       2.962   3.602  18.514  0.00  0.00    +0.000 A 
ATOM     34  C   UNL     1       3.633   3.674  19.740  0.00  0.00    +0.000 A 
ATOM     35  C   UNL     1       4.290   2.549  20.246  0.00  0.00    +0.000 A 
ATOM     36  C   UNL     1       4.290   1.356  19.521  0.00  0.00    +0.000 A 
ATOM     37  C   UNL     1       3.640   1.285  18.290  0.00  0.00    +0.000 A 
ATOM     38  C   UNL     1       2.979   2.407  17.782  0.00  0.00    +0.000 A 
ENDBRANCH  30  33
ENDBRANCH  28  31
ENDBRANCH  22  28
ENDBRANCH   1  25
TORSDOF 5
ENDMDL
MODEL 6
REMARK VINA RESULT:      -8.4      2.921      4.129
REMARK  Name = 
REMARK  5 active torsions:
REMARK  status: ('A' for Active; 'I' for Inactive)
REMARK    1  A    between atoms: C_2  and  C_30
REMARK    2  A    between atoms: N_3  and  C_4
REMARK    3  A    between atoms: C_4  and  C_5
REMARK    4  A    between atoms: C_8  and  N_9
REMARK    5  A    between atoms: N_13  and  C_14
REMARK                            x       y       z     vdW  Elec       q    Type
REMARK                         _______ _______ _______ _____ _____    ______ ____
ROOT
ATOM      1  N   UNL     1      -0.933  11.140  22.260  0.00  0.00    +0.000 N 
ATOM      2  C   UNL     1      -0.949  12.456  22.643  0.00  0.00    +0.000 A 
ATOM      3  N   UNL     1      -0.024  13.301  22.191  0.00  0.00    +0.000 NA
ATOM      4  C   UNL     1      -0.114  14.601  22.538  0.00  0.00    +0.000 A 
ATOM      5  N   UNL     1       0.909  15.496  22.104  0.00  0.00    +0.000 N 
ATOM      6  C   UNL     1      -1.167  15.087  23.324  0.00  0.00    +0.000 A 
ATOM      7  C   UNL     1      -1.384  16.450  23.658  0.00  0.00    +0.000 A 
ATOM      8  C   UNL     1      -2.450  16.822  24.474  0.00  0.00    +0.000 A 
ATOM      9  C   UNL     1      -3.306  15.844  24.959  0.00  0.00    +0.000 A 
ATOM     10  C   UNL     1      -3.108  14.507  24.600  0.00  0.00    +0.000 A 
ATOM     11  C   UNL     1      -2.057  14.111  23.780  0.00  0.00    +0.000 A 
ATOM     12  N   UNL     1      -1.945  12.817  23.456  0.00  0.00    +0.000 NA
ATOM     13  H   UNL     1      -1.566  10.559  22.788  0.00  0.00    +0.000 HD
ATOM     14  H   UNL     1       1.329  15.929  22.918  0.00  0.00    +0.000 HD
ENDROOT
BRANCH   5  15
ATOM     15  C   UNL     1       1.863  15.163  21.112  0.00  0.00    +0.000 A 
ATOM     16  C   UNL     1       3.189  14.875  21.474  0.00  0.00    +0.000 A 
ATOM     17  C   UNL     1       4.165  14.640  20.508  0.00  0.00    +0.000 A 
ATOM     18  C   UNL     1       3.819  14.681  19.162  0.00  0.00    +0.000 A 
ATOM     19 CL   UNL     1       5.035  14.467  17.964  0.00  0.00    +0.000 Cl
ATOM     20  C   UNL     1       2.498  14.914  18.781  0.00  0.00    +0.000 A 
ATOM     21  C   UNL     1       1.520  15.145  19.756  0.00  0.00    +0.000 A 
ENDBRANCH   5  15
BRANCH   1  25
ATOM     22  C   UNL     1       1.134   8.660  19.395  0.00  0.00    +0.000 C 
ATOM     23  C   UNL     1       1.407   8.449  20.895  0.00  0.00    +0.000 C 
ATOM     24  C   UNL     1       0.310   9.066  21.772  0.00  0.00    +0.000 C 
ATOM     25  C   UNL     1       0.141  10.561  21.478  0.00  0.00    +0.000 C 
ATOM     26  C   UNL     1      -0.172  10.763  19.988  0.00  0.00    +0.000 C 
ATOM     27  C   UNL     1       0.910  10.152  19.098  0.00  0.00    +0.000 C 
BRANCH  22  28
ATOM     28  C   UNL     1       2.281   8.124  18.517  0.00  0.00    +0.000 C 
BRANCH  28  31
ATOM     29  O   UNL     1       4.535   6.580  17.726  0.00  0.00    +0.000 OA
ATOM     30  C   UNL     1       3.535   6.016  18.146  0.00  0.00    +0.000 C 
ATOM     31  N   UNL     1       2.398   6.682  18.559  0.00  0.00    +0.000 N 
ATOM     32  H   UNL     1       1.662   6.166  19.021  0.00  0.00    +0.000 HD
BRANCH  30  33
ATOM     33  C   UNL     1       3.501   4.532  18.268  0.00  0.00    +0.000 A 
ATOM     34  C   UNL     1       2.595   3.811  17.483  0.00  0.00    +0.000 A 
ATOM     35  C   UNL     1       2.544   2.418  17.572  0.00  0.00    +0.000 A 
ATOM     36  C   UNL     1       3.389   1.744  18.456  0.00  0.00    +0.000 A 
ATOM     37  C   UNL     1       4.281   2.459  19.254  0.00  0.00    +0.000 A 
ATOM     38  C   UNL     1       4.335   3.852  19.166  0.00  0.00    +0.000 A 
ENDBRANCH  30  33
ENDBRANCH  28  31
ENDBRANCH  22  28
ENDBRANCH   1  25
TORSDOF 5
ENDMDL
MODEL 7
REMARK VINA RESULT:      -8.3      1.458      1.695
REMARK  Name = 
REMARK  5 active torsions:
REMARK  status: ('A' for Active; 'I' for Inactive)
REMARK    1  A    between atoms: C_2  and  C_30
REMARK    2  A    between atoms: N_3  and  C_4
REMARK    3  A    between atoms: C_4  and  C_5
REMARK    4  A    between atoms: C_8  and  N_9
REMARK    5  A    between atoms: N_13  and  C_14
REMARK                            x       y       z     vdW  Elec       q    Type
REMARK                         _______ _______ _______ _____ _____    ______ ____
ROOT
ATOM      1  N   UNL     1      -1.218  11.746  22.977  0.00  0.00    +0.000 N 
ATOM      2  C   UNL     1      -2.187  12.692  22.767  0.00  0.00    +0.000 A 
ATOM      3  N   UNL     1      -2.841  12.741  21.607  0.00  0.00    +0.000 NA
ATOM      4  C   UNL     1      -3.833  13.643  21.464  0.00  0.00    +0.000 A 
ATOM      5  N   UNL     1      -4.493  13.737  20.202  0.00  0.00    +0.000 N 
ATOM      6  C   UNL     1      -4.216  14.496  22.507  0.00  0.00    +0.000 A 
ATOM      7  C   UNL     1      -5.305  15.406  22.469  0.00  0.00    +0.000 A 
ATOM      8  C   UNL     1      -5.581  16.233  23.555  0.00  0.00    +0.000 A 
ATOM      9  C   UNL     1      -4.780  16.156  24.686  0.00  0.00    +0.000 A 
ATOM     10  C   UNL     1      -3.729  15.234  24.732  0.00  0.00    +0.000 A 
ATOM     11  C   UNL     1      -3.439  14.391  23.664  0.00  0.00    +0.000 A 
ATOM     12  N   UNL     1      -2.435  13.515  23.788  0.00  0.00    +0.000 NA
ATOM     13  H   UNL     1      -0.675  11.905  23.813  0.00  0.00    +0.000 HD
ATOM     14  H   UNL     1      -4.397  14.683  19.854  0.00  0.00    +0.000 HD
ENDROOT
BRANCH   5  15
ATOM     15  C   UNL     1      -4.359  12.766  19.180  0.00  0.00    +0.000 A 
ATOM     16  C   UNL     1      -3.110  12.177  18.924  0.00  0.00    +0.000 A 
ATOM     17  C   UNL     1      -2.935  11.292  17.863  0.00  0.00    +0.000 A 
ATOM     18  C   UNL     1      -4.017  10.978  17.048  0.00  0.00    +0.000 A 
ATOM     19 CL   UNL     1      -3.788   9.947  15.690  0.00  0.00    +0.000 Cl
ATOM     20  C   UNL     1      -5.278  11.511  17.314  0.00  0.00    +0.000 A 
ATOM     21  C   UNL     1      -5.450  12.396  18.385  0.00  0.00    +0.000 A 
ENDBRANCH   5  15
BRANCH   1  25
ATOM     22  C   UNL     1       1.436   9.320  20.591  0.00  0.00    +0.000 C 
ATOM     23  C   UNL     1       0.808  10.576  19.960  0.00  0.00    +0.000 C 
ATOM     24  C   UNL     1       0.271  11.544  21.022  0.00  0.00    +0.000 C 
ATOM     25  C   UNL     1      -0.748  10.855  21.936  0.00  0.00    +0.000 C 
ATOM     26  C   UNL     1      -0.103   9.627  22.595  0.00  0.00    +0.000 C 
ATOM     27  C   UNL     1       0.441   8.650  21.552  0.00  0.00    +0.000 C 
BRANCH  22  28
ATOM     28  C   UNL     1       1.892   8.303  19.526  0.00  0.00    +0.000 C 
BRANCH  28  31
ATOM     29  O   UNL     1       2.658   5.981  18.073  0.00  0.00    +0.000 OA
ATOM     30  C   UNL     1       2.474   5.904  19.279  0.00  0.00    +0.000 C 
ATOM     31  N   UNL     1       2.109   6.978  20.067  0.00  0.00    +0.000 N 
ATOM     32  H   UNL     1       2.107   6.876  21.072  0.00  0.00    +0.000 HD
BRANCH  30  33
ATOM     33  C   UNL     1       2.674   4.612  19.991  0.00  0.00    +0.000 A 
ATOM     34  C   UNL     1       1.813   4.282  21.044  0.00  0.00    +0.000 A 
ATOM     35  C   UNL     1       1.972   3.074  21.727  0.00  0.00    +0.000 A 
ATOM     36  C   UNL     1       3.000   2.199  21.368  0.00  0.00    +0.000 A 
ATOM     37  C   UNL     1       3.872   2.532  20.333  0.00  0.00    +0.000 A 
ATOM     38  C   UNL     1       3.714   3.739  19.646  0.00  0.00    +0.000 A 
ENDBRANCH  30  33
ENDBRANCH  28  31
ENDBRANCH  22  28
ENDBRANCH   1  25
TORSDOF 5
ENDMDL
MODEL 8
REMARK VINA RESULT:      -8.3      2.905      4.108
REMARK  Name = 
REMARK  5 active torsions:
REMARK  status: ('A' for Active; 'I' for Inactive)
REMARK    1  A    between atoms: C_2  and  C_30
REMARK    2  A    between atoms: N_3  and  C_4
REMARK    3  A    between atoms: C_4  and  C_5
REMARK    4  A    between atoms: C_8  and  N_9
REMARK    5  A    between atoms: N_13  and  C_14
REMARK                            x       y       z     vdW  Elec       q    Type
REMARK                         _______ _______ _______ _____ _____    ______ ____
ROOT
ATOM      1  N   UNL     1      -1.531  11.630  22.974  0.00  0.00    +0.000 N 
ATOM      2  C   UNL     1      -1.636  12.989  23.117  0.00  0.00    +0.000 A 
ATOM      3  N   UNL     1      -0.751  13.798  22.538  0.00  0.00    +0.000 NA
ATOM      4  C   UNL     1      -0.929  15.131  22.646  0.00  0.00    +0.000 A 
ATOM      5  N   UNL     1       0.052  15.999  22.078  0.00  0.00    +0.000 N 
ATOM      6  C   UNL     1      -2.030  15.680  23.315  0.00  0.00    +0.000 A 
ATOM      7  C   UNL     1      -2.338  17.064  23.397  0.00  0.00    +0.000 A 
ATOM      8  C   UNL     1      -3.447  17.506  24.115  0.00  0.00    +0.000 A 
ATOM      9  C   UNL     1      -4.257  16.576  24.752  0.00  0.00    +0.000 A 
ATOM     10  C   UNL     1      -3.969  15.212  24.640  0.00  0.00    +0.000 A 
ATOM     11  C   UNL     1      -2.874  14.745  23.921  0.00  0.00    +0.000 A 
ATOM     12  N   UNL     1      -2.675  13.424  23.835  0.00  0.00    +0.000 NA
ATOM     13  H   UNL     1      -2.144  11.112  23.587  0.00  0.00    +0.000 HD
ATOM     14  H   UNL     1       0.422  16.594  22.808  0.00  0.00    +0.000 HD
ENDROOT
BRANCH   5  15
ATOM     15  C   UNL     1       1.051  15.557  21.177  0.00  0.00    +0.000 A 
ATOM     16  C   UNL     1       2.336  15.238  21.648  0.00  0.00    +0.000 A 
ATOM     17  C   UNL     1       3.360  14.894  20.768  0.00  0.00    +0.000 A 
ATOM     18  C   UNL     1       3.105  14.858  19.402  0.00  0.00    +0.000 A 
ATOM     19 CL   UNL     1       4.385  14.509  18.307  0.00  0.00    +0.000 Cl
ATOM     20  C   UNL     1       1.824  15.120  18.917  0.00  0.00    +0.000 A 
ATOM     21  C   UNL     1       0.797  15.461  19.805  0.00  0.00    +0.000 A 
ENDBRANCH   5  15
BRANCH   1  25
ATOM     22  C   UNL     1       0.783   8.755  20.737  0.00  0.00    +0.000 C 
ATOM     23  C   UNL     1       1.078   8.942  22.236  0.00  0.00    +0.000 C 
ATOM     24  C   UNL     1      -0.078   9.638  22.967  0.00  0.00    +0.000 C 
ATOM     25  C   UNL     1      -0.403  10.991  22.327  0.00  0.00    +0.000 C 
ATOM     26  C   UNL     1      -0.737  10.794  20.841  0.00  0.00    +0.000 C 
ATOM     27  C   UNL     1       0.403  10.099  20.096  0.00  0.00    +0.000 C 
BRANCH  22  28
ATOM     28  C   UNL     1       1.980   8.142  19.984  0.00  0.00    +0.000 C 
BRANCH  28  31
ATOM     29  O   UNL     1       3.104   6.617  17.863  0.00  0.00    +0.000 OA
ATOM     30  C   UNL     1       2.428   6.058  18.714  0.00  0.00    +0.000 C 
ATOM     31  N   UNL     1       1.849   6.714  19.783  0.00  0.00    +0.000 N 
ATOM     32  H   UNL     1       1.419   6.175  20.521  0.00  0.00    +0.000 HD
BRANCH  30  33
ATOM     33  C   UNL     1       2.212   4.586  18.660  0.00  0.00    +0.000 A 
ATOM     34  C   UNL     1       2.893   3.840  17.690  0.00  0.00    +0.000 A 
ATOM     35  C   UNL     1       2.714   2.456  17.619  0.00  0.00    +0.000 A 
ATOM     36  C   UNL     1       1.845   1.817  18.506  0.00  0.00    +0.000 A 
ATOM     37  C   UNL     1       1.151   2.559  19.460  0.00  0.00    +0.000 A 
ATOM     38  C   UNL     1       1.328   3.943  19.536  0.00  0.00    +0.000 A 
ENDBRANCH  30  33
ENDBRANCH  28  31
ENDBRANCH  22  28
ENDBRANCH   1  25
TORSDOF 5
ENDMDL
MODEL 9
REMARK VINA RESULT:      -8.2      5.261      7.052
REMARK  Name = 
REMARK  5 active torsions:
REMARK  status: ('A' for Active; 'I' for Inactive)
REMARK    1  A    between atoms: C_2  and  C_30
REMARK    2  A    between atoms: N_3  and  C_4
REMARK    3  A    between atoms: C_4  and  C_5
REMARK    4  A    between atoms: C_8  and  N_9
REMARK    5  A    between atoms: N_13  and  C_14
REMARK                            x       y       z     vdW  Elec       q    Type
REMARK                         _______ _______ _______ _____ _____    ______ ____
ROOT
ATOM      1  N   UNL     1       1.606  14.944  21.869  0.00  0.00    +0.000 N 
ATOM      2  C   UNL     1       0.437  14.285  22.152  0.00  0.00    +0.000 A 
ATOM      3  N   UNL     1       0.142  13.143  21.534  0.00  0.00    +0.000 NA
ATOM      4  C   UNL     1      -0.985  12.492  21.888  0.00  0.00    +0.000 A 
ATOM      5  N   UNL     1      -1.334  11.300  21.186  0.00  0.00    +0.000 N 
ATOM      6  C   UNL     1      -1.825  12.963  22.906  0.00  0.00    +0.000 A 
ATOM      7  C   UNL     1      -2.976  12.294  23.400  0.00  0.00    +0.000 A 
ATOM      8  C   UNL     1      -3.760  12.868  24.398  0.00  0.00    +0.000 A 
ATOM      9  C   UNL     1      -3.403  14.106  24.912  0.00  0.00    +0.000 A 
ATOM     10  C   UNL     1      -2.249  14.746  24.447  0.00  0.00    +0.000 A 
ATOM     11  C   UNL     1      -1.445  14.189  23.458  0.00  0.00    +0.000 A 
ATOM     12  N   UNL     1      -0.341  14.845  23.080  0.00  0.00    +0.000 NA
ATOM     13  H   UNL     1       1.650  15.873  22.261  0.00  0.00    +0.000 HD
ATOM     14  H   UNL     1      -2.251  11.421  20.773  0.00  0.00    +0.000 HD
ENDROOT
BRANCH   5  15
ATOM     15  C   UNL     1      -0.441  10.612  20.329  0.00  0.00    +0.000 A 
ATOM     16  C   UNL     1       0.395   9.605  20.840  0.00  0.00    +0.000 A 
ATOM     17  C   UNL     1       1.347   8.983  20.037  0.00  0.00    +0.000 A 
ATOM     18  C   UNL     1       1.468   9.358  18.703  0.00  0.00    +0.000 A 
ATOM     19 CL   UNL     1       2.694   8.649  17.727  0.00  0.00    +0.000 Cl
ATOM     20  C   UNL     1       0.614  10.319  18.161  0.00  0.00    +0.000 A 
ATOM     21  C   UNL     1      -0.345  10.938  18.972  0.00  0.00    +0.000 A 
ENDBRANCH   5  15
BRANCH   1  25
ATOM     22  C   UNL     1       4.667  15.129  18.832  0.00  0.00    +0.000 C 
ATOM     23  C   UNL     1       3.207  14.888  18.404  0.00  0.00    +0.000 C 
ATOM     24  C   UNL     1       2.213  15.283  19.504  0.00  0.00    +0.000 C 
ATOM     25  C   UNL     1       2.504  14.535  20.809  0.00  0.00    +0.000 C 
ATOM     26  C   UNL     1       3.948  14.812  21.253  0.00  0.00    +0.000 C 
ATOM     27  C   UNL     1       4.954  14.426  20.169  0.00  0.00    +0.000 C 
BRANCH  22  28
ATOM     28  C   UNL     1       5.669  14.646  17.767  0.00  0.00    +0.000 C 
BRANCH  28  31
ATOM     29  O   UNL     1       7.384  12.570  16.851  0.00  0.00    +0.000 OA
ATOM     30  C   UNL     1       7.715  13.243  17.816  0.00  0.00    +0.000 C 
ATOM     31  N   UNL     1       6.953  14.275  18.326  0.00  0.00    +0.000 N 
ATOM     32  H   UNL     1       7.345  14.877  19.036  0.00  0.00    +0.000 HD
BRANCH  30  33
ATOM     33  C   UNL     1       9.018  12.999  18.495  0.00  0.00    +0.000 A 
ATOM     34  C   UNL     1       9.716  11.820  18.210  0.00  0.00    +0.000 A 
ATOM     35  C   UNL     1      10.943  11.566  18.828  0.00  0.00    +0.000 A 
ATOM     36  C   UNL     1      11.468  12.482  19.742  0.00  0.00    +0.000 A 
ATOM     37  C   UNL     1      10.767  13.649  20.043  0.00  0.00    +0.000 A 
ATOM     38  C   UNL     1       9.540  13.907  19.425  0.00  0.00    +0.000 A 
ENDBRANCH  30  33
ENDBRANCH  28  31
ENDBRANCH  22  28
ENDBRANCH   1  25
TORSDOF 5
ENDMDL
