MODEL 1
REMARK VINA RESULT:      -7.9      0.000      0.000
REMARK  Name = 
REMARK  9 active torsions:
REMARK  status: ('A' for Active; 'I' for Inactive)
REMARK    1  A    between atoms: C_1  and  C_2
REMARK    2  A    between atoms: C_2  and  O_3
REMARK    3  A    between atoms: O_3  and  C_4
REMARK    4  A    between atoms: C_4  and  C_6
REMARK    5  A    between atoms: C_7  and  C_8
REMARK    6  A    between atoms: C_16  and  N_17
REMARK    7  A    between atoms: C_18  and  C_20
REMARK    8  A    between atoms: C_26  and  C_27
REMARK    9  A    between atoms: C_27  and  O_29
REMARK                            x       y       z     vdW  Elec       q    Type
REMARK                         _______ _______ _______ _____ _____    ______ ____
ROOT
ATOM      1  C   UNL     1       0.847   9.202  20.103  0.00  0.00    +0.000 A 
ATOM      2  C   UNL     1       0.750  10.386  19.267  0.00  0.00    +0.000 A 
ATOM      3  C   UNL     1       1.451  10.234  18.085  0.00  0.00    +0.000 A 
ATOM      4  S   UNL     1       2.319   8.758  18.041  0.00  0.00    +0.000 S 
ATOM      5  C   UNL     1       1.815   8.352  19.617  0.00  0.00    +0.000 A 
ENDROOT
BRANCH   2   6
ATOM      6  C   UNL     1       0.057  11.627  19.619  0.00  0.00    +0.000 A 
ATOM      7  C   UNL     1       0.778  12.652  20.257  0.00  0.00    +0.000 A 
ATOM      8  C   UNL     1       0.128  13.756  20.800  0.00  0.00    +0.000 A 
ATOM      9  C   UNL     1      -1.246  13.885  20.644  0.00  0.00    +0.000 A 
ATOM     10  C   UNL     1      -1.960  12.926  19.924  0.00  0.00    +0.000 A 
ATOM     11  C   UNL     1      -1.312  11.796  19.413  0.00  0.00    +0.000 A 
ENDBRANCH   2   6
BRANCH   5  12
ATOM     12  N   UNL     1       2.325   7.196  20.192  0.00  0.00    +0.000 N 
ATOM     13  C   UNL     1       2.417   6.061  19.416  0.00  0.00    +0.000 C 
ATOM     14  O   UNL     1       2.157   5.991  18.209  0.00  0.00    +0.000 OA
ATOM     15  H   UNL     1       3.117   7.332  20.814  0.00  0.00    +0.000 HD
BRANCH  13  16
ATOM     16  C   UNL     1       2.823   4.773  20.113  0.00  0.00    +0.000 C 
ATOM     17  C   UNL     1       1.883   4.116  21.144  0.00  0.00    +0.000 C 
ATOM     18  C   UNL     1       2.457   2.778  21.597  0.00  0.00    +0.000 C 
ATOM     19  C   UNL     1       2.343   1.915  20.576  0.00  0.00    +0.000 C 
ATOM     20  C   UNL     1       1.788   2.689  19.419  0.00  0.00    +0.000 C 
ATOM     21  C   UNL     1       0.799   3.552  20.229  0.00  0.00    +0.000 C 
ATOM     22  C   UNL     1       2.837   3.731  18.947  0.00  0.00    +0.000 C 
BRANCH  22  23
ATOM     23  C   UNL     1       4.266   3.289  18.703  0.00  0.00    +0.000 C 
ATOM     24  O   UNL     1       5.233   3.570  19.397  0.00  0.00    +0.000 OA
BRANCH  23  25
ATOM     25  O   UNL     1       4.382   2.507  17.598  0.00  0.00    +0.000 OA
ATOM     26  H   UNL     1       3.564   2.450  17.048  0.00  0.00    +0.000 HD
ENDBRANCH  23  25
ENDBRANCH  22  23
ENDBRANCH  13  16
ENDBRANCH   5  12
BRANCH   1  27
ATOM     27  C   UNL     1       0.134   9.000  21.358  0.00  0.00    +0.000 C 
ATOM     28  O   UNL     1      -0.693   8.112  21.530  0.00  0.00    +0.000 OA
BRANCH  27  29
ATOM     29  O   UNL     1       0.463   9.930  22.306  0.00  0.00    +0.000 OA
BRANCH  29  31
ATOM     30  C   UNL     1      -1.432  11.199  23.125  0.00  0.00    +0.000 C 
ATOM     31  C   UNL     1      -0.481  10.045  23.378  0.00  0.00    +0.000 C 
ENDBRANCH  29  31
ENDBRANCH  27  29
ENDBRANCH   1  27
TORSDOF 8
ENDMDL
MODEL 2
REMARK VINA RESULT:      -7.6      0.807      1.304
REMARK  Name = 
REMARK  9 active torsions:
REMARK  status: ('A' for Active; 'I' for Inactive)
REMARK    1  A    between atoms: C_1  and  C_2
REMARK    2  A    between atoms: C_2  and  O_3
REMARK    3  A    between atoms: O_3  and  C_4
REMARK    4  A    between atoms: C_4  and  C_6
REMARK    5  A    between atoms: C_7  and  C_8
REMARK    6  A    between atoms: C_16  and  N_17
REMARK    7  A    between atoms: C_18  and  C_20
REMARK    8  A    between atoms: C_26  and  C_27
REMARK    9  A    between atoms: C_27  and  O_29
REMARK                            x       y       z     vdW  Elec       q    Type
REMARK                         _______ _______ _______ _____ _____    ______ ____
ROOT
ATOM      1  C   UNL     1       1.079   9.587  20.414  0.00  0.00    +0.000 A 
ATOM      2  C   UNL     1       1.019  10.712  19.497  0.00  0.00    +0.000 A 
ATOM      3  C   UNL     1       1.312  10.331  18.202  0.00  0.00    +0.000 A 
ATOM      4  S   UNL     1       1.786   8.687  18.110  0.00  0.00    +0.000 S 
ATOM      5  C   UNL     1       1.662   8.501  19.799  0.00  0.00    +0.000 A 
ENDROOT
BRANCH   2   6
ATOM      6  C   UNL     1       0.742  12.102  19.868  0.00  0.00    +0.000 A 
ATOM      7  C   UNL     1      -0.427  12.715  19.384  0.00  0.00    +0.000 A 
ATOM      8  C   UNL     1      -0.632  14.085  19.528  0.00  0.00    +0.000 A 
ATOM      9  C   UNL     1       0.298  14.844  20.225  0.00  0.00    +0.000 A 
ATOM     10  C   UNL     1       1.413  14.230  20.799  0.00  0.00    +0.000 A 
ATOM     11  C   UNL     1       1.638  12.861  20.620  0.00  0.00    +0.000 A 
ENDBRANCH   2   6
BRANCH   5  12
ATOM     12  N   UNL     1       2.043   7.287  20.356  0.00  0.00    +0.000 N 
ATOM     13  C   UNL     1       2.704   6.378  19.559  0.00  0.00    +0.000 C 
ATOM     14  O   UNL     1       3.069   6.572  18.393  0.00  0.00    +0.000 OA
ATOM     15  H   UNL     1       2.401   7.338  21.305  0.00  0.00    +0.000 HD
BRANCH  13  16
ATOM     16  C   UNL     1       2.963   5.000  20.145  0.00  0.00    +0.000 C 
ATOM     17  C   UNL     1       1.917   4.336  21.063  0.00  0.00    +0.000 C 
ATOM     18  C   UNL     1       2.351   2.916  21.410  0.00  0.00    +0.000 C 
ATOM     19  C   UNL     1       2.220   2.165  20.305  0.00  0.00    +0.000 C 
ATOM     20  C   UNL     1       1.796   3.089  19.205  0.00  0.00    +0.000 C 
ATOM     21  C   UNL     1       0.839   3.958  20.048  0.00  0.00    +0.000 C 
ATOM     22  C   UNL     1       2.952   4.074  18.884  0.00  0.00    +0.000 C 
BRANCH  22  23
ATOM     23  C   UNL     1       4.350   3.531  18.665  0.00  0.00    +0.000 C 
ATOM     24  O   UNL     1       5.305   3.680  19.415  0.00  0.00    +0.000 OA
BRANCH  23  25
ATOM     25  O   UNL     1       4.451   2.822  17.510  0.00  0.00    +0.000 OA
ATOM     26  H   UNL     1       4.869   3.312  16.763  0.00  0.00    +0.000 HD
ENDBRANCH  23  25
ENDBRANCH  22  23
ENDBRANCH  13  16
ENDBRANCH   5  12
BRANCH   1  27
ATOM     27  C   UNL     1       0.717   9.632  21.824  0.00  0.00    +0.000 C 
ATOM     28  O   UNL     1       1.522   9.474  22.735  0.00  0.00    +0.000 OA
BRANCH  27  29
ATOM     29  O   UNL     1      -0.623   9.833  22.018  0.00  0.00    +0.000 OA
BRANCH  29  31
ATOM     30  C   UNL     1      -1.716  11.892  22.680  0.00  0.00    +0.000 C 
ATOM     31  C   UNL     1      -0.943  10.669  23.136  0.00  0.00    +0.000 C 
ENDBRANCH  29  31
ENDBRANCH  27  29
ENDBRANCH   1  27
TORSDOF 8
ENDMDL
MODEL 3
REMARK VINA RESULT:      -7.2      0.948      1.133
REMARK  Name = 
REMARK  9 active torsions:
REMARK  status: ('A' for Active; 'I' for Inactive)
REMARK    1  A    between atoms: C_1  and  C_2
REMARK    2  A    between atoms: C_2  and  O_3
REMARK    3  A    between atoms: O_3  and  C_4
REMARK    4  A    between atoms: C_4  and  C_6
REMARK    5  A    between atoms: C_7  and  C_8
REMARK    6  A    between atoms: C_16  and  N_17
REMARK    7  A    between atoms: C_18  and  C_20
REMARK    8  A    between atoms: C_26  and  C_27
REMARK    9  A    between atoms: C_27  and  O_29
REMARK                            x       y       z     vdW  Elec       q    Type
REMARK                         _______ _______ _______ _____ _____    ______ ____
ROOT
ATOM      1  C   UNL     1       0.896   9.187  20.097  0.00  0.00    +0.000 A 
ATOM      2  C   UNL     1       0.827  10.473  19.425  0.00  0.00    +0.000 A 
ATOM      3  C   UNL     1       1.429  10.433  18.182  0.00  0.00    +0.000 A 
ATOM      4  S   UNL     1       2.182   8.923  17.884  0.00  0.00    +0.000 S 
ATOM      5  C   UNL     1       1.763   8.348  19.432  0.00  0.00    +0.000 A 
ENDROOT
BRANCH   2   6
ATOM      6  C   UNL     1       0.252  11.699  19.984  0.00  0.00    +0.000 A 
ATOM      7  C   UNL     1       1.064  12.534  20.771  0.00  0.00    +0.000 A 
ATOM      8  C   UNL     1       0.520  13.591  21.495  0.00  0.00    +0.000 A 
ATOM      9  C   UNL     1      -0.835  13.871  21.379  0.00  0.00    +0.000 A 
ATOM     10  C   UNL     1      -1.634  13.113  20.521  0.00  0.00    +0.000 A 
ATOM     11  C   UNL     1      -1.094  12.027  19.825  0.00  0.00    +0.000 A 
ENDBRANCH   2   6
BRANCH   5  12
ATOM     12  N   UNL     1       2.228   7.097  19.817  0.00  0.00    +0.000 N 
ATOM     13  C   UNL     1       2.957   6.360  18.909  0.00  0.00    +0.000 C 
ATOM     14  O   UNL     1       3.313   6.745  17.789  0.00  0.00    +0.000 OA
ATOM     15  H   UNL     1       2.576   7.036  20.769  0.00  0.00    +0.000 HD
BRANCH  13  16
ATOM     16  C   UNL     1       3.311   4.934  19.297  0.00  0.00    +0.000 C 
ATOM     17  C   UNL     1       2.199   3.917  19.622  0.00  0.00    +0.000 C 
ATOM     18  C   UNL     1       2.803   2.536  19.851  0.00  0.00    +0.000 C 
ATOM     19  C   UNL     1       3.222   2.069  18.664  0.00  0.00    +0.000 C 
ATOM     20  C   UNL     1       2.991   3.163  17.666  0.00  0.00    +0.000 C 
ATOM     21  C   UNL     1       1.637   3.646  18.228  0.00  0.00    +0.000 C 
ATOM     22  C   UNL     1       3.932   4.356  17.982  0.00  0.00    +0.000 C 
BRANCH  22  23
ATOM     23  C   UNL     1       5.408   4.097  18.212  0.00  0.00    +0.000 C 
ATOM     24  O   UNL     1       5.998   4.200  19.278  0.00  0.00    +0.000 OA
BRANCH  23  25
ATOM     25  O   UNL     1       6.045   3.712  17.076  0.00  0.00    +0.000 OA
ATOM     26  H   UNL     1       6.511   4.439  16.599  0.00  0.00    +0.000 HD
ENDBRANCH  23  25
ENDBRANCH  22  23
ENDBRANCH  13  16
ENDBRANCH   5  12
BRANCH   1  27
ATOM     27  C   UNL     1       0.262   8.869  21.369  0.00  0.00    +0.000 C 
ATOM     28  O   UNL     1      -0.628   8.035  21.491  0.00  0.00    +0.000 OA
BRANCH  27  29
ATOM     29  O   UNL     1       0.742   9.628  22.401  0.00  0.00    +0.000 OA
BRANCH  29  31
ATOM     30  C   UNL     1      -1.236  10.744  23.245  0.00  0.00    +0.000 C 
ATOM     31  C   UNL     1      -0.142   9.731  23.524  0.00  0.00    +0.000 C 
ENDBRANCH  29  31
ENDBRANCH  27  29
ENDBRANCH   1  27
TORSDOF 8
ENDMDL
MODEL 4
REMARK VINA RESULT:      -7.0      2.647      4.040
REMARK  Name = 
REMARK  9 active torsions:
REMARK  status: ('A' for Active; 'I' for Inactive)
REMARK    1  A    between atoms: C_1  and  C_2
REMARK    2  A    between atoms: C_2  and  O_3
REMARK    3  A    between atoms: O_3  and  C_4
REMARK    4  A    between atoms: C_4  and  C_6
REMARK    5  A    between atoms: C_7  and  C_8
REMARK    6  A    between atoms: C_16  and  N_17
REMARK    7  A    between atoms: C_18  and  C_20
REMARK    8  A    between atoms: C_26  and  C_27
REMARK    9  A    between atoms: C_27  and  O_29
REMARK                            x       y       z     vdW  Elec       q    Type
REMARK                         _______ _______ _______ _____ _____    ______ ____
ROOT
ATOM      1  C   UNL     1       1.624   8.895  19.336  0.00  0.00    +0.000 A 
ATOM      2  C   UNL     1       0.428   9.104  20.134  0.00  0.00    +0.000 A 
ATOM      3  C   UNL     1       0.309   8.156  21.133  0.00  0.00    +0.000 A 
ATOM      4  S   UNL     1       1.531   6.960  21.028  0.00  0.00    +0.000 S 
ATOM      5  C   UNL     1       2.178   7.667  19.619  0.00  0.00    +0.000 A 
ENDROOT
BRANCH   2   6
ATOM      6  C   UNL     1      -0.581  10.141  19.906  0.00  0.00    +0.000 A 
ATOM      7  C   UNL     1      -1.272  10.160  18.682  0.00  0.00    +0.000 A 
ATOM      8  C   UNL     1      -2.081  11.237  18.331  0.00  0.00    +0.000 A 
ATOM      9  C   UNL     1      -2.268  12.274  19.236  0.00  0.00    +0.000 A 
ATOM     10  C   UNL     1      -1.669  12.218  20.495  0.00  0.00    +0.000 A 
ATOM     11  C   UNL     1      -0.824  11.155  20.832  0.00  0.00    +0.000 A 
ENDBRANCH   2   6
BRANCH   5  12
ATOM     12  N   UNL     1       3.228   7.019  18.982  0.00  0.00    +0.000 N 
ATOM     13  C   UNL     1       2.940   5.937  18.178  0.00  0.00    +0.000 C 
ATOM     14  O   UNL     1       1.807   5.527  17.900  0.00  0.00    +0.000 OA
ATOM     15  H   UNL     1       3.952   7.626  18.609  0.00  0.00    +0.000 HD
BRANCH  13  16
ATOM     16  C   UNL     1       4.117   5.150  17.626  0.00  0.00    +0.000 C 
ATOM     17  C   UNL     1       4.461   5.216  16.124  0.00  0.00    +0.000 C 
ATOM     18  C   UNL     1       5.751   4.450  15.849  0.00  0.00    +0.000 C 
ATOM     19  C   UNL     1       6.767   5.158  16.365  0.00  0.00    +0.000 C 
ATOM     20  C   UNL     1       6.160   6.336  17.063  0.00  0.00    +0.000 C 
ATOM     21  C   UNL     1       5.054   6.620  16.025  0.00  0.00    +0.000 C 
ATOM     22  C   UNL     1       5.349   5.845  18.293  0.00  0.00    +0.000 C 
BRANCH  22  23
ATOM     23  C   UNL     1       5.990   4.875  19.265  0.00  0.00    +0.000 C 
ATOM     24  O   UNL     1       5.637   3.722  19.468  0.00  0.00    +0.000 OA
BRANCH  23  25
ATOM     25  O   UNL     1       7.050   5.423  19.916  0.00  0.00    +0.000 OA
ATOM     26  H   UNL     1       7.610   6.016  19.360  0.00  0.00    +0.000 HD
ENDBRANCH  23  25
ENDBRANCH  22  23
ENDBRANCH  13  16
ENDBRANCH   5  12
BRANCH   1  27
ATOM     27  C   UNL     1       2.094   9.782  18.280  0.00  0.00    +0.000 C 
ATOM     28  O   UNL     1       2.212   9.437  17.110  0.00  0.00    +0.000 OA
BRANCH  27  29
ATOM     29  O   UNL     1       2.423  11.026  18.745  0.00  0.00    +0.000 OA
BRANCH  29  31
ATOM     30  C   UNL     1       1.302  13.144  18.387  0.00  0.00    +0.000 C 
ATOM     31  C   UNL     1       2.218  12.086  17.803  0.00  0.00    +0.000 C 
ENDBRANCH  29  31
ENDBRANCH  27  29
ENDBRANCH   1  27
TORSDOF 8
ENDMDL
MODEL 5
REMARK VINA RESULT:      -7.0      0.949      1.522
REMARK  Name = 
REMARK  9 active torsions:
REMARK  status: ('A' for Active; 'I' for Inactive)
REMARK    1  A    between atoms: C_1  and  C_2
REMARK    2  A    between atoms: C_2  and  O_3
REMARK    3  A    between atoms: O_3  and  C_4
REMARK    4  A    between atoms: C_4  and  C_6
REMARK    5  A    between atoms: C_7  and  C_8
REMARK    6  A    between atoms: C_16  and  N_17
REMARK    7  A    between atoms: C_18  and  C_20
REMARK    8  A    between atoms: C_26  and  C_27
REMARK    9  A    between atoms: C_27  and  O_29
REMARK                            x       y       z     vdW  Elec       q    Type
REMARK                         _______ _______ _______ _____ _____    ______ ____
ROOT
ATOM      1  C   UNL     1       1.100   9.185  20.193  0.00  0.00    +0.000 A 
ATOM      2  C   UNL     1       0.638  10.287  19.366  0.00  0.00    +0.000 A 
ATOM      3  C   UNL     1       0.897  10.064  18.027  0.00  0.00    +0.000 A 
ATOM      4  S   UNL     1       1.798   8.628  17.780  0.00  0.00    +0.000 S 
ATOM      5  C   UNL     1       1.898   8.338  19.456  0.00  0.00    +0.000 A 
ENDROOT
BRANCH   2   6
ATOM      6  C   UNL     1       0.024  11.523  19.856  0.00  0.00    +0.000 A 
ATOM      7  C   UNL     1      -1.354  11.722  19.659  0.00  0.00    +0.000 A 
ATOM      8  C   UNL     1      -1.944  12.957  19.912  0.00  0.00    +0.000 A 
ATOM      9  C   UNL     1      -1.175  13.987  20.437  0.00  0.00    +0.000 A 
ATOM     10  C   UNL     1       0.172  13.772  20.733  0.00  0.00    +0.000 A 
ATOM     11  C   UNL     1       0.774  12.543  20.441  0.00  0.00    +0.000 A 
ENDBRANCH   2   6
BRANCH   5  12
ATOM     12  N   UNL     1       2.655   7.258  19.892  0.00  0.00    +0.000 N 
ATOM     13  C   UNL     1       2.668   6.114  19.125  0.00  0.00    +0.000 C 
ATOM     14  O   UNL     1       2.125   5.978  18.022  0.00  0.00    +0.000 OA
ATOM     15  H   UNL     1       3.557   7.494  20.294  0.00  0.00    +0.000 HD
BRANCH  13  16
ATOM     16  C   UNL     1       3.369   4.897  19.706  0.00  0.00    +0.000 C 
ATOM     17  C   UNL     1       2.551   3.676  20.173  0.00  0.00    +0.000 C 
ATOM     18  C   UNL     1       3.487   2.547  20.589  0.00  0.00    +0.000 C 
ATOM     19  C   UNL     1       4.053   2.052  19.477  0.00  0.00    +0.000 C 
ATOM     20  C   UNL     1       3.577   2.901  18.338  0.00  0.00    +0.000 C 
ATOM     21  C   UNL     1       2.127   3.082  18.832  0.00  0.00    +0.000 C 
ATOM     22  C   UNL     1       4.163   4.331  18.483  0.00  0.00    +0.000 C 
BRANCH  22  23
ATOM     23  C   UNL     1       5.647   4.503  18.741  0.00  0.00    +0.000 C 
ATOM     24  O   UNL     1       6.149   5.031  19.723  0.00  0.00    +0.000 OA
BRANCH  23  25
ATOM     25  O   UNL     1       6.407   3.986  17.741  0.00  0.00    +0.000 OA
ATOM     26  H   UNL     1       6.512   3.005  17.770  0.00  0.00    +0.000 HD
ENDBRANCH  23  25
ENDBRANCH  22  23
ENDBRANCH  13  16
ENDBRANCH   5  12
BRANCH   1  27
ATOM     27  C   UNL     1       0.879   9.062  21.627  0.00  0.00    +0.000 C 
ATOM     28  O   UNL     1       1.788   8.984  22.446  0.00  0.00    +0.000 OA
BRANCH  27  29
ATOM     29  O   UNL     1      -0.448   9.005  21.954  0.00  0.00    +0.000 OA
BRANCH  29  31
ATOM     30  C   UNL     1      -1.262  10.951  23.147  0.00  0.00    +0.000 C 
ATOM     31  C   UNL     1      -0.763   9.522  23.252  0.00  0.00    +0.000 C 
ENDBRANCH  29  31
ENDBRANCH  27  29
ENDBRANCH   1  27
TORSDOF 8
ENDMDL
MODEL 6
REMARK VINA RESULT:      -6.7      2.363      3.766
REMARK  Name = 
REMARK  9 active torsions:
REMARK  status: ('A' for Active; 'I' for Inactive)
REMARK    1  A    between atoms: C_1  and  C_2
REMARK    2  A    between atoms: C_2  and  O_3
REMARK    3  A    between atoms: O_3  and  C_4
REMARK    4  A    between atoms: C_4  and  C_6
REMARK    5  A    between atoms: C_7  and  C_8
REMARK    6  A    between atoms: C_16  and  N_17
REMARK    7  A    between atoms: C_18  and  C_20
REMARK    8  A    between atoms: C_26  and  C_27
REMARK    9  A    between atoms: C_27  and  O_29
REMARK                            x       y       z     vdW  Elec       q    Type
REMARK                         _______ _______ _______ _____ _____    ______ ____
ROOT
ATOM      1  C   UNL     1       1.602   8.857  19.333  0.00  0.00    +0.000 A 
ATOM      2  C   UNL     1       0.459   9.118  20.191  0.00  0.00    +0.000 A 
ATOM      3  C   UNL     1       0.363   8.189  21.210  0.00  0.00    +0.000 A 
ATOM      4  S   UNL     1       1.539   6.951  21.060  0.00  0.00    +0.000 S 
ATOM      5  C   UNL     1       2.131   7.615  19.607  0.00  0.00    +0.000 A 
ENDROOT
BRANCH   2   6
ATOM      6  C   UNL     1      -0.526  10.184  20.000  0.00  0.00    +0.000 A 
ATOM      7  C   UNL     1      -1.238  10.244  18.789  0.00  0.00    +0.000 A 
ATOM      8  C   UNL     1      -2.025  11.348  18.472  0.00  0.00    +0.000 A 
ATOM      9  C   UNL     1      -2.169  12.372  19.399  0.00  0.00    +0.000 A 
ATOM     10  C   UNL     1      -1.550  12.277  20.647  0.00  0.00    +0.000 A 
ATOM     11  C   UNL     1      -0.727  11.187  20.948  0.00  0.00    +0.000 A 
ENDBRANCH   2   6
BRANCH   5  12
ATOM     12  N   UNL     1       3.123   6.923  18.925  0.00  0.00    +0.000 N 
ATOM     13  C   UNL     1       2.749   5.896  18.086  0.00  0.00    +0.000 C 
ATOM     14  O   UNL     1       1.586   5.575  17.815  0.00  0.00    +0.000 OA
ATOM     15  H   UNL     1       3.881   7.494  18.562  0.00  0.00    +0.000 HD
BRANCH  13  16
ATOM     16  C   UNL     1       3.860   5.053  17.482  0.00  0.00    +0.000 C 
ATOM     17  C   UNL     1       4.849   5.675  16.476  0.00  0.00    +0.000 C 
ATOM     18  C   UNL     1       5.938   4.668  16.121  0.00  0.00    +0.000 C 
ATOM     19  C   UNL     1       6.733   4.528  17.193  0.00  0.00    +0.000 C 
ATOM     20  C   UNL     1       6.131   5.357  18.286  0.00  0.00    +0.000 C 
ATOM     21  C   UNL     1       5.696   6.545  17.403  0.00  0.00    +0.000 C 
ATOM     22  C   UNL     1       4.772   4.739  18.713  0.00  0.00    +0.000 C 
BRANCH  22  23
ATOM     23  C   UNL     1       4.693   3.255  19.013  0.00  0.00    +0.000 C 
ATOM     24  O   UNL     1       5.139   2.699  20.007  0.00  0.00    +0.000 OA
BRANCH  23  25
ATOM     25  O   UNL     1       4.042   2.567  18.040  0.00  0.00    +0.000 OA
ATOM     26  H   UNL     1       4.366   2.744  17.125  0.00  0.00    +0.000 HD
ENDBRANCH  23  25
ENDBRANCH  22  23
ENDBRANCH  13  16
ENDBRANCH   5  12
BRANCH   1  27
ATOM     27  C   UNL     1       2.044   9.712  18.240  0.00  0.00    +0.000 C 
ATOM     28  O   UNL     1       2.118   9.337  17.075  0.00  0.00    +0.000 OA
BRANCH  27  29
ATOM     29  O   UNL     1       2.400  10.965  18.660  0.00  0.00    +0.000 OA
BRANCH  29  31
ATOM     30  C   UNL     1       1.435  13.186  18.578  0.00  0.00    +0.000 C 
ATOM     31  C   UNL     1       1.998  12.023  17.783  0.00  0.00    +0.000 C 
ENDBRANCH  29  31
ENDBRANCH  27  29
ENDBRANCH   1  27
TORSDOF 8
ENDMDL
MODEL 7
REMARK VINA RESULT:      -6.7      2.323      3.704
REMARK  Name = 
REMARK  9 active torsions:
REMARK  status: ('A' for Active; 'I' for Inactive)
REMARK    1  A    between atoms: C_1  and  C_2
REMARK    2  A    between atoms: C_2  and  O_3
REMARK    3  A    between atoms: O_3  and  C_4
REMARK    4  A    between atoms: C_4  and  C_6
REMARK    5  A    between atoms: C_7  and  C_8
REMARK    6  A    between atoms: C_16  and  N_17
REMARK    7  A    between atoms: C_18  and  C_20
REMARK    8  A    between atoms: C_26  and  C_27
REMARK    9  A    between atoms: C_27  and  O_29
REMARK                            x       y       z     vdW  Elec       q    Type
REMARK                         _______ _______ _______ _____ _____    ______ ____
ROOT
ATOM      1  C   UNL     1       1.577   9.020  19.324  0.00  0.00    +0.000 A 
ATOM      2  C   UNL     1       0.438   9.284  20.187  0.00  0.00    +0.000 A 
ATOM      3  C   UNL     1       0.314   8.325  21.175  0.00  0.00    +0.000 A 
ATOM      4  S   UNL     1       1.454   7.060  20.986  0.00  0.00    +0.000 S 
ATOM      5  C   UNL     1       2.069   7.755  19.558  0.00  0.00    +0.000 A 
ENDROOT
BRANCH   2   6
ATOM      6  C   UNL     1      -0.515  10.384  20.031  0.00  0.00    +0.000 A 
ATOM      7  C   UNL     1      -0.690  11.289  21.092  0.00  0.00    +0.000 A 
ATOM      8  C   UNL     1      -1.726  12.219  21.080  0.00  0.00    +0.000 A 
ATOM      9  C   UNL     1      -2.555  12.303  19.969  0.00  0.00    +0.000 A 
ATOM     10  C   UNL     1      -2.329  11.479  18.865  0.00  0.00    +0.000 A 
ATOM     11  C   UNL     1      -1.313  10.518  18.894  0.00  0.00    +0.000 A 
ENDBRANCH   2   6
BRANCH   5  12
ATOM     12  N   UNL     1       3.043   7.057  18.855  0.00  0.00    +0.000 N 
ATOM     13  C   UNL     1       2.652   5.993  18.073  0.00  0.00    +0.000 C 
ATOM     14  O   UNL     1       1.485   5.638  17.868  0.00  0.00    +0.000 OA
ATOM     15  H   UNL     1       3.770   7.630  18.436  0.00  0.00    +0.000 HD
BRANCH  13  16
ATOM     16  C   UNL     1       3.752   5.150  17.447  0.00  0.00    +0.000 C 
ATOM     17  C   UNL     1       4.811   5.804  16.537  0.00  0.00    +0.000 C 
ATOM     18  C   UNL     1       5.870   4.779  16.146  0.00  0.00    +0.000 C 
ATOM     19  C   UNL     1       6.610   4.517  17.234  0.00  0.00    +0.000 C 
ATOM     20  C   UNL     1       5.996   5.283  18.366  0.00  0.00    +0.000 C 
ATOM     21  C   UNL     1       5.652   6.557  17.566  0.00  0.00    +0.000 C 
ATOM     22  C   UNL     1       4.595   4.697  18.685  0.00  0.00    +0.000 C 
BRANCH  22  23
ATOM     23  C   UNL     1       4.439   3.199  18.860  0.00  0.00    +0.000 C 
ATOM     24  O   UNL     1       3.706   2.471  18.205  0.00  0.00    +0.000 OA
BRANCH  23  25
ATOM     25  O   UNL     1       5.231   2.712  19.850  0.00  0.00    +0.000 OA
ATOM     26  H   UNL     1       5.979   3.303  20.106  0.00  0.00    +0.000 HD
ENDBRANCH  23  25
ENDBRANCH  22  23
ENDBRANCH  13  16
ENDBRANCH   5  12
BRANCH   1  27
ATOM     27  C   UNL     1       2.045   9.897  18.260  0.00  0.00    +0.000 C 
ATOM     28  O   UNL     1       2.159   9.543  17.093  0.00  0.00    +0.000 OA
BRANCH  27  29
ATOM     29  O   UNL     1       2.378  11.145  18.714  0.00  0.00    +0.000 OA
BRANCH  29  31
ATOM     30  C   UNL     1       1.229  13.264  18.469  0.00  0.00    +0.000 C 
ATOM     31  C   UNL     1       2.087  12.207  17.799  0.00  0.00    +0.000 C 
ENDBRANCH  29  31
ENDBRANCH  27  29
ENDBRANCH   1  27
TORSDOF 8
ENDMDL
MODEL 8
REMARK VINA RESULT:      -6.6      2.085      3.556
REMARK  Name = 
REMARK  9 active torsions:
REMARK  status: ('A' for Active; 'I' for Inactive)
REMARK    1  A    between atoms: C_1  and  C_2
REMARK    2  A    between atoms: C_2  and  O_3
REMARK    3  A    between atoms: O_3  and  C_4
REMARK    4  A    between atoms: C_4  and  C_6
REMARK    5  A    between atoms: C_7  and  C_8
REMARK    6  A    between atoms: C_16  and  N_17
REMARK    7  A    between atoms: C_18  and  C_20
REMARK    8  A    between atoms: C_26  and  C_27
REMARK    9  A    between atoms: C_27  and  O_29
REMARK                            x       y       z     vdW  Elec       q    Type
REMARK                         _______ _______ _______ _____ _____    ______ ____
ROOT
ATOM      1  C   UNL     1       1.864   8.524  19.210  0.00  0.00    +0.000 A 
ATOM      2  C   UNL     1       0.924   9.457  19.808  0.00  0.00    +0.000 A 
ATOM      3  C   UNL     1       0.662   9.141  21.128  0.00  0.00    +0.000 A 
ATOM      4  S   UNL     1       1.418   7.678  21.599  0.00  0.00    +0.000 S 
ATOM      5  C   UNL     1       2.040   7.432  20.032  0.00  0.00    +0.000 A 
ENDROOT
BRANCH   2   6
ATOM      6  C   UNL     1       0.270  10.570  19.118  0.00  0.00    +0.000 A 
ATOM      7  C   UNL     1       0.809  11.863  19.248  0.00  0.00    +0.000 A 
ATOM      8  C   UNL     1       0.114  12.980  18.792  0.00  0.00    +0.000 A 
ATOM      9  C   UNL     1      -1.096  12.809  18.133  0.00  0.00    +0.000 A 
ATOM     10  C   UNL     1      -1.593  11.524  17.907  0.00  0.00    +0.000 A 
ATOM     11  C   UNL     1      -0.914  10.405  18.400  0.00  0.00    +0.000 A 
ENDBRANCH   2   6
BRANCH   5  12
ATOM     12  N   UNL     1       2.729   6.254  19.776  0.00  0.00    +0.000 N 
ATOM     13  C   UNL     1       2.081   5.057  19.987  0.00  0.00    +0.000 C 
ATOM     14  O   UNL     1       0.895   4.926  20.313  0.00  0.00    +0.000 OA
ATOM     15  H   UNL     1       3.313   6.264  18.945  0.00  0.00    +0.000 HD
BRANCH  13  16
ATOM     16  C   UNL     1       2.907   3.787  19.855  0.00  0.00    +0.000 C 
ATOM     17  C   UNL     1       2.214   2.425  19.651  0.00  0.00    +0.000 C 
ATOM     18  C   UNL     1       3.256   1.337  19.418  0.00  0.00    +0.000 C 
ATOM     19  C   UNL     1       3.785   1.529  18.200  0.00  0.00    +0.000 C 
ATOM     20  C   UNL     1       3.175   2.786  17.659  0.00  0.00    +0.000 C 
ATOM     21  C   UNL     1       1.750   2.551  18.202  0.00  0.00    +0.000 C 
ATOM     22  C   UNL     1       3.660   3.997  18.501  0.00  0.00    +0.000 C 
BRANCH  22  23
ATOM     23  C   UNL     1       5.141   4.158  18.785  0.00  0.00    +0.000 C 
ATOM     24  O   UNL     1       5.633   4.538  19.837  0.00  0.00    +0.000 OA
BRANCH  23  25
ATOM     25  O   UNL     1       5.909   3.817  17.718  0.00  0.00    +0.000 OA
ATOM     26  H   UNL     1       6.785   3.427  17.951  0.00  0.00    +0.000 HD
ENDBRANCH  23  25
ENDBRANCH  22  23
ENDBRANCH  13  16
ENDBRANCH   5  12
BRANCH   1  27
ATOM     27  C   UNL     1       2.429   8.643  17.873  0.00  0.00    +0.000 C 
ATOM     28  O   UNL     1       2.370   9.667  17.203  0.00  0.00    +0.000 OA
BRANCH  27  29
ATOM     29  O   UNL     1       2.997   7.478  17.436  0.00  0.00    +0.000 OA
BRANCH  29  31
ATOM     30  C   UNL     1       4.831   6.650  16.086  0.00  0.00    +0.000 C 
ATOM     31  C   UNL     1       4.414   7.546  17.237  0.00  0.00    +0.000 C 
ENDBRANCH  29  31
ENDBRANCH  27  29
ENDBRANCH   1  27
TORSDOF 8
ENDMDL
MODEL 9
REMARK VINA RESULT:      -6.5      2.194      3.202
REMARK  Name = 
REMARK  9 active torsions:
REMARK  status: ('A' for Active; 'I' for Inactive)
REMARK    1  A    between atoms: C_1  and  C_2
REMARK    2  A    between atoms: C_2  and  O_3
REMARK    3  A    between atoms: O_3  and  C_4
REMARK    4  A    between atoms: C_4  and  C_6
REMARK    5  A    between atoms: C_7  and  C_8
REMARK    6  A    between atoms: C_16  and  N_17
REMARK    7  A    between atoms: C_18  and  C_20
REMARK    8  A    between atoms: C_26  and  C_27
REMARK    9  A    between atoms: C_27  and  O_29
REMARK                            x       y       z     vdW  Elec       q    Type
REMARK                         _______ _______ _______ _____ _____    ______ ____
ROOT
ATOM      1  C   UNL     1       0.993   9.648  19.664  0.00  0.00    +0.000 A 
ATOM      2  C   UNL     1       0.880  10.897  20.396  0.00  0.00    +0.000 A 
ATOM      3  C   UNL     1       1.074  10.713  21.753  0.00  0.00    +0.000 A 
ATOM      4  S   UNL     1       1.251   9.057  22.155  0.00  0.00    +0.000 S 
ATOM      5  C   UNL     1       1.006   8.582  20.537  0.00  0.00    +0.000 A 
ENDROOT
BRANCH   2   6
ATOM      6  C   UNL     1       0.545  12.200  19.817  0.00  0.00    +0.000 A 
ATOM      7  C   UNL     1       1.539  12.910  19.120  0.00  0.00    +0.000 A 
ATOM      8  C   UNL     1       1.340  14.233  18.735  0.00  0.00    +0.000 A 
ATOM      9  C   UNL     1       0.114  14.837  18.977  0.00  0.00    +0.000 A 
ATOM     10  C   UNL     1      -0.916  14.110  19.577  0.00  0.00    +0.000 A 
ATOM     11  C   UNL     1      -0.703  12.794  20.000  0.00  0.00    +0.000 A 
ENDBRANCH   2   6
BRANCH   5  12
ATOM     12  N   UNL     1       0.951   7.224  20.252  0.00  0.00    +0.000 N 
ATOM     13  C   UNL     1       2.069   6.620  19.720  0.00  0.00    +0.000 C 
ATOM     14  O   UNL     1       3.166   7.163  19.540  0.00  0.00    +0.000 OA
ATOM     15  H   UNL     1       0.464   6.655  20.939  0.00  0.00    +0.000 HD
BRANCH  13  16
ATOM     16  C   UNL     1       1.929   5.176  19.267  0.00  0.00    +0.000 C 
ATOM     17  C   UNL     1       2.423   4.746  17.871  0.00  0.00    +0.000 C 
ATOM     18  C   UNL     1       2.291   3.236  17.711  0.00  0.00    +0.000 C 
ATOM     19  C   UNL     1       3.219   2.657  18.488  0.00  0.00    +0.000 C 
ATOM     20  C   UNL     1       3.903   3.761  19.236  0.00  0.00    +0.000 C 
ATOM     21  C   UNL     1       3.936   4.779  18.077  0.00  0.00    +0.000 C 
ATOM     22  C   UNL     1       2.900   4.411  20.226  0.00  0.00    +0.000 C 
BRANCH  22  23
ATOM     23  C   UNL     1       2.081   3.524  21.143  0.00  0.00    +0.000 C 
ATOM     24  O   UNL     1       2.511   2.875  22.087  0.00  0.00    +0.000 OA
BRANCH  23  25
ATOM     25  O   UNL     1       0.763   3.521  20.816  0.00  0.00    +0.000 OA
ATOM     26  H   UNL     1       0.573   3.760  19.877  0.00  0.00    +0.000 HD
ENDBRANCH  23  25
ENDBRANCH  22  23
ENDBRANCH  13  16
ENDBRANCH   5  12
BRANCH   1  27
ATOM     27  C   UNL     1       0.951   9.518  18.214  0.00  0.00    +0.000 C 
ATOM     28  O   UNL     1       1.909   9.751  17.486  0.00  0.00    +0.000 OA
BRANCH  27  29
ATOM     29  O   UNL     1      -0.282   9.143  17.754  0.00  0.00    +0.000 OA
BRANCH  29  31
ATOM     30  C   UNL     1      -2.610   9.781  17.539  0.00  0.00    +0.000 C 
ATOM     31  C   UNL     1      -1.164  10.234  17.463  0.00  0.00    +0.000 C 
ENDBRANCH  29  31
ENDBRANCH  27  29
ENDBRANCH   1  27
TORSDOF 8
ENDMDL
