MODEL 1
REMARK VINA RESULT:      -6.6      0.000      0.000
REMARK  Name = 
REMARK  3 active torsions:
REMARK  status: ('A' for Active; 'I' for Inactive)
REMARK    1  A    between atoms: N_6  and  C_7
REMARK    2  A    between atoms: C_10  and  C_11
REMARK    3  A    between atoms: C_11  and  O_12
REMARK                            x       y       z     vdW  Elec       q    Type
REMARK                         _______ _______ _______ _____ _____    ______ ____
ROOT
ATOM      1  N   UNL     1       7.916   5.279  13.594  0.00  0.00    +0.000 N 
ATOM      2  C   UNL     1       7.091   5.201  14.686  0.00  0.00    +0.000 A 
ATOM      3  N   UNL     1       7.490   5.824  15.755  0.00  0.00    +0.000 NA
ATOM      4  C   UNL     1       6.702   5.842  16.882  0.00  0.00    +0.000 A 
ATOM      5  O   UNL     1       7.009   6.538  17.846  0.00  0.00    +0.000 OA
ATOM      6  N   UNL     1       5.532   5.068  16.902  0.00  0.00    +0.000 N 
ATOM      7  C   UNL     1       5.096   4.434  15.754  0.00  0.00    +0.000 A 
ATOM      8  C   UNL     1       5.812   4.446  14.632  0.00  0.00    +0.000 A 
ATOM      9 CL   UNL     1       5.327   3.661  13.194  0.00  0.00    +0.000 Cl
ATOM     10  H   UNL     1       8.861   5.581  13.806  0.00  0.00    +0.000 HD
ATOM     11  H   UNL     1       7.841   4.555  12.889  0.00  0.00    +0.000 HD
ENDROOT
BRANCH   6  12
ATOM     12  C   UNL     1       4.678   5.180  18.090  0.00  0.00    +0.000 C 
ATOM     13  C   UNL     1       5.271   4.697  19.409  0.00  0.00    +0.000 C 
ATOM     14  O   UNL     1       5.009   3.293  19.416  0.00  0.00    +0.000 OA
ATOM     15  C   UNL     1       3.765   3.174  18.732  0.00  0.00    +0.000 C 
ATOM     16  O   UNL     1       3.508   4.356  17.947  0.00  0.00    +0.000 OA
BRANCH  15  17
ATOM     17  C   UNL     1       3.778   1.943  17.817  0.00  0.00    +0.000 C 
BRANCH  17  18
ATOM     18  O   UNL     1       4.283   0.795  18.500  0.00  0.00    +0.000 OA
ATOM     19  H   UNL     1       3.684   0.635  19.253  0.00  0.00    +0.000 HD
ENDBRANCH  17  18
ENDBRANCH  15  17
ENDBRANCH   6  12
TORSDOF 3
ENDMDL
MODEL 2
REMARK VINA RESULT:      -6.6      1.545      2.117
REMARK  Name = 
REMARK  3 active torsions:
REMARK  status: ('A' for Active; 'I' for Inactive)
REMARK    1  A    between atoms: N_6  and  C_7
REMARK    2  A    between atoms: C_10  and  C_11
REMARK    3  A    between atoms: C_11  and  O_12
REMARK                            x       y       z     vdW  Elec       q    Type
REMARK                         _______ _______ _______ _____ _____    ______ ____
ROOT
ATOM      1  N   UNL     1       7.697   5.426  14.706  0.00  0.00    +0.000 N 
ATOM      2  C   UNL     1       6.991   4.995  15.799  0.00  0.00    +0.000 A 
ATOM      3  N   UNL     1       7.519   5.246  16.961  0.00  0.00    +0.000 NA
ATOM      4  C   UNL     1       6.856   4.895  18.114  0.00  0.00    +0.000 A 
ATOM      5  O   UNL     1       7.283   5.248  19.209  0.00  0.00    +0.000 OA
ATOM      6  N   UNL     1       5.674   4.146  18.014  0.00  0.00    +0.000 N 
ATOM      7  C   UNL     1       5.101   3.910  16.778  0.00  0.00    +0.000 A 
ATOM      8  C   UNL     1       5.693   4.286  15.648  0.00  0.00    +0.000 A 
ATOM      9 CL   UNL     1       5.037   4.000  14.096  0.00  0.00    +0.000 Cl
ATOM     10  H   UNL     1       8.667   5.651  14.898  0.00  0.00    +0.000 HD
ATOM     11  H   UNL     1       7.528   4.965  13.819  0.00  0.00    +0.000 HD
ENDROOT
BRANCH   6  12
ATOM     12  C   UNL     1       4.955   3.865  19.262  0.00  0.00    +0.000 C 
ATOM     13  C   UNL     1       4.152   2.570  19.313  0.00  0.00    +0.000 C 
ATOM     14  O   UNL     1       2.896   2.914  18.725  0.00  0.00    +0.000 OA
ATOM     15  C   UNL     1       2.700   4.272  19.108  0.00  0.00    +0.000 C 
ATOM     16  O   UNL     1       3.953   4.869  19.500  0.00  0.00    +0.000 OA
BRANCH  15  17
ATOM     17  C   UNL     1       2.094   5.069  17.946  0.00  0.00    +0.000 C 
BRANCH  17  18
ATOM     18  O   UNL     1       1.133   4.292  17.231  0.00  0.00    +0.000 OA
ATOM     19  H   UNL     1       1.372   4.355  16.287  0.00  0.00    +0.000 HD
ENDBRANCH  17  18
ENDBRANCH  15  17
ENDBRANCH   6  12
TORSDOF 3
ENDMDL
MODEL 3
REMARK VINA RESULT:      -6.5      1.595      2.633
REMARK  Name = 
REMARK  3 active torsions:
REMARK  status: ('A' for Active; 'I' for Inactive)
REMARK    1  A    between atoms: N_6  and  C_7
REMARK    2  A    between atoms: C_10  and  C_11
REMARK    3  A    between atoms: C_11  and  O_12
REMARK                            x       y       z     vdW  Elec       q    Type
REMARK                         _______ _______ _______ _____ _____    ______ ____
ROOT
ATOM      1  N   UNL     1       7.459   6.000  15.751  0.00  0.00    +0.000 N 
ATOM      2  C   UNL     1       6.646   5.224  16.536  0.00  0.00    +0.000 A 
ATOM      3  N   UNL     1       6.811   5.333  17.821  0.00  0.00    +0.000 NA
ATOM      4  C   UNL     1       6.004   4.630  18.686  0.00  0.00    +0.000 A 
ATOM      5  O   UNL     1       6.064   4.831  19.896  0.00  0.00    +0.000 OA
ATOM      6  N   UNL     1       5.099   3.697  18.160  0.00  0.00    +0.000 N 
ATOM      7  C   UNL     1       4.905   3.607  16.794  0.00  0.00    +0.000 A 
ATOM      8  C   UNL     1       5.633   4.316  15.935  0.00  0.00    +0.000 A 
ATOM      9 CL   UNL     1       5.447   4.226  14.239  0.00  0.00    +0.000 Cl
ATOM     10  H   UNL     1       8.272   6.370  16.232  0.00  0.00    +0.000 HD
ATOM     11  H   UNL     1       7.619   5.704  14.795  0.00  0.00    +0.000 HD
ENDROOT
BRANCH   6  12
ATOM     12  C   UNL     1       4.200   3.030  19.109  0.00  0.00    +0.000 C 
ATOM     13  C   UNL     1       3.502   1.766  18.620  0.00  0.00    +0.000 C 
ATOM     14  O   UNL     1       2.343   2.249  17.939  0.00  0.00    +0.000 OA
ATOM     15  C   UNL     1       1.980   3.418  18.667  0.00  0.00    +0.000 C 
ATOM     16  O   UNL     1       3.098   3.891  19.447  0.00  0.00    +0.000 OA
BRANCH  15  17
ATOM     17  C   UNL     1       1.523   4.521  17.706  0.00  0.00    +0.000 C 
BRANCH  17  18
ATOM     18  O   UNL     1       2.242   5.735  17.930  0.00  0.00    +0.000 OA
ATOM     19  H   UNL     1       1.589   6.391  18.238  0.00  0.00    +0.000 HD
ENDBRANCH  17  18
ENDBRANCH  15  17
ENDBRANCH   6  12
TORSDOF 3
ENDMDL
MODEL 4
REMARK VINA RESULT:      -6.5      1.660      2.661
REMARK  Name = 
REMARK  3 active torsions:
REMARK  status: ('A' for Active; 'I' for Inactive)
REMARK    1  A    between atoms: N_6  and  C_7
REMARK    2  A    between atoms: C_10  and  C_11
REMARK    3  A    between atoms: C_11  and  O_12
REMARK                            x       y       z     vdW  Elec       q    Type
REMARK                         _______ _______ _______ _____ _____    ______ ____
ROOT
ATOM      1  N   UNL     1       7.803   5.346  14.656  0.00  0.00    +0.000 N 
ATOM      2  C   UNL     1       7.035   4.960  15.724  0.00  0.00    +0.000 A 
ATOM      3  N   UNL     1       7.548   5.155  16.903  0.00  0.00    +0.000 NA
ATOM      4  C   UNL     1       6.827   4.845  18.033  0.00  0.00    +0.000 A 
ATOM      5  O   UNL     1       7.249   5.151  19.144  0.00  0.00    +0.000 OA
ATOM      6  N   UNL     1       5.594   4.193  17.890  0.00  0.00    +0.000 N 
ATOM      7  C   UNL     1       5.039   4.016  16.636  0.00  0.00    +0.000 A 
ATOM      8  C   UNL     1       5.690   4.357  15.528  0.00  0.00    +0.000 A 
ATOM      9 CL   UNL     1       5.058   4.140  13.955  0.00  0.00    +0.000 Cl
ATOM     10  H   UNL     1       8.782   5.493  14.878  0.00  0.00    +0.000 HD
ATOM     11  H   UNL     1       7.623   4.910  13.759  0.00  0.00    +0.000 HD
ENDROOT
BRANCH   6  12
ATOM     12  C   UNL     1       4.819   3.955  19.114  0.00  0.00    +0.000 C 
ATOM     13  C   UNL     1       3.537   3.143  18.967  0.00  0.00    +0.000 C 
ATOM     14  O   UNL     1       2.553   4.110  18.592  0.00  0.00    +0.000 OA
ATOM     15  C   UNL     1       2.960   5.293  19.273  0.00  0.00    +0.000 C 
ATOM     16  O   UNL     1       4.347   5.200  19.659  0.00  0.00    +0.000 OA
BRANCH  15  17
ATOM     17  C   UNL     1       2.759   6.518  18.373  0.00  0.00    +0.000 C 
BRANCH  17  18
ATOM     18  O   UNL     1       2.307   7.645  19.125  0.00  0.00    +0.000 OA
ATOM     19  H   UNL     1       1.629   7.312  19.743  0.00  0.00    +0.000 HD
ENDBRANCH  17  18
ENDBRANCH  15  17
ENDBRANCH   6  12
TORSDOF 3
ENDMDL
MODEL 5
REMARK VINA RESULT:      -6.3      2.264      2.755
REMARK  Name = 
REMARK  3 active torsions:
REMARK  status: ('A' for Active; 'I' for Inactive)
REMARK    1  A    between atoms: N_6  and  C_7
REMARK    2  A    between atoms: C_10  and  C_11
REMARK    3  A    between atoms: C_11  and  O_12
REMARK                            x       y       z     vdW  Elec       q    Type
REMARK                         _______ _______ _______ _____ _____    ______ ____
ROOT
ATOM      1  N   UNL     1       6.818   7.086  16.681  0.00  0.00    +0.000 N 
ATOM      2  C   UNL     1       5.687   6.353  16.929  0.00  0.00    +0.000 A 
ATOM      3  N   UNL     1       4.768   6.934  17.644  0.00  0.00    +0.000 NA
ATOM      4  C   UNL     1       3.578   6.293  17.899  0.00  0.00    +0.000 A 
ATOM      5  O   UNL     1       2.659   6.885  18.455  0.00  0.00    +0.000 OA
ATOM      6  N   UNL     1       3.430   4.958  17.496  0.00  0.00    +0.000 N 
ATOM      7  C   UNL     1       4.395   4.355  16.710  0.00  0.00    +0.000 A 
ATOM      8  C   UNL     1       5.532   4.972  16.401  0.00  0.00    +0.000 A 
ATOM      9 CL   UNL     1       6.764   4.263  15.452  0.00  0.00    +0.000 Cl
ATOM     10  H   UNL     1       6.937   7.888  17.291  0.00  0.00    +0.000 HD
ATOM     11  H   UNL     1       7.669   6.585  16.455  0.00  0.00    +0.000 HD
ENDROOT
BRANCH   6  12
ATOM     12  C   UNL     1       2.117   4.338  17.713  0.00  0.00    +0.000 C 
ATOM     13  C   UNL     1       1.633   4.245  19.156  0.00  0.00    +0.000 C 
ATOM     14  O   UNL     1       2.227   3.042  19.647  0.00  0.00    +0.000 OA
ATOM     15  C   UNL     1       2.261   2.188  18.507  0.00  0.00    +0.000 C 
ATOM     16  O   UNL     1       2.138   2.961  17.296  0.00  0.00    +0.000 OA
BRANCH  15  17
ATOM     17  C   UNL     1       3.574   1.395  18.477  0.00  0.00    +0.000 C 
BRANCH  17  18
ATOM     18  O   UNL     1       4.583   2.035  19.260  0.00  0.00    +0.000 OA
ATOM     19  H   UNL     1       4.539   2.986  19.046  0.00  0.00    +0.000 HD
ENDBRANCH  17  18
ENDBRANCH  15  17
ENDBRANCH   6  12
TORSDOF 3
ENDMDL
MODEL 6
REMARK VINA RESULT:      -6.3      2.994      4.071
REMARK  Name = 
REMARK  3 active torsions:
REMARK  status: ('A' for Active; 'I' for Inactive)
REMARK    1  A    between atoms: N_6  and  C_7
REMARK    2  A    between atoms: C_10  and  C_11
REMARK    3  A    between atoms: C_11  and  O_12
REMARK                            x       y       z     vdW  Elec       q    Type
REMARK                         _______ _______ _______ _____ _____    ______ ____
ROOT
ATOM      1  N   UNL     1       6.921   6.035  18.429  0.00  0.00    +0.000 N 
ATOM      2  C   UNL     1       5.839   5.194  18.410  0.00  0.00    +0.000 A 
ATOM      3  N   UNL     1       5.920   4.133  19.157  0.00  0.00    +0.000 NA
ATOM      4  C   UNL     1       4.861   3.259  19.239  0.00  0.00    +0.000 A 
ATOM      5  O   UNL     1       4.879   2.332  20.043  0.00  0.00    +0.000 OA
ATOM      6  N   UNL     1       3.753   3.459  18.402  0.00  0.00    +0.000 N 
ATOM      7  C   UNL     1       3.658   4.604  17.633  0.00  0.00    +0.000 A 
ATOM      8  C   UNL     1       4.644   5.495  17.578  0.00  0.00    +0.000 A 
ATOM      9 CL   UNL     1       4.584   6.914  16.627  0.00  0.00    +0.000 Cl
ATOM     10  H   UNL     1       7.766   5.619  18.806  0.00  0.00    +0.000 HD
ATOM     11  H   UNL     1       7.059   6.651  17.636  0.00  0.00    +0.000 HD
ENDROOT
BRANCH   6  12
ATOM     12  C   UNL     1       2.611   2.554  18.579  0.00  0.00    +0.000 C 
ATOM     13  C   UNL     1       1.227   3.138  18.315  0.00  0.00    +0.000 C 
ATOM     14  O   UNL     1       0.867   3.755  19.553  0.00  0.00    +0.000 OA
ATOM     15  C   UNL     1       1.471   2.921  20.538  0.00  0.00    +0.000 C 
ATOM     16  O   UNL     1       2.519   2.125  19.949  0.00  0.00    +0.000 OA
BRANCH  15  17
ATOM     17  C   UNL     1       2.053   3.776  21.671  0.00  0.00    +0.000 C 
BRANCH  17  18
ATOM     18  O   UNL     1       2.435   5.069  21.200  0.00  0.00    +0.000 OA
ATOM     19  H   UNL     1       2.875   4.932  20.339  0.00  0.00    +0.000 HD
ENDBRANCH  17  18
ENDBRANCH  15  17
ENDBRANCH   6  12
TORSDOF 3
ENDMDL
MODEL 7
REMARK VINA RESULT:      -6.2      3.122      3.839
REMARK  Name = 
REMARK  3 active torsions:
REMARK  status: ('A' for Active; 'I' for Inactive)
REMARK    1  A    between atoms: N_6  and  C_7
REMARK    2  A    between atoms: C_10  and  C_11
REMARK    3  A    between atoms: C_11  and  O_12
REMARK                            x       y       z     vdW  Elec       q    Type
REMARK                         _______ _______ _______ _____ _____    ______ ____
ROOT
ATOM      1  N   UNL     1       6.757   4.015  16.791  0.00  0.00    +0.000 N 
ATOM      2  C   UNL     1       5.584   4.361  17.410  0.00  0.00    +0.000 A 
ATOM      3  N   UNL     1       4.488   3.961  16.834  0.00  0.00    +0.000 NA
ATOM      4  C   UNL     1       3.267   4.219  17.412  0.00  0.00    +0.000 A 
ATOM      5  O   UNL     1       2.242   3.730  16.945  0.00  0.00    +0.000 OA
ATOM      6  N   UNL     1       3.216   5.033  18.553  0.00  0.00    +0.000 N 
ATOM      7  C   UNL     1       4.383   5.429  19.179  0.00  0.00    +0.000 A 
ATOM      8  C   UNL     1       5.581   5.146  18.673  0.00  0.00    +0.000 A 
ATOM      9 CL   UNL     1       7.051   5.630  19.397  0.00  0.00    +0.000 Cl
ATOM     10  H   UNL     1       6.649   3.722  15.827  0.00  0.00    +0.000 HD
ATOM     11  H   UNL     1       7.579   4.576  16.984  0.00  0.00    +0.000 HD
ENDROOT
BRANCH   6  12
ATOM     12  C   UNL     1       1.904   5.215  19.185  0.00  0.00    +0.000 C 
ATOM     13  C   UNL     1       1.901   5.533  20.677  0.00  0.00    +0.000 C 
ATOM     14  O   UNL     1       1.971   4.252  21.306  0.00  0.00    +0.000 OA
ATOM     15  C   UNL     1       1.247   3.398  20.426  0.00  0.00    +0.000 C 
ATOM     16  O   UNL     1       1.142   3.997  19.118  0.00  0.00    +0.000 OA
BRANCH  15  17
ATOM     17  C   UNL     1       1.946   2.038  20.311  0.00  0.00    +0.000 C 
BRANCH  17  18
ATOM     18  O   UNL     1       1.827   1.504  18.992  0.00  0.00    +0.000 OA
ATOM     19  H   UNL     1       1.595   2.252  18.410  0.00  0.00    +0.000 HD
ENDBRANCH  17  18
ENDBRANCH  15  17
ENDBRANCH   6  12
TORSDOF 3
ENDMDL
MODEL 8
REMARK VINA RESULT:      -6.2      3.102      3.629
REMARK  Name = 
REMARK  3 active torsions:
REMARK  status: ('A' for Active; 'I' for Inactive)
REMARK    1  A    between atoms: N_6  and  C_7
REMARK    2  A    between atoms: C_10  and  C_11
REMARK    3  A    between atoms: C_11  and  O_12
REMARK                            x       y       z     vdW  Elec       q    Type
REMARK                         _______ _______ _______ _____ _____    ______ ____
ROOT
ATOM      1  N   UNL     1       7.859   4.271  17.067  0.00  0.00    +0.000 N 
ATOM      2  C   UNL     1       6.581   4.561  17.469  0.00  0.00    +0.000 A 
ATOM      3  N   UNL     1       5.625   4.157  16.686  0.00  0.00    +0.000 NA
ATOM      4  C   UNL     1       4.310   4.360  17.035  0.00  0.00    +0.000 A 
ATOM      5  O   UNL     1       3.406   3.864  16.370  0.00  0.00    +0.000 OA
ATOM      6  N   UNL     1       4.023   5.125  18.175  0.00  0.00    +0.000 N 
ATOM      7  C   UNL     1       5.041   5.525  19.021  0.00  0.00    +0.000 A 
ATOM      8  C   UNL     1       6.320   5.294  18.736  0.00  0.00    +0.000 A 
ATOM      9 CL   UNL     1       7.615   5.786  19.737  0.00  0.00    +0.000 Cl
ATOM     10  H   UNL     1       7.941   4.014  16.089  0.00  0.00    +0.000 HD
ATOM     11  H   UNL     1       8.613   4.844  17.428  0.00  0.00    +0.000 HD
ENDROOT
BRANCH   6  12
ATOM     12  C   UNL     1       2.612   5.248  18.559  0.00  0.00    +0.000 C 
ATOM     13  C   UNL     1       2.310   6.077  19.803  0.00  0.00    +0.000 C 
ATOM     14  O   UNL     1       2.472   5.156  20.883  0.00  0.00    +0.000 OA
ATOM     15  C   UNL     1       2.047   3.910  20.338  0.00  0.00    +0.000 C 
ATOM     16  O   UNL     1       2.070   3.959  18.897  0.00  0.00    +0.000 OA
BRANCH  15  17
ATOM     17  C   UNL     1       2.959   2.779  20.827  0.00  0.00    +0.000 C 
BRANCH  17  18
ATOM     18  O   UNL     1       2.622   2.380  22.156  0.00  0.00    +0.000 OA
ATOM     19  H   UNL     1       2.078   3.098  22.532  0.00  0.00    +0.000 HD
ENDBRANCH  17  18
ENDBRANCH  15  17
ENDBRANCH   6  12
TORSDOF 3
ENDMDL
MODEL 9
REMARK VINA RESULT:      -6.2      3.230      5.131
REMARK  Name = 
REMARK  3 active torsions:
REMARK  status: ('A' for Active; 'I' for Inactive)
REMARK    1  A    between atoms: N_6  and  C_7
REMARK    2  A    between atoms: C_10  and  C_11
REMARK    3  A    between atoms: C_11  and  O_12
REMARK                            x       y       z     vdW  Elec       q    Type
REMARK                         _______ _______ _______ _____ _____    ______ ____
ROOT
ATOM      1  N   UNL     1       2.263   4.881  20.979  0.00  0.00    +0.000 N 
ATOM      2  C   UNL     1       3.000   5.083  19.841  0.00  0.00    +0.000 A 
ATOM      3  N   UNL     1       2.843   6.229  19.248  0.00  0.00    +0.000 NA
ATOM      4  C   UNL     1       3.580   6.538  18.128  0.00  0.00    +0.000 A 
ATOM      5  O   UNL     1       3.535   7.666  17.645  0.00  0.00    +0.000 OA
ATOM      6  N   UNL     1       4.397   5.549  17.563  0.00  0.00    +0.000 N 
ATOM      7  C   UNL     1       4.586   4.344  18.214  0.00  0.00    +0.000 A 
ATOM      8  C   UNL     1       3.928   4.040  19.329  0.00  0.00    +0.000 A 
ATOM      9 CL   UNL     1       4.110   2.557  20.159  0.00  0.00    +0.000 Cl
ATOM     10  H   UNL     1       1.486   5.523  21.091  0.00  0.00    +0.000 HD
ATOM     11  H   UNL     1       2.079   3.926  21.263  0.00  0.00    +0.000 HD
ENDROOT
BRANCH   6  12
ATOM     12  C   UNL     1       5.230   5.944  16.420  0.00  0.00    +0.000 C 
ATOM     13  C   UNL     1       6.180   4.888  15.867  0.00  0.00    +0.000 C 
ATOM     14  O   UNL     1       7.343   5.000  16.689  0.00  0.00    +0.000 OA
ATOM     15  C   UNL     1       7.406   6.388  17.005  0.00  0.00    +0.000 C 
ATOM     16  O   UNL     1       6.121   7.010  16.793  0.00  0.00    +0.000 OA
BRANCH  15  17
ATOM     17  C   UNL     1       7.832   6.580  18.466  0.00  0.00    +0.000 C 
BRANCH  17  18
ATOM     18  O   UNL     1       7.843   5.338  19.170  0.00  0.00    +0.000 OA
ATOM     19  H   UNL     1       6.959   5.238  19.569  0.00  0.00    +0.000 HD
ENDBRANCH  17  18
ENDBRANCH  15  17
ENDBRANCH   6  12
TORSDOF 3
ENDMDL
