MODEL 1
REMARK VINA RESULT:      -7.8      0.000      0.000
REMARK  Name = 
REMARK  6 active torsions:
REMARK  status: ('A' for Active; 'I' for Inactive)
REMARK    1  A    between atoms: C_1  and  C_2
REMARK    2  A    between atoms: C_2  and  C_3
REMARK    3  A    between atoms: C_3  and  N_4
REMARK    4  A    between atoms: N_10  and  C_11
REMARK    5  A    between atoms: C_14  and  O_15
REMARK    6  A    between atoms: O_15  and  C_16
REMARK                            x       y       z     vdW  Elec       q    Type
REMARK                         _______ _______ _______ _____ _____    ______ ____
ROOT
ATOM      1  N   UNL     1      -4.109  11.652  17.192  0.00  0.00    +0.000 NA
ATOM      2  C   UNL     1      -3.785  10.298  16.704  0.00  0.00    +0.000 C 
ATOM      3  C   UNL     1      -2.272  10.071  16.657  0.00  0.00    +0.000 C 
ATOM      4  C   UNL     1      -1.611  10.476  17.941  0.00  0.00    +0.000 A 
ATOM      5  N   UNL     1      -0.376   9.993  18.171  0.00  0.00    +0.000 NA
ATOM      6  C   UNL     1       0.249  10.361  19.300  0.00  0.00    +0.000 A 
ATOM      7  N   UNL     1       1.514   9.833  19.585  0.00  0.00    +0.000 N 
ATOM      8  N   UNL     1      -0.282  11.196  20.206  0.00  0.00    +0.000 NA
ATOM      9  C   UNL     1      -1.519  11.662  19.940  0.00  0.00    +0.000 A 
ATOM     10  C   UNL     1      -2.239  11.339  18.810  0.00  0.00    +0.000 A 
ATOM     11  C   UNL     1      -3.635  11.825  18.579  0.00  0.00    +0.000 C 
ATOM     12  H   UNL     1       1.747  10.122  20.527  0.00  0.00    +0.000 HD
ENDROOT
BRANCH   7  13
ATOM     13  C   UNL     1       1.923   8.518  19.292  0.00  0.00    +0.000 A 
ATOM     14  C   UNL     1       2.524   8.247  18.056  0.00  0.00    +0.000 A 
ATOM     15  C   UNL     1       2.986   6.960  17.758  0.00  0.00    +0.000 A 
ATOM     16  C   UNL     1       2.889   5.940  18.704  0.00  0.00    +0.000 A 
ATOM     17  C   UNL     1       2.264   6.191  19.925  0.00  0.00    +0.000 A 
ATOM     18  C   UNL     1       1.822   7.479  20.229  0.00  0.00    +0.000 A 
BRANCH  16  19
ATOM     19  O   UNL     1       3.389   4.711  18.339  0.00  0.00    +0.000 OA
BRANCH  19  20
ATOM     20  C   UNL     1       4.636   4.631  17.758  0.00  0.00    +0.000 A 
ATOM     21  C   UNL     1       5.717   4.928  18.588  0.00  0.00    +0.000 A 
ATOM     22  C   UNL     1       7.020   4.880  18.089  0.00  0.00    +0.000 A 
ATOM     23  C   UNL     1       7.244   4.535  16.756  0.00  0.00    +0.000 A 
ATOM     24  C   UNL     1       6.169   4.206  15.932  0.00  0.00    +0.000 A 
ATOM     25  C   UNL     1       4.869   4.225  16.440  0.00  0.00    +0.000 A 
ENDBRANCH  19  20
ENDBRANCH  16  19
ENDBRANCH   7  13
BRANCH   1  26
ATOM     26  C   UNL     1      -5.560  11.891  17.070  0.00  0.00    +0.000 C 
BRANCH  26  28
ATOM     27  C   UNL     1      -7.547  12.958  18.199  0.00  0.00    +0.000 C 
ATOM     28  C   UNL     1      -6.253  12.187  18.406  0.00  0.00    +0.000 C 
ENDBRANCH  26  28
ENDBRANCH   1  26
TORSDOF 5
ENDMDL
MODEL 2
REMARK VINA RESULT:      -7.6      2.351      3.001
REMARK  Name = 
REMARK  6 active torsions:
REMARK  status: ('A' for Active; 'I' for Inactive)
REMARK    1  A    between atoms: C_1  and  C_2
REMARK    2  A    between atoms: C_2  and  C_3
REMARK    3  A    between atoms: C_3  and  N_4
REMARK    4  A    between atoms: N_10  and  C_11
REMARK    5  A    between atoms: C_14  and  O_15
REMARK    6  A    between atoms: O_15  and  C_16
REMARK                            x       y       z     vdW  Elec       q    Type
REMARK                         _______ _______ _______ _____ _____    ______ ____
ROOT
ATOM      1  N   UNL     1      -5.365  12.099  17.868  0.00  0.00    +0.000 NA
ATOM      2  C   UNL     1      -4.971  10.719  17.523  0.00  0.00    +0.000 C 
ATOM      3  C   UNL     1      -3.461  10.609  17.305  0.00  0.00    +0.000 C 
ATOM      4  C   UNL     1      -2.692  11.245  18.425  0.00  0.00    +0.000 A 
ATOM      5  N   UNL     1      -1.397  10.901  18.549  0.00  0.00    +0.000 NA
ATOM      6  C   UNL     1      -0.679  11.475  19.527  0.00  0.00    +0.000 A 
ATOM      7  N   UNL     1       0.657  11.096  19.708  0.00  0.00    +0.000 N 
ATOM      8  N   UNL     1      -1.175  12.386  20.378  0.00  0.00    +0.000 NA
ATOM      9  C   UNL     1      -2.475  12.708  20.221  0.00  0.00    +0.000 A 
ATOM     10  C   UNL     1      -3.291  12.170  19.249  0.00  0.00    +0.000 A 
ATOM     11  C   UNL     1      -4.746  12.505  19.145  0.00  0.00    +0.000 C 
ATOM     12  H   UNL     1       0.974  11.534  20.564  0.00  0.00    +0.000 HD
ENDROOT
BRANCH   7  13
ATOM     13  C   UNL     1       1.154   9.790  19.538  0.00  0.00    +0.000 A 
ATOM     14  C   UNL     1       1.728   9.430  18.311  0.00  0.00    +0.000 A 
ATOM     15  C   UNL     1       2.275   8.154  18.131  0.00  0.00    +0.000 A 
ATOM     16  C   UNL     1       2.292   7.239  19.184  0.00  0.00    +0.000 A 
ATOM     17  C   UNL     1       1.696   7.577  20.398  0.00  0.00    +0.000 A 
ATOM     18  C   UNL     1       1.168   8.854  20.584  0.00  0.00    +0.000 A 
BRANCH  16  19
ATOM     19  O   UNL     1       2.871   6.017  18.929  0.00  0.00    +0.000 OA
BRANCH  19  20
ATOM     20  C   UNL     1       2.351   4.884  19.515  0.00  0.00    +0.000 A 
ATOM     21  C   UNL     1       1.534   4.096  18.703  0.00  0.00    +0.000 A 
ATOM     22  C   UNL     1       0.956   2.930  19.209  0.00  0.00    +0.000 A 
ATOM     23  C   UNL     1       1.192   2.551  20.531  0.00  0.00    +0.000 A 
ATOM     24  C   UNL     1       2.034   3.318  21.335  0.00  0.00    +0.000 A 
ATOM     25  C   UNL     1       2.636   4.467  20.819  0.00  0.00    +0.000 A 
ENDBRANCH  19  20
ENDBRANCH  16  19
ENDBRANCH   7  13
BRANCH   1  26
ATOM     26  C   UNL     1      -6.836  12.201  17.911  0.00  0.00    +0.000 C 
BRANCH  26  28
ATOM     27  C   UNL     1      -7.916  14.476  18.037  0.00  0.00    +0.000 C 
ATOM     28  C   UNL     1      -7.398  13.384  17.114  0.00  0.00    +0.000 C 
ENDBRANCH  26  28
ENDBRANCH   1  26
TORSDOF 5
ENDMDL
MODEL 3
REMARK VINA RESULT:      -7.5      0.768      1.240
REMARK  Name = 
REMARK  6 active torsions:
REMARK  status: ('A' for Active; 'I' for Inactive)
REMARK    1  A    between atoms: C_1  and  C_2
REMARK    2  A    between atoms: C_2  and  C_3
REMARK    3  A    between atoms: C_3  and  N_4
REMARK    4  A    between atoms: N_10  and  C_11
REMARK    5  A    between atoms: C_14  and  O_15
REMARK    6  A    between atoms: O_15  and  C_16
REMARK                            x       y       z     vdW  Elec       q    Type
REMARK                         _______ _______ _______ _____ _____    ______ ____
ROOT
ATOM      1  N   UNL     1      -4.790  11.695  17.912  0.00  0.00    +0.000 NA
ATOM      2  C   UNL     1      -4.518  10.267  17.662  0.00  0.00    +0.000 C 
ATOM      3  C   UNL     1      -3.052  10.036  17.288  0.00  0.00    +0.000 C 
ATOM      4  C   UNL     1      -2.122  10.718  18.248  0.00  0.00    +0.000 A 
ATOM      5  N   UNL     1      -0.843  10.300  18.259  0.00  0.00    +0.000 NA
ATOM      6  C   UNL     1       0.016  10.911  19.090  0.00  0.00    +0.000 A 
ATOM      7  N   UNL     1       1.340  10.462  19.156  0.00  0.00    +0.000 N 
ATOM      8  N   UNL     1      -0.324  11.927  19.898  0.00  0.00    +0.000 NA
ATOM      9  C   UNL     1      -1.613  12.320  19.856  0.00  0.00    +0.000 A 
ATOM     10  C   UNL     1      -2.567  11.752  19.038  0.00  0.00    +0.000 A 
ATOM     11  C   UNL     1      -4.003  12.174  19.066  0.00  0.00    +0.000 C 
ATOM     12  H   UNL     1       1.780  10.953  19.924  0.00  0.00    +0.000 HD
ENDROOT
BRANCH   7  13
ATOM     13  C   UNL     1       1.740   9.115  19.061  0.00  0.00    +0.000 A 
ATOM     14  C   UNL     1       2.370   8.669  17.891  0.00  0.00    +0.000 A 
ATOM     15  C   UNL     1       2.823   7.348  17.788  0.00  0.00    +0.000 A 
ATOM     16  C   UNL     1       2.688   6.471  18.864  0.00  0.00    +0.000 A 
ATOM     17  C   UNL     1       2.034   6.896  20.021  0.00  0.00    +0.000 A 
ATOM     18  C   UNL     1       1.601   8.217  20.130  0.00  0.00    +0.000 A 
BRANCH  16  19
ATOM     19  O   UNL     1       3.181   5.199  18.688  0.00  0.00    +0.000 OA
BRANCH  19  20
ATOM     20  C   UNL     1       4.465   5.027  18.219  0.00  0.00    +0.000 A 
ATOM     21  C   UNL     1       4.581   4.485  16.938  0.00  0.00    +0.000 A 
ATOM     22  C   UNL     1       5.842   4.268  16.379  0.00  0.00    +0.000 A 
ATOM     23  C   UNL     1       6.990   4.590  17.101  0.00  0.00    +0.000 A 
ATOM     24  C   UNL     1       6.879   5.162  18.368  0.00  0.00    +0.000 A 
ATOM     25  C   UNL     1       5.618   5.407  18.914  0.00  0.00    +0.000 A 
ENDBRANCH  19  20
ENDBRANCH  16  19
ENDBRANCH   7  13
BRANCH   1  26
ATOM     26  C   UNL     1      -6.238  11.899  18.109  0.00  0.00    +0.000 C 
BRANCH  26  28
ATOM     27  C   UNL     1      -6.837  14.304  17.639  0.00  0.00    +0.000 C 
ATOM     28  C   UNL     1      -6.866  12.878  17.109  0.00  0.00    +0.000 C 
ENDBRANCH  26  28
ENDBRANCH   1  26
TORSDOF 5
ENDMDL
MODEL 4
REMARK VINA RESULT:      -7.5      1.127      1.569
REMARK  Name = 
REMARK  6 active torsions:
REMARK  status: ('A' for Active; 'I' for Inactive)
REMARK    1  A    between atoms: C_1  and  C_2
REMARK    2  A    between atoms: C_2  and  C_3
REMARK    3  A    between atoms: C_3  and  N_4
REMARK    4  A    between atoms: N_10  and  C_11
REMARK    5  A    between atoms: C_14  and  O_15
REMARK    6  A    between atoms: O_15  and  C_16
REMARK                            x       y       z     vdW  Elec       q    Type
REMARK                         _______ _______ _______ _____ _____    ______ ____
ROOT
ATOM      1  N   UNL     1      -5.026  11.738  18.214  0.00  0.00    +0.000 NA
ATOM      2  C   UNL     1      -4.693  10.317  17.993  0.00  0.00    +0.000 C 
ATOM      3  C   UNL     1      -3.244  10.151  17.531  0.00  0.00    +0.000 C 
ATOM      4  C   UNL     1      -2.293  10.914  18.404  0.00  0.00    +0.000 A 
ATOM      5  N   UNL     1      -0.995  10.565  18.345  0.00  0.00    +0.000 NA
ATOM      6  C   UNL     1      -0.119  11.249  19.096  0.00  0.00    +0.000 A 
ATOM      7  N   UNL     1       1.229  10.872  19.089  0.00  0.00    +0.000 N 
ATOM      8  N   UNL     1      -0.462  12.274  19.891  0.00  0.00    +0.000 NA
ATOM      9  C   UNL     1      -1.770  12.598  19.922  0.00  0.00    +0.000 A 
ATOM     10  C   UNL     1      -2.742  11.952  19.188  0.00  0.00    +0.000 A 
ATOM     11  C   UNL     1      -4.194  12.298  19.297  0.00  0.00    +0.000 C 
ATOM     12  H   UNL     1       1.690  11.414  19.811  0.00  0.00    +0.000 HD
ENDROOT
BRANCH   7  13
ATOM     13  C   UNL     1       1.695   9.545  19.012  0.00  0.00    +0.000 A 
ATOM     14  C   UNL     1       1.558   8.706  20.126  0.00  0.00    +0.000 A 
ATOM     15  C   UNL     1       1.967   7.369  20.061  0.00  0.00    +0.000 A 
ATOM     16  C   UNL     1       2.478   6.845  18.873  0.00  0.00    +0.000 A 
ATOM     17  C   UNL     1       2.647   7.680  17.769  0.00  0.00    +0.000 A 
ATOM     18  C   UNL     1       2.222   9.007  17.829  0.00  0.00    +0.000 A 
BRANCH  16  19
ATOM     19  O   UNL     1       2.833   5.516  18.889  0.00  0.00    +0.000 OA
BRANCH  19  20
ATOM     20  C   UNL     1       4.000   5.117  18.276  0.00  0.00    +0.000 A 
ATOM     21  C   UNL     1       5.180   5.395  18.967  0.00  0.00    +0.000 A 
ATOM     22  C   UNL     1       6.414   5.035  18.424  0.00  0.00    +0.000 A 
ATOM     23  C   UNL     1       6.471   4.396  17.185  0.00  0.00    +0.000 A 
ATOM     24  C   UNL     1       5.293   4.087  16.506  0.00  0.00    +0.000 A 
ATOM     25  C   UNL     1       4.058   4.420  17.064  0.00  0.00    +0.000 A 
ENDBRANCH  19  20
ENDBRANCH  16  19
ENDBRANCH   7  13
BRANCH   1  26
ATOM     26  C   UNL     1      -6.467  11.873  18.499  0.00  0.00    +0.000 C 
BRANCH  26  28
ATOM     27  C   UNL     1      -7.594  10.702  20.428  0.00  0.00    +0.000 C 
ATOM     28  C   UNL     1      -7.126  10.576  18.986  0.00  0.00    +0.000 C 
ENDBRANCH  26  28
ENDBRANCH   1  26
TORSDOF 5
ENDMDL
MODEL 5
REMARK VINA RESULT:      -7.5      3.463      4.796
REMARK  Name = 
REMARK  6 active torsions:
REMARK  status: ('A' for Active; 'I' for Inactive)
REMARK    1  A    between atoms: C_1  and  C_2
REMARK    2  A    between atoms: C_2  and  C_3
REMARK    3  A    between atoms: C_3  and  N_4
REMARK    4  A    between atoms: N_10  and  C_11
REMARK    5  A    between atoms: C_14  and  O_15
REMARK    6  A    between atoms: O_15  and  C_16
REMARK                            x       y       z     vdW  Elec       q    Type
REMARK                         _______ _______ _______ _____ _____    ______ ____
ROOT
ATOM      1  N   UNL     1       1.628  16.221  19.219  0.00  0.00    +0.000 NA
ATOM      2  C   UNL     1       2.677  15.396  18.590  0.00  0.00    +0.000 C 
ATOM      3  C   UNL     1       2.823  14.047  19.297  0.00  0.00    +0.000 C 
ATOM      4  C   UNL     1       1.495  13.376  19.491  0.00  0.00    +0.000 A 
ATOM      5  N   UNL     1       1.509  12.056  19.752  0.00  0.00    +0.000 NA
ATOM      6  C   UNL     1       0.337  11.437  19.955  0.00  0.00    +0.000 A 
ATOM      7  N   UNL     1       0.322  10.055  20.178  0.00  0.00    +0.000 N 
ATOM      8  N   UNL     1      -0.850  12.063  19.930  0.00  0.00    +0.000 NA
ATOM      9  C   UNL     1      -0.825  13.386  19.670  0.00  0.00    +0.000 A 
ATOM     10  C   UNL     1       0.329  14.106  19.446  0.00  0.00    +0.000 A 
ATOM     11  C   UNL     1       0.313  15.562  19.097  0.00  0.00    +0.000 C 
ATOM     12  H   UNL     1      -0.648   9.766  20.172  0.00  0.00    +0.000 HD
ENDROOT
BRANCH   7  13
ATOM     13  C   UNL     1       1.179   9.128  19.553  0.00  0.00    +0.000 A 
ATOM     14  C   UNL     1       1.620   8.010  20.273  0.00  0.00    +0.000 A 
ATOM     15  C   UNL     1       2.432   7.048  19.662  0.00  0.00    +0.000 A 
ATOM     16  C   UNL     1       2.779   7.170  18.316  0.00  0.00    +0.000 A 
ATOM     17  C   UNL     1       2.371   8.295  17.600  0.00  0.00    +0.000 A 
ATOM     18  C   UNL     1       1.546   9.243  18.204  0.00  0.00    +0.000 A 
BRANCH  16  19
ATOM     19  O   UNL     1       3.559   6.167  17.788  0.00  0.00    +0.000 OA
BRANCH  19  20
ATOM     20  C   UNL     1       4.910   6.145  18.057  0.00  0.00    +0.000 A 
ATOM     21  C   UNL     1       5.710   6.941  17.235  0.00  0.00    +0.000 A 
ATOM     22  C   UNL     1       7.092   6.980  17.425  0.00  0.00    +0.000 A 
ATOM     23  C   UNL     1       7.679   6.220  18.437  0.00  0.00    +0.000 A 
ATOM     24  C   UNL     1       6.881   5.448  19.280  0.00  0.00    +0.000 A 
ATOM     25  C   UNL     1       5.495   5.433  19.109  0.00  0.00    +0.000 A 
ENDBRANCH  19  20
ENDBRANCH  16  19
ENDBRANCH   7  13
BRANCH   1  26
ATOM     26  C   UNL     1       1.627  17.568  18.617  0.00  0.00    +0.000 C 
BRANCH  26  28
ATOM     27  C   UNL     1       0.842  18.470  16.396  0.00  0.00    +0.000 C 
ATOM     28  C   UNL     1       1.845  17.568  17.099  0.00  0.00    +0.000 C 
ENDBRANCH  26  28
ENDBRANCH   1  26
TORSDOF 5
ENDMDL
MODEL 6
REMARK VINA RESULT:      -7.3      2.238      2.863
REMARK  Name = 
REMARK  6 active torsions:
REMARK  status: ('A' for Active; 'I' for Inactive)
REMARK    1  A    between atoms: C_1  and  C_2
REMARK    2  A    between atoms: C_2  and  C_3
REMARK    3  A    between atoms: C_3  and  N_4
REMARK    4  A    between atoms: N_10  and  C_11
REMARK    5  A    between atoms: C_14  and  O_15
REMARK    6  A    between atoms: O_15  and  C_16
REMARK                            x       y       z     vdW  Elec       q    Type
REMARK                         _______ _______ _______ _____ _____    ______ ____
ROOT
ATOM      1  N   UNL     1      -4.945  12.029  17.344  0.00  0.00    +0.000 NA
ATOM      2  C   UNL     1      -4.457  10.730  16.842  0.00  0.00    +0.000 C 
ATOM      3  C   UNL     1      -2.929  10.695  16.781  0.00  0.00    +0.000 C 
ATOM      4  C   UNL     1      -2.312  11.171  18.063  0.00  0.00    +0.000 A 
ATOM      5  N   UNL     1      -1.024  10.847  18.279  0.00  0.00    +0.000 NA
ATOM      6  C   UNL     1      -0.441  11.283  19.406  0.00  0.00    +0.000 A 
ATOM      7  N   UNL     1       0.883  10.917  19.676  0.00  0.00    +0.000 N 
ATOM      8  N   UNL     1      -1.064  12.039  20.323  0.00  0.00    +0.000 NA
ATOM      9  C   UNL     1      -2.352  12.346  20.071  0.00  0.00    +0.000 A 
ATOM     10  C   UNL     1      -3.036  11.943  18.943  0.00  0.00    +0.000 A 
ATOM     11  C   UNL     1      -4.485  12.251  18.728  0.00  0.00    +0.000 C 
ATOM     12  H   UNL     1       1.087  11.226  20.619  0.00  0.00    +0.000 HD
ENDROOT
BRANCH   7  13
ATOM     13  C   UNL     1       1.452   9.665  19.370  0.00  0.00    +0.000 A 
ATOM     14  C   UNL     1       1.453   8.657  20.344  0.00  0.00    +0.000 A 
ATOM     15  C   UNL     1       1.967   7.389  20.051  0.00  0.00    +0.000 A 
ATOM     16  C   UNL     1       2.447   7.100  18.774  0.00  0.00    +0.000 A 
ATOM     17  C   UNL     1       2.479   8.106  17.807  0.00  0.00    +0.000 A 
ATOM     18  C   UNL     1       1.950   9.364  18.094  0.00  0.00    +0.000 A 
BRANCH  16  19
ATOM     19  O   UNL     1       2.912   5.822  18.564  0.00  0.00    +0.000 OA
BRANCH  19  20
ATOM     20  C   UNL     1       2.320   4.768  19.224  0.00  0.00    +0.000 A 
ATOM     21  C   UNL     1       2.785   4.516  20.515  0.00  0.00    +0.000 A 
ATOM     22  C   UNL     1       2.250   3.464  21.262  0.00  0.00    +0.000 A 
ATOM     23  C   UNL     1       1.250   2.659  20.716  0.00  0.00    +0.000 A 
ATOM     24  C   UNL     1       0.760   2.927  19.439  0.00  0.00    +0.000 A 
ATOM     25  C   UNL     1       1.273   3.998  18.705  0.00  0.00    +0.000 A 
ENDBRANCH  19  20
ENDBRANCH  16  19
ENDBRANCH   7  13
BRANCH   1  26
ATOM     26  C   UNL     1      -6.415  12.084  17.235  0.00  0.00    +0.000 C 
BRANCH  26  28
ATOM     27  C   UNL     1      -7.917  13.248  18.895  0.00  0.00    +0.000 C 
ATOM     28  C   UNL     1      -7.020  13.422  17.679  0.00  0.00    +0.000 C 
ENDBRANCH  26  28
ENDBRANCH   1  26
TORSDOF 5
ENDMDL
MODEL 7
REMARK VINA RESULT:      -7.3      4.312      6.555
REMARK  Name = 
REMARK  6 active torsions:
REMARK  status: ('A' for Active; 'I' for Inactive)
REMARK    1  A    between atoms: C_1  and  C_2
REMARK    2  A    between atoms: C_2  and  C_3
REMARK    3  A    between atoms: C_3  and  N_4
REMARK    4  A    between atoms: N_10  and  C_11
REMARK    5  A    between atoms: C_14  and  O_15
REMARK    6  A    between atoms: O_15  and  C_16
REMARK                            x       y       z     vdW  Elec       q    Type
REMARK                         _______ _______ _______ _____ _____    ______ ____
ROOT
ATOM      1  N   UNL     1       3.417  16.367  20.527  0.00  0.00    +0.000 NA
ATOM      2  C   UNL     1       4.242  15.170  20.781  0.00  0.00    +0.000 C 
ATOM      3  C   UNL     1       3.377  13.971  21.172  0.00  0.00    +0.000 C 
ATOM      4  C   UNL     1       2.230  13.782  20.224  0.00  0.00    +0.000 A 
ATOM      5  N   UNL     1       1.626  12.579  20.228  0.00  0.00    +0.000 NA
ATOM      6  C   UNL     1       0.580  12.392  19.409  0.00  0.00    +0.000 A 
ATOM      7  N   UNL     1      -0.033  11.135  19.359  0.00  0.00    +0.000 N 
ATOM      8  N   UNL     1       0.092  13.342  18.597  0.00  0.00    +0.000 NA
ATOM      9  C   UNL     1       0.720  14.534  18.622  0.00  0.00    +0.000 A 
ATOM     10  C   UNL     1       1.802  14.819  19.428  0.00  0.00    +0.000 A 
ATOM     11  C   UNL     1       2.513  16.135  19.384  0.00  0.00    +0.000 C 
ATOM     12  H   UNL     1      -0.698  11.162  18.595  0.00  0.00    +0.000 HD
ENDROOT
BRANCH   7  13
ATOM     13  C   UNL     1       0.643   9.903  19.459  0.00  0.00    +0.000 A 
ATOM     14  C   UNL     1       1.370   9.430  18.358  0.00  0.00    +0.000 A 
ATOM     15  C   UNL     1       2.091   8.234  18.445  0.00  0.00    +0.000 A 
ATOM     16  C   UNL     1       2.129   7.520  19.643  0.00  0.00    +0.000 A 
ATOM     17  C   UNL     1       1.384   7.966  20.734  0.00  0.00    +0.000 A 
ATOM     18  C   UNL     1       0.681   9.167  20.652  0.00  0.00    +0.000 A 
BRANCH  16  19
ATOM     19  O   UNL     1       2.882   6.368  19.649  0.00  0.00    +0.000 OA
BRANCH  19  20
ATOM     20  C   UNL     1       2.252   5.144  19.615  0.00  0.00    +0.000 A 
ATOM     21  C   UNL     1       2.022   4.609  18.347  0.00  0.00    +0.000 A 
ATOM     22  C   UNL     1       1.383   3.375  18.210  0.00  0.00    +0.000 A 
ATOM     23  C   UNL     1       0.970   2.674  19.342  0.00  0.00    +0.000 A 
ATOM     24  C   UNL     1       1.226   3.189  20.613  0.00  0.00    +0.000 A 
ATOM     25  C   UNL     1       1.892   4.408  20.750  0.00  0.00    +0.000 A 
ENDBRANCH  19  20
ENDBRANCH  16  19
ENDBRANCH   7  13
BRANCH   1  26
ATOM     26  C   UNL     1       4.289  17.537  20.313  0.00  0.00    +0.000 C 
BRANCH  26  28
ATOM     27  C   UNL     1       6.396  17.279  18.951  0.00  0.00    +0.000 C 
ATOM     28  C   UNL     1       5.787  17.207  20.343  0.00  0.00    +0.000 C 
ENDBRANCH  26  28
ENDBRANCH   1  26
TORSDOF 5
ENDMDL
MODEL 8
REMARK VINA RESULT:      -7.3      1.175      1.608
REMARK  Name = 
REMARK  6 active torsions:
REMARK  status: ('A' for Active; 'I' for Inactive)
REMARK    1  A    between atoms: C_1  and  C_2
REMARK    2  A    between atoms: C_2  and  C_3
REMARK    3  A    between atoms: C_3  and  N_4
REMARK    4  A    between atoms: N_10  and  C_11
REMARK    5  A    between atoms: C_14  and  O_15
REMARK    6  A    between atoms: O_15  and  C_16
REMARK                            x       y       z     vdW  Elec       q    Type
REMARK                         _______ _______ _______ _____ _____    ______ ____
ROOT
ATOM      1  N   UNL     1      -4.919  12.174  18.621  0.00  0.00    +0.000 NA
ATOM      2  C   UNL     1      -4.671  10.789  18.173  0.00  0.00    +0.000 C 
ATOM      3  C   UNL     1      -3.219  10.599  17.731  0.00  0.00    +0.000 C 
ATOM      4  C   UNL     1      -2.255  11.137  18.746  0.00  0.00    +0.000 A 
ATOM      5  N   UNL     1      -0.981  10.711  18.665  0.00  0.00    +0.000 NA
ATOM      6  C   UNL     1      -0.092  11.197  19.545  0.00  0.00    +0.000 A 
ATOM      7  N   UNL     1       1.227  10.732  19.513  0.00  0.00    +0.000 N 
ATOM      8  N   UNL     1      -0.398  12.098  20.491  0.00  0.00    +0.000 NA
ATOM      9  C   UNL     1      -1.683  12.504  20.540  0.00  0.00    +0.000 A 
ATOM     10  C   UNL     1      -2.666  12.059  19.681  0.00  0.00    +0.000 A 
ATOM     11  C   UNL     1      -4.095  12.486  19.805  0.00  0.00    +0.000 C 
ATOM     12  H   UNL     1       1.694  11.112  20.327  0.00  0.00    +0.000 HD
ENDROOT
BRANCH   7  13
ATOM     13  C   UNL     1       1.608   9.406  19.226  0.00  0.00    +0.000 A 
ATOM     14  C   UNL     1       2.076   9.091  17.943  0.00  0.00    +0.000 A 
ATOM     15  C   UNL     1       2.508   7.794  17.645  0.00  0.00    +0.000 A 
ATOM     16  C   UNL     1       2.515   6.808  18.632  0.00  0.00    +0.000 A 
ATOM     17  C   UNL     1       2.022   7.104  19.903  0.00  0.00    +0.000 A 
ATOM     18  C   UNL     1       1.610   8.402  20.205  0.00  0.00    +0.000 A 
BRANCH  16  19
ATOM     19  O   UNL     1       2.978   5.567  18.261  0.00  0.00    +0.000 OA
BRANCH  19  20
ATOM     20  C   UNL     1       4.334   5.353  18.148  0.00  0.00    +0.000 A 
ATOM     21  C   UNL     1       4.800   5.037  16.871  0.00  0.00    +0.000 A 
ATOM     22  C   UNL     1       6.158   4.797  16.658  0.00  0.00    +0.000 A 
ATOM     23  C   UNL     1       7.055   4.869  17.724  0.00  0.00    +0.000 A 
ATOM     24  C   UNL     1       6.599   5.216  18.995  0.00  0.00    +0.000 A 
ATOM     25  C   UNL     1       5.245   5.486  19.201  0.00  0.00    +0.000 A 
ENDBRANCH  19  20
ENDBRANCH  16  19
ENDBRANCH   7  13
BRANCH   1  26
ATOM     26  C   UNL     1      -6.358  12.362  18.884  0.00  0.00    +0.000 C 
BRANCH  26  28
ATOM     27  C   UNL     1      -7.575  11.866  21.036  0.00  0.00    +0.000 C 
ATOM     28  C   UNL     1      -6.972  11.273  19.773  0.00  0.00    +0.000 C 
ENDBRANCH  26  28
ENDBRANCH   1  26
TORSDOF 5
ENDMDL
MODEL 9
REMARK VINA RESULT:      -7.3      1.750      2.324
REMARK  Name = 
REMARK  6 active torsions:
REMARK  status: ('A' for Active; 'I' for Inactive)
REMARK    1  A    between atoms: C_1  and  C_2
REMARK    2  A    between atoms: C_2  and  C_3
REMARK    3  A    between atoms: C_3  and  N_4
REMARK    4  A    between atoms: N_10  and  C_11
REMARK    5  A    between atoms: C_14  and  O_15
REMARK    6  A    between atoms: O_15  and  C_16
REMARK                            x       y       z     vdW  Elec       q    Type
REMARK                         _______ _______ _______ _____ _____    ______ ____
ROOT
ATOM      1  N   UNL     1      -4.969  11.559  17.684  0.00  0.00    +0.000 NA
ATOM      2  C   UNL     1      -4.546  10.215  17.245  0.00  0.00    +0.000 C 
ATOM      3  C   UNL     1      -3.040  10.164  16.981  0.00  0.00    +0.000 C 
ATOM      4  C   UNL     1      -2.258  10.754  18.116  0.00  0.00    +0.000 A 
ATOM      5  N   UNL     1      -0.950  10.443  18.184  0.00  0.00    +0.000 NA
ATOM      6  C   UNL     1      -0.221  10.978  19.175  0.00  0.00    +0.000 A 
ATOM      7  N   UNL     1       1.129  10.631  19.296  0.00  0.00    +0.000 N 
ATOM      8  N   UNL     1      -0.719  11.822  20.093  0.00  0.00    +0.000 NA
ATOM      9  C   UNL     1      -2.031  12.113  19.991  0.00  0.00    +0.000 A 
ATOM     10  C   UNL     1      -2.859  11.610  19.010  0.00  0.00    +0.000 A 
ATOM     11  C   UNL     1      -4.326  11.907  18.966  0.00  0.00    +0.000 C 
ATOM     12  H   UNL     1       1.458  11.026  20.169  0.00  0.00    +0.000 HD
ENDROOT
BRANCH   7  13
ATOM     13  C   UNL     1       1.659   9.352  19.034  0.00  0.00    +0.000 A 
ATOM     14  C   UNL     1       2.222   9.089  17.779  0.00  0.00    +0.000 A 
ATOM     15  C   UNL     1       2.800   7.843  17.508  0.00  0.00    +0.000 A 
ATOM     16  C   UNL     1       2.858   6.862  18.498  0.00  0.00    +0.000 A 
ATOM     17  C   UNL     1       2.272   7.104  19.741  0.00  0.00    +0.000 A 
ATOM     18  C   UNL     1       1.714   8.351  20.016  0.00  0.00    +0.000 A 
BRANCH  16  19
ATOM     19  O   UNL     1       3.465   5.676  18.156  0.00  0.00    +0.000 OA
BRANCH  19  20
ATOM     20  C   UNL     1       2.838   4.484  18.443  0.00  0.00    +0.000 A 
ATOM     21  C   UNL     1       3.661   3.455  18.903  0.00  0.00    +0.000 A 
ATOM     22  C   UNL     1       3.118   2.207  19.215  0.00  0.00    +0.000 A 
ATOM     23  C   UNL     1       1.749   1.985  19.066  0.00  0.00    +0.000 A 
ATOM     24  C   UNL     1       0.918   3.020  18.638  0.00  0.00    +0.000 A 
ATOM     25  C   UNL     1       1.457   4.276  18.355  0.00  0.00    +0.000 A 
ENDBRANCH  19  20
ENDBRANCH  16  19
ENDBRANCH   7  13
BRANCH   1  26
ATOM     26  C   UNL     1      -6.441  11.613  17.772  0.00  0.00    +0.000 C 
BRANCH  26  28
ATOM     27  C   UNL     1      -7.740  12.809  19.574  0.00  0.00    +0.000 C 
ATOM     28  C   UNL     1      -6.978  11.545  19.207  0.00  0.00    +0.000 C 
ENDBRANCH  26  28
ENDBRANCH   1  26
TORSDOF 5
ENDMDL
