MODEL 1
REMARK VINA RESULT:      -7.7      0.000      0.000
REMARK  Name = 
REMARK  9 active torsions:
REMARK  status: ('A' for Active; 'I' for Inactive)
REMARK    1  A    between atoms: C_2  and  C_3
REMARK    2  A    between atoms: C_3  and  C_4
REMARK    3  A    between atoms: C_3  and  C_22
REMARK    4  A    between atoms: C_3  and  C_28
REMARK    5  A    between atoms: C_4  and  C_5
REMARK    6  A    between atoms: C_5  and  S_6
REMARK    7  A    between atoms: S_6  and  C_7
REMARK    8  A    between atoms: C_7  and  N_9
REMARK    9  A    between atoms: N_12  and  C_13
REMARK                            x       y       z     vdW  Elec       q    Type
REMARK                         _______ _______ _______ _____ _____    ______ ____
ROOT
ATOM      1  C   UNL     1       2.515   7.302  18.070  0.00  0.00    +0.000 C 
ENDROOT
BRANCH   1   2
ATOM      2  C   UNL     1       4.019   7.034  18.287  0.00  0.00    +0.000 C 
BRANCH   2   3
ATOM      3  C   UNL     1       4.430   5.516  18.245  0.00  0.00    +0.000 C 
BRANCH   3   4
ATOM      4  C   UNL     1       4.962   5.105  16.831  0.00  0.00    +0.000 A 
ATOM      5  C   UNL     1       5.083   6.064  15.799  0.00  0.00    +0.000 A 
ATOM      6  C   UNL     1       5.457   5.699  14.503  0.00  0.00    +0.000 A 
ATOM      7  C   UNL     1       5.745   4.371  14.206  0.00  0.00    +0.000 A 
ATOM      8  C   UNL     1       5.692   3.418  15.216  0.00  0.00    +0.000 A 
ATOM      9  C   UNL     1       5.328   3.780  16.518  0.00  0.00    +0.000 A 
ENDBRANCH   3   4
BRANCH   3  10
ATOM     10  C   UNL     1       3.243   4.645  18.734  0.00  0.00    +0.000 A 
ATOM     11  C   UNL     1       2.349   4.073  17.799  0.00  0.00    +0.000 A 
ATOM     12  C   UNL     1       1.255   3.303  18.210  0.00  0.00    +0.000 A 
ATOM     13  C   UNL     1       1.025   3.087  19.561  0.00  0.00    +0.000 A 
ATOM     14  C   UNL     1       1.887   3.635  20.504  0.00  0.00    +0.000 A 
ATOM     15  C   UNL     1       2.984   4.404  20.096  0.00  0.00    +0.000 A 
ENDBRANCH   3  10
BRANCH   3  17
ATOM     16  N   UNL     1       6.547   5.254  20.028  0.00  0.00    +0.000 NA
ATOM     17  C   UNL     1       5.587   5.374  19.219  0.00  0.00    +0.000 C 
ENDBRANCH   3  17
ENDBRANCH   2   3
ENDBRANCH   1   2
BRANCH   1  18
ATOM     18  S   UNL     1       1.827   8.020  19.586  0.00  0.00    +0.000 S 
BRANCH  18  19
ATOM     19  C   UNL     1       1.313   9.656  19.140  0.00  0.00    +0.000 C 
ATOM     20  S   UNL     1       2.039  10.579  17.936  0.00  0.00    +0.000 S 
BRANCH  19  21
ATOM     21  N   UNL     1       0.214  10.106  19.877  0.00  0.00    +0.000 N 
ATOM     22  C   UNL     1       0.050   9.891  21.333  0.00  0.00    +0.000 C 
ATOM     23  C   UNL     1      -0.401  11.178  22.056  0.00  0.00    +0.000 C 
ATOM     24  N   UNL     1      -1.593  11.724  21.395  0.00  0.00    +0.000 N 
ATOM     25  C   UNL     1      -1.418  12.002  19.958  0.00  0.00    +0.000 C 
ATOM     26  C   UNL     1      -0.974  10.718  19.244  0.00  0.00    +0.000 C 
BRANCH  24  27
ATOM     27  C   UNL     1      -2.679  12.199  22.100  0.00  0.00    +0.000 A 
ATOM     28  C   UNL     1      -2.775  12.080  23.497  0.00  0.00    +0.000 A 
ATOM     29  C   UNL     1      -3.906  12.517  24.194  0.00  0.00    +0.000 A 
ATOM     30  C   UNL     1      -4.962  13.085  23.497  0.00  0.00    +0.000 A 
ATOM     31  F   UNL     1      -6.050  13.494  24.161  0.00  0.00    +0.000 F 
ATOM     32  C   UNL     1      -4.904  13.221  22.119  0.00  0.00    +0.000 A 
ATOM     33  C   UNL     1      -3.769  12.782  21.433  0.00  0.00    +0.000 A 
ENDBRANCH  24  27
ENDBRANCH  19  21
ENDBRANCH  18  19
ENDBRANCH   1  18
TORSDOF 9
ENDMDL
MODEL 2
REMARK VINA RESULT:      -7.7      0.394      1.241
REMARK  Name = 
REMARK  9 active torsions:
REMARK  status: ('A' for Active; 'I' for Inactive)
REMARK    1  A    between atoms: C_2  and  C_3
REMARK    2  A    between atoms: C_3  and  C_4
REMARK    3  A    between atoms: C_3  and  C_22
REMARK    4  A    between atoms: C_3  and  C_28
REMARK    5  A    between atoms: C_4  and  C_5
REMARK    6  A    between atoms: C_5  and  S_6
REMARK    7  A    between atoms: S_6  and  C_7
REMARK    8  A    between atoms: C_7  and  N_9
REMARK    9  A    between atoms: N_12  and  C_13
REMARK                            x       y       z     vdW  Elec       q    Type
REMARK                         _______ _______ _______ _____ _____    ______ ____
ROOT
ATOM      1  C   UNL     1       2.308   6.836  18.403  0.00  0.00    +0.000 C 
ENDROOT
BRANCH   1   2
ATOM      2  C   UNL     1       3.849   6.764  18.350  0.00  0.00    +0.000 C 
BRANCH   2   3
ATOM      3  C   UNL     1       4.436   5.309  18.229  0.00  0.00    +0.000 C 
BRANCH   3   4
ATOM      4  C   UNL     1       4.955   5.018  16.780  0.00  0.00    +0.000 A 
ATOM      5  C   UNL     1       5.362   3.717  16.408  0.00  0.00    +0.000 A 
ATOM      6  C   UNL     1       5.924   3.457  15.156  0.00  0.00    +0.000 A 
ATOM      7  C   UNL     1       6.073   4.484  14.230  0.00  0.00    +0.000 A 
ATOM      8  C   UNL     1       5.626   5.761  14.548  0.00  0.00    +0.000 A 
ATOM      9  C   UNL     1       5.053   6.024  15.797  0.00  0.00    +0.000 A 
ENDBRANCH   3   4
BRANCH   3  10
ATOM     10  C   UNL     1       3.382   4.283  18.724  0.00  0.00    +0.000 A 
ATOM     11  C   UNL     1       2.357   3.842  17.855  0.00  0.00    +0.000 A 
ATOM     12  C   UNL     1       1.378   2.938  18.280  0.00  0.00    +0.000 A 
ATOM     13  C   UNL     1       1.396   2.452  19.580  0.00  0.00    +0.000 A 
ATOM     14  C   UNL     1       2.393   2.865  20.456  0.00  0.00    +0.000 A 
ATOM     15  C   UNL     1       3.375   3.769  20.034  0.00  0.00    +0.000 A 
ENDBRANCH   3  10
BRANCH   3  17
ATOM     16  N   UNL     1       6.642   5.240  19.921  0.00  0.00    +0.000 NA
ATOM     17  C   UNL     1       5.641   5.271  19.154  0.00  0.00    +0.000 C 
ENDBRANCH   3  17
ENDBRANCH   2   3
ENDBRANCH   1   2
BRANCH   1  18
ATOM     18  S   UNL     1       1.820   7.793  19.862  0.00  0.00    +0.000 S 
BRANCH  18  19
ATOM     19  C   UNL     1       1.301   9.368  19.240  0.00  0.00    +0.000 C 
ATOM     20  S   UNL     1       1.998  10.138  17.916  0.00  0.00    +0.000 S 
BRANCH  19  21
ATOM     21  N   UNL     1       0.224   9.910  19.947  0.00  0.00    +0.000 N 
ATOM     22  C   UNL     1       0.102   9.876  21.423  0.00  0.00    +0.000 C 
ATOM     23  C   UNL     1      -0.327  11.243  21.996  0.00  0.00    +0.000 C 
ATOM     24  N   UNL     1      -1.537  11.710  21.307  0.00  0.00    +0.000 N 
ATOM     25  C   UNL     1      -1.402  11.810  19.842  0.00  0.00    +0.000 C 
ATOM     26  C   UNL     1      -0.981  10.447  19.278  0.00  0.00    +0.000 C 
BRANCH  24  27
ATOM     27  C   UNL     1      -2.601  12.274  21.979  0.00  0.00    +0.000 A 
ATOM     28  C   UNL     1      -3.514  13.135  21.347  0.00  0.00    +0.000 A 
ATOM     29  C   UNL     1      -4.558  13.742  22.053  0.00  0.00    +0.000 A 
ATOM     30  C   UNL     1      -4.702  13.492  23.410  0.00  0.00    +0.000 A 
ATOM     31  F   UNL     1      -5.693  14.081  24.090  0.00  0.00    +0.000 F 
ATOM     32  C   UNL     1      -3.822  12.649  24.068  0.00  0.00    +0.000 A 
ATOM     33  C   UNL     1      -2.785  12.045  23.352  0.00  0.00    +0.000 A 
ENDBRANCH  24  27
ENDBRANCH  19  21
ENDBRANCH  18  19
ENDBRANCH   1  18
TORSDOF 9
ENDMDL
MODEL 3
REMARK VINA RESULT:      -7.6      3.188      4.035
REMARK  Name = 
REMARK  9 active torsions:
REMARK  status: ('A' for Active; 'I' for Inactive)
REMARK    1  A    between atoms: C_2  and  C_3
REMARK    2  A    between atoms: C_3  and  C_4
REMARK    3  A    between atoms: C_3  and  C_22
REMARK    4  A    between atoms: C_3  and  C_28
REMARK    5  A    between atoms: C_4  and  C_5
REMARK    6  A    between atoms: C_5  and  S_6
REMARK    7  A    between atoms: S_6  and  C_7
REMARK    8  A    between atoms: C_7  and  N_9
REMARK    9  A    between atoms: N_12  and  C_13
REMARK                            x       y       z     vdW  Elec       q    Type
REMARK                         _______ _______ _______ _____ _____    ______ ____
ROOT
ATOM      1  C   UNL     1       3.292   7.094  18.865  0.00  0.00    +0.000 C 
ENDROOT
BRANCH   1   2
ATOM      2  C   UNL     1       4.080   6.684  17.603  0.00  0.00    +0.000 C 
BRANCH   2   3
ATOM      3  C   UNL     1       4.719   5.248  17.664  0.00  0.00    +0.000 C 
BRANCH   3   4
ATOM      4  C   UNL     1       5.480   4.902  16.340  0.00  0.00    +0.000 A 
ATOM      5  C   UNL     1       6.837   5.262  16.173  0.00  0.00    +0.000 A 
ATOM      6  C   UNL     1       7.504   5.055  14.962  0.00  0.00    +0.000 A 
ATOM      7  C   UNL     1       6.843   4.460  13.893  0.00  0.00    +0.000 A 
ATOM      8  C   UNL     1       5.527   4.042  14.050  0.00  0.00    +0.000 A 
ATOM      9  C   UNL     1       4.858   4.238  15.263  0.00  0.00    +0.000 A 
ENDBRANCH   3   4
BRANCH   3  10
ATOM     10  C   UNL     1       3.628   4.211  18.037  0.00  0.00    +0.000 A 
ATOM     11  C   UNL     1       2.272   4.460  17.720  0.00  0.00    +0.000 A 
ATOM     12  C   UNL     1       1.262   3.556  18.066  0.00  0.00    +0.000 A 
ATOM     13  C   UNL     1       1.578   2.383  18.737  0.00  0.00    +0.000 A 
ATOM     14  C   UNL     1       2.901   2.109  19.061  0.00  0.00    +0.000 A 
ATOM     15  C   UNL     1       3.915   3.011  18.715  0.00  0.00    +0.000 A 
ENDBRANCH   3  10
BRANCH   3  17
ATOM     16  N   UNL     1       6.614   5.348  19.698  0.00  0.00    +0.000 NA
ATOM     17  C   UNL     1       5.754   5.304  18.775  0.00  0.00    +0.000 C 
ENDBRANCH   3  17
ENDBRANCH   2   3
ENDBRANCH   1   2
BRANCH   1  18
ATOM     18  S   UNL     1       1.839   8.052  18.358  0.00  0.00    +0.000 S 
BRANCH  18  19
ATOM     19  C   UNL     1       1.370   8.987  19.788  0.00  0.00    +0.000 C 
ATOM     20  S   UNL     1       1.213   8.337  21.332  0.00  0.00    +0.000 S 
BRANCH  19  21
ATOM     21  N   UNL     1       1.163  10.342  19.514  0.00  0.00    +0.000 N 
ATOM     22  C   UNL     1       0.459  11.272  20.426  0.00  0.00    +0.000 C 
ATOM     23  C   UNL     1       1.217  12.607  20.582  0.00  0.00    +0.000 C 
ATOM     24  N   UNL     1       1.503  13.171  19.257  0.00  0.00    +0.000 N 
ATOM     25  C   UNL     1       2.261  12.275  18.365  0.00  0.00    +0.000 C 
ATOM     26  C   UNL     1       1.499  10.952  18.210  0.00  0.00    +0.000 C 
BRANCH  24  27
ATOM     27  C   UNL     1       1.332  14.509  18.969  0.00  0.00    +0.000 A 
ATOM     28  C   UNL     1       2.391  15.321  18.529  0.00  0.00    +0.000 A 
ATOM     29  C   UNL     1       2.217  16.689  18.292  0.00  0.00    +0.000 A 
ATOM     30  C   UNL     1       0.971  17.265  18.494  0.00  0.00    +0.000 A 
ATOM     31  F   UNL     1       0.805  18.575  18.278  0.00  0.00    +0.000 F 
ATOM     32  C   UNL     1      -0.098  16.497  18.926  0.00  0.00    +0.000 A 
ATOM     33  C   UNL     1       0.087  15.131  19.157  0.00  0.00    +0.000 A 
ENDBRANCH  24  27
ENDBRANCH  19  21
ENDBRANCH  18  19
ENDBRANCH   1  18
TORSDOF 9
ENDMDL
MODEL 4
REMARK VINA RESULT:      -7.6      1.801      2.787
REMARK  Name = 
REMARK  9 active torsions:
REMARK  status: ('A' for Active; 'I' for Inactive)
REMARK    1  A    between atoms: C_2  and  C_3
REMARK    2  A    between atoms: C_3  and  C_4
REMARK    3  A    between atoms: C_3  and  C_22
REMARK    4  A    between atoms: C_3  and  C_28
REMARK    5  A    between atoms: C_4  and  C_5
REMARK    6  A    between atoms: C_5  and  S_6
REMARK    7  A    between atoms: S_6  and  C_7
REMARK    8  A    between atoms: C_7  and  N_9
REMARK    9  A    between atoms: N_12  and  C_13
REMARK                            x       y       z     vdW  Elec       q    Type
REMARK                         _______ _______ _______ _____ _____    ______ ____
ROOT
ATOM      1  C   UNL     1       4.535   6.860  17.974  0.00  0.00    +0.000 C 
ENDROOT
BRANCH   1   2
ATOM      2  C   UNL     1       4.905   6.417  16.543  0.00  0.00    +0.000 C 
BRANCH   2   3
ATOM      3  C   UNL     1       5.347   4.914  16.412  0.00  0.00    +0.000 C 
BRANCH   3   4
ATOM      4  C   UNL     1       5.759   4.562  14.943  0.00  0.00    +0.000 A 
ATOM      5  C   UNL     1       4.875   3.855  14.095  0.00  0.00    +0.000 A 
ATOM      6  C   UNL     1       5.262   3.442  12.818  0.00  0.00    +0.000 A 
ATOM      7  C   UNL     1       6.533   3.743  12.340  0.00  0.00    +0.000 A 
ATOM      8  C   UNL     1       7.400   4.489  13.130  0.00  0.00    +0.000 A 
ATOM      9  C   UNL     1       7.014   4.914  14.406  0.00  0.00    +0.000 A 
ENDBRANCH   3   4
BRANCH   3  10
ATOM     10  C   UNL     1       4.230   3.995  16.975  0.00  0.00    +0.000 A 
ATOM     11  C   UNL     1       4.556   2.730  17.516  0.00  0.00    +0.000 A 
ATOM     12  C   UNL     1       3.570   1.869  18.008  0.00  0.00    +0.000 A 
ATOM     13  C   UNL     1       2.234   2.247  17.971  0.00  0.00    +0.000 A 
ATOM     14  C   UNL     1       1.883   3.485  17.447  0.00  0.00    +0.000 A 
ATOM     15  C   UNL     1       2.868   4.350  16.955  0.00  0.00    +0.000 A 
ENDBRANCH   3  10
BRANCH   3  17
ATOM     16  N   UNL     1       7.622   4.654  17.989  0.00  0.00    +0.000 NA
ATOM     17  C   UNL     1       6.590   4.771  17.274  0.00  0.00    +0.000 C 
ENDBRANCH   3  17
ENDBRANCH   2   3
ENDBRANCH   1   2
BRANCH   1  18
ATOM     18  S   UNL     1       2.987   7.800  17.912  0.00  0.00    +0.000 S 
BRANCH  18  19
ATOM     19  C   UNL     1       2.177   7.475  19.454  0.00  0.00    +0.000 C 
ATOM     20  S   UNL     1       2.216   5.992  20.248  0.00  0.00    +0.000 S 
BRANCH  19  21
ATOM     21  N   UNL     1       1.511   8.590  19.969  0.00  0.00    +0.000 N 
ATOM     22  C   UNL     1       1.175   9.794  19.176  0.00  0.00    +0.000 C 
ATOM     23  C   UNL     1      -0.277  10.256  19.420  0.00  0.00    +0.000 C 
ATOM     24  N   UNL     1      -0.512  10.406  20.861  0.00  0.00    +0.000 N 
ATOM     25  C   UNL     1      -0.242   9.191  21.651  0.00  0.00    +0.000 C 
ATOM     26  C   UNL     1       1.204   8.740  21.408  0.00  0.00    +0.000 C 
BRANCH  24  27
ATOM     27  C   UNL     1      -1.190  11.484  21.393  0.00  0.00    +0.000 A 
ATOM     28  C   UNL     1      -2.042  12.288  20.617  0.00  0.00    +0.000 A 
ATOM     29  C   UNL     1      -2.682  13.410  21.156  0.00  0.00    +0.000 A 
ATOM     30  C   UNL     1      -2.475  13.742  22.487  0.00  0.00    +0.000 A 
ATOM     31  F   UNL     1      -3.077  14.821  23.001  0.00  0.00    +0.000 F 
ATOM     32  C   UNL     1      -1.643  12.973  23.283  0.00  0.00    +0.000 A 
ATOM     33  C   UNL     1      -1.011  11.853  22.736  0.00  0.00    +0.000 A 
ENDBRANCH  24  27
ENDBRANCH  19  21
ENDBRANCH  18  19
ENDBRANCH   1  18
TORSDOF 9
ENDMDL
MODEL 5
REMARK VINA RESULT:      -7.5      1.162      1.963
REMARK  Name = 
REMARK  9 active torsions:
REMARK  status: ('A' for Active; 'I' for Inactive)
REMARK    1  A    between atoms: C_2  and  C_3
REMARK    2  A    between atoms: C_3  and  C_4
REMARK    3  A    between atoms: C_3  and  C_22
REMARK    4  A    between atoms: C_3  and  C_28
REMARK    5  A    between atoms: C_4  and  C_5
REMARK    6  A    between atoms: C_5  and  S_6
REMARK    7  A    between atoms: S_6  and  C_7
REMARK    8  A    between atoms: C_7  and  N_9
REMARK    9  A    between atoms: N_12  and  C_13
REMARK                            x       y       z     vdW  Elec       q    Type
REMARK                         _______ _______ _______ _____ _____    ______ ____
ROOT
ATOM      1  C   UNL     1       2.235   6.660  18.809  0.00  0.00    +0.000 C 
ENDROOT
BRANCH   1   2
ATOM      2  C   UNL     1       3.755   6.670  18.543  0.00  0.00    +0.000 C 
BRANCH   2   3
ATOM      3  C   UNL     1       4.397   5.249  18.338  0.00  0.00    +0.000 C 
BRANCH   3   4
ATOM      4  C   UNL     1       4.922   5.062  16.875  0.00  0.00    +0.000 A 
ATOM      5  C   UNL     1       5.371   3.798  16.427  0.00  0.00    +0.000 A 
ATOM      6  C   UNL     1       5.939   3.632  15.161  0.00  0.00    +0.000 A 
ATOM      7  C   UNL     1       6.052   4.716  14.297  0.00  0.00    +0.000 A 
ATOM      8  C   UNL     1       5.564   5.957  14.690  0.00  0.00    +0.000 A 
ATOM      9  C   UNL     1       4.985   6.126  15.953  0.00  0.00    +0.000 A 
ENDBRANCH   3   4
BRANCH   3  10
ATOM     10  C   UNL     1       3.385   4.156  18.774  0.00  0.00    +0.000 A 
ATOM     11  C   UNL     1       3.457   3.599  20.072  0.00  0.00    +0.000 A 
ATOM     12  C   UNL     1       2.576   2.594  20.486  0.00  0.00    +0.000 A 
ATOM     13  C   UNL     1       1.603   2.120  19.617  0.00  0.00    +0.000 A 
ATOM     14  C   UNL     1       1.506   2.651  18.336  0.00  0.00    +0.000 A 
ATOM     15  C   UNL     1       2.385   3.657  17.918  0.00  0.00    +0.000 A 
ENDBRANCH   3  10
BRANCH   3  17
ATOM     16  N   UNL     1       6.608   5.169  20.023  0.00  0.00    +0.000 NA
ATOM     17  C   UNL     1       5.605   5.204  19.259  0.00  0.00    +0.000 C 
ENDBRANCH   3  17
ENDBRANCH   2   3
ENDBRANCH   1   2
BRANCH   1  18
ATOM     18  S   UNL     1       1.872   7.815  20.157  0.00  0.00    +0.000 S 
BRANCH  18  19
ATOM     19  C   UNL     1       1.414   9.333  19.365  0.00  0.00    +0.000 C 
ATOM     20  S   UNL     1       1.639   9.650  17.729  0.00  0.00    +0.000 S 
BRANCH  19  21
ATOM     21  N   UNL     1       0.817  10.249  20.237  0.00  0.00    +0.000 N 
ATOM     22  C   UNL     1       0.302  11.573  19.821  0.00  0.00    +0.000 C 
ATOM     23  C   UNL     1      -1.095  11.857  20.410  0.00  0.00    +0.000 C 
ATOM     24  N   UNL     1      -1.068  11.657  21.865  0.00  0.00    +0.000 N 
ATOM     25  C   UNL     1      -0.619  10.318  22.285  0.00  0.00    +0.000 C 
ATOM     26  C   UNL     1       0.773  10.043  21.701  0.00  0.00    +0.000 C 
BRANCH  24  27
ATOM     27  C   UNL     1      -1.673  12.531  22.744  0.00  0.00    +0.000 A 
ATOM     28  C   UNL     1      -1.049  13.717  23.168  0.00  0.00    +0.000 A 
ATOM     29  C   UNL     1      -1.650  14.568  24.101  0.00  0.00    +0.000 A 
ATOM     30  C   UNL     1      -2.892  14.240  24.625  0.00  0.00    +0.000 A 
ATOM     31  F   UNL     1      -3.463  15.047  25.527  0.00  0.00    +0.000 F 
ATOM     32  C   UNL     1      -3.538  13.080  24.231  0.00  0.00    +0.000 A 
ATOM     33  C   UNL     1      -2.930  12.239  23.296  0.00  0.00    +0.000 A 
ENDBRANCH  24  27
ENDBRANCH  19  21
ENDBRANCH  18  19
ENDBRANCH   1  18
TORSDOF 9
ENDMDL
MODEL 6
REMARK VINA RESULT:      -7.5      1.609      2.346
REMARK  Name = 
REMARK  9 active torsions:
REMARK  status: ('A' for Active; 'I' for Inactive)
REMARK    1  A    between atoms: C_2  and  C_3
REMARK    2  A    between atoms: C_3  and  C_4
REMARK    3  A    between atoms: C_3  and  C_22
REMARK    4  A    between atoms: C_3  and  C_28
REMARK    5  A    between atoms: C_4  and  C_5
REMARK    6  A    between atoms: C_5  and  S_6
REMARK    7  A    between atoms: S_6  and  C_7
REMARK    8  A    between atoms: C_7  and  N_9
REMARK    9  A    between atoms: N_12  and  C_13
REMARK                            x       y       z     vdW  Elec       q    Type
REMARK                         _______ _______ _______ _____ _____    ______ ____
ROOT
ATOM      1  C   UNL     1       3.905   7.437  18.228  0.00  0.00    +0.000 C 
ENDROOT
BRANCH   1   2
ATOM      2  C   UNL     1       4.008   6.665  16.895  0.00  0.00    +0.000 C 
BRANCH   2   3
ATOM      3  C   UNL     1       4.744   5.278  16.993  0.00  0.00    +0.000 C 
BRANCH   3   4
ATOM      4  C   UNL     1       5.479   4.923  15.658  0.00  0.00    +0.000 A 
ATOM      5  C   UNL     1       4.799   4.250  14.617  0.00  0.00    +0.000 A 
ATOM      6  C   UNL     1       5.463   3.832  13.460  0.00  0.00    +0.000 A 
ATOM      7  C   UNL     1       6.819   4.096  13.299  0.00  0.00    +0.000 A 
ATOM      8  C   UNL     1       7.498   4.809  14.280  0.00  0.00    +0.000 A 
ATOM      9  C   UNL     1       6.835   5.238  15.436  0.00  0.00    +0.000 A 
ENDBRANCH   3   4
BRANCH   3  10
ATOM     10  C   UNL     1       3.737   4.190  17.451  0.00  0.00    +0.000 A 
ATOM     11  C   UNL     1       2.360   4.494  17.557  0.00  0.00    +0.000 A 
ATOM     12  C   UNL     1       1.432   3.542  17.991  0.00  0.00    +0.000 A 
ATOM     13  C   UNL     1       1.854   2.264  18.332  0.00  0.00    +0.000 A 
ATOM     14  C   UNL     1       3.201   1.934  18.237  0.00  0.00    +0.000 A 
ATOM     15  C   UNL     1       4.132   2.885  17.802  0.00  0.00    +0.000 A 
ENDBRANCH   3  10
BRANCH   3  17
ATOM     16  N   UNL     1       6.696   5.593  18.949  0.00  0.00    +0.000 NA
ATOM     17  C   UNL     1       5.810   5.451  18.062  0.00  0.00    +0.000 C 
ENDBRANCH   3  17
ENDBRANCH   2   3
ENDBRANCH   1   2
BRANCH   1  18
ATOM     18  S   UNL     1       2.271   8.214  18.325  0.00  0.00    +0.000 S 
BRANCH  18  19
ATOM     19  C   UNL     1       1.694   7.891  19.969  0.00  0.00    +0.000 C 
ATOM     20  S   UNL     1       1.804   6.396  20.732  0.00  0.00    +0.000 S 
BRANCH  19  21
ATOM     21  N   UNL     1       1.151   9.019  20.592  0.00  0.00    +0.000 N 
ATOM     22  C   UNL     1       0.758  10.252  19.874  0.00  0.00    +0.000 C 
ATOM     23  C   UNL     1      -0.626  10.763  20.324  0.00  0.00    +0.000 C 
ATOM     24  N   UNL     1      -0.655  10.889  21.787  0.00  0.00    +0.000 N 
ATOM     25  C   UNL     1      -0.329   9.646  22.510  0.00  0.00    +0.000 C 
ATOM     26  C   UNL     1       1.051   9.146  22.062  0.00  0.00    +0.000 C 
BRANCH  24  27
ATOM     27  C   UNL     1      -1.209  11.978  22.426  0.00  0.00    +0.000 A 
ATOM     28  C   UNL     1      -0.567  13.227  22.469  0.00  0.00    +0.000 A 
ATOM     29  C   UNL     1      -1.114  14.309  23.166  0.00  0.00    +0.000 A 
ATOM     30  C   UNL     1      -2.320  14.153  23.834  0.00  0.00    +0.000 A 
ATOM     31  F   UNL     1      -2.839  15.184  24.511  0.00  0.00    +0.000 F 
ATOM     32  C   UNL     1      -2.984  12.938  23.814  0.00  0.00    +0.000 A 
ATOM     33  C   UNL     1      -2.429  11.864  23.112  0.00  0.00    +0.000 A 
ENDBRANCH  24  27
ENDBRANCH  19  21
ENDBRANCH  18  19
ENDBRANCH   1  18
TORSDOF 9
ENDMDL
MODEL 7
REMARK VINA RESULT:      -7.5      6.145      9.410
REMARK  Name = 
REMARK  9 active torsions:
REMARK  status: ('A' for Active; 'I' for Inactive)
REMARK    1  A    between atoms: C_2  and  C_3
REMARK    2  A    between atoms: C_3  and  C_4
REMARK    3  A    between atoms: C_3  and  C_22
REMARK    4  A    between atoms: C_3  and  C_28
REMARK    5  A    between atoms: C_4  and  C_5
REMARK    6  A    between atoms: C_5  and  S_6
REMARK    7  A    between atoms: S_6  and  C_7
REMARK    8  A    between atoms: C_7  and  N_9
REMARK    9  A    between atoms: N_12  and  C_13
REMARK                            x       y       z     vdW  Elec       q    Type
REMARK                         _______ _______ _______ _____ _____    ______ ____
ROOT
ATOM      1  C   UNL     1       1.585  13.063  19.826  0.00  0.00    +0.000 C 
ENDROOT
BRANCH   1   2
ATOM      2  C   UNL     1       1.542  11.867  18.850  0.00  0.00    +0.000 C 
BRANCH   2   3
ATOM      3  C   UNL     1       0.678  10.648  19.341  0.00  0.00    +0.000 C 
BRANCH   3   4
ATOM      4  C   UNL     1       1.417   9.288  19.105  0.00  0.00    +0.000 A 
ATOM      5  C   UNL     1       1.395   8.275  20.091  0.00  0.00    +0.000 A 
ATOM      6  C   UNL     1       2.132   7.097  19.944  0.00  0.00    +0.000 A 
ATOM      7  C   UNL     1       2.893   6.887  18.799  0.00  0.00    +0.000 A 
ATOM      8  C   UNL     1       2.885   7.840  17.788  0.00  0.00    +0.000 A 
ATOM      9  C   UNL     1       2.140   9.017  17.925  0.00  0.00    +0.000 A 
ENDBRANCH   3   4
BRANCH   3  10
ATOM     10  C   UNL     1      -0.726  10.709  18.682  0.00  0.00    +0.000 A 
ATOM     11  C   UNL     1      -1.691  11.630  19.151  0.00  0.00    +0.000 A 
ATOM     12  C   UNL     1      -2.973  11.691  18.595  0.00  0.00    +0.000 A 
ATOM     13  C   UNL     1      -3.325  10.836  17.559  0.00  0.00    +0.000 A 
ATOM     14  C   UNL     1      -2.396   9.922  17.076  0.00  0.00    +0.000 A 
ATOM     15  C   UNL     1      -1.112   9.858  17.630  0.00  0.00    +0.000 A 
ENDBRANCH   3  10
BRANCH   3  17
ATOM     16  N   UNL     1       0.407  10.972  22.091  0.00  0.00    +0.000 NA
ATOM     17  C   UNL     1       0.530  10.824  20.844  0.00  0.00    +0.000 C 
ENDBRANCH   3  17
ENDBRANCH   2   3
ENDBRANCH   1   2
BRANCH   1  18
ATOM     18  S   UNL     1       1.413  14.596  18.875  0.00  0.00    +0.000 S 
BRANCH  18  19
ATOM     19  C   UNL     1       2.708  15.656  19.455  0.00  0.00    +0.000 C 
ATOM     20  S   UNL     1       2.457  17.187  20.106  0.00  0.00    +0.000 S 
BRANCH  19  21
ATOM     21  N   UNL     1       3.979  15.084  19.341  0.00  0.00    +0.000 N 
ATOM     22  C   UNL     1       4.504  14.476  18.097  0.00  0.00    +0.000 C 
ATOM     23  C   UNL     1       5.948  14.930  17.801  0.00  0.00    +0.000 C 
ATOM     24  N   UNL     1       6.791  14.699  18.981  0.00  0.00    +0.000 N 
ATOM     25  C   UNL     1       6.310  15.355  20.210  0.00  0.00    +0.000 C 
ATOM     26  C   UNL     1       4.875  14.895  20.502  0.00  0.00    +0.000 C 
BRANCH  24  27
ATOM     27  C   UNL     1       8.058  14.160  18.892  0.00  0.00    +0.000 A 
ATOM     28  C   UNL     1       9.071  14.476  19.813  0.00  0.00    +0.000 A 
ATOM     29  C   UNL     1      10.367  13.965  19.681  0.00  0.00    +0.000 A 
ATOM     30  C   UNL     1      10.666  13.126  18.618  0.00  0.00    +0.000 A 
ATOM     31  F   UNL     1      11.908  12.645  18.484  0.00  0.00    +0.000 F 
ATOM     32  C   UNL     1       9.694  12.791  17.690  0.00  0.00    +0.000 A 
ATOM     33  C   UNL     1       8.402  13.305  17.833  0.00  0.00    +0.000 A 
ENDBRANCH  24  27
ENDBRANCH  19  21
ENDBRANCH  18  19
ENDBRANCH   1  18
TORSDOF 9
ENDMDL
MODEL 8
REMARK VINA RESULT:      -7.4      2.478      3.116
REMARK  Name = 
REMARK  9 active torsions:
REMARK  status: ('A' for Active; 'I' for Inactive)
REMARK    1  A    between atoms: C_2  and  C_3
REMARK    2  A    between atoms: C_3  and  C_4
REMARK    3  A    between atoms: C_3  and  C_22
REMARK    4  A    between atoms: C_3  and  C_28
REMARK    5  A    between atoms: C_4  and  C_5
REMARK    6  A    between atoms: C_5  and  S_6
REMARK    7  A    between atoms: S_6  and  C_7
REMARK    8  A    between atoms: C_7  and  N_9
REMARK    9  A    between atoms: N_12  and  C_13
REMARK                            x       y       z     vdW  Elec       q    Type
REMARK                         _______ _______ _______ _____ _____    ______ ____
ROOT
ATOM      1  C   UNL     1       2.932   6.990  18.773  0.00  0.00    +0.000 C 
ENDROOT
BRANCH   1   2
ATOM      2  C   UNL     1       4.050   6.784  17.729  0.00  0.00    +0.000 C 
BRANCH   2   3
ATOM      3  C   UNL     1       4.690   5.347  17.727  0.00  0.00    +0.000 C 
BRANCH   3   4
ATOM      4  C   UNL     1       5.423   5.047  16.376  0.00  0.00    +0.000 A 
ATOM      5  C   UNL     1       4.759   4.363  15.332  0.00  0.00    +0.000 A 
ATOM      6  C   UNL     1       5.425   3.995  14.160  0.00  0.00    +0.000 A 
ATOM      7  C   UNL     1       6.766   4.321  13.987  0.00  0.00    +0.000 A 
ATOM      8  C   UNL     1       7.427   5.046  14.972  0.00  0.00    +0.000 A 
ATOM      9  C   UNL     1       6.761   5.426  16.143  0.00  0.00    +0.000 A 
ENDBRANCH   3   4
BRANCH   3  10
ATOM     10  C   UNL     1       3.607   4.296  18.087  0.00  0.00    +0.000 A 
ATOM     11  C   UNL     1       2.278   4.462  17.632  0.00  0.00    +0.000 A 
ATOM     12  C   UNL     1       1.273   3.546  17.961  0.00  0.00    +0.000 A 
ATOM     13  C   UNL     1       1.568   2.444  18.752  0.00  0.00    +0.000 A 
ATOM     14  C   UNL     1       2.865   2.253  19.212  0.00  0.00    +0.000 A 
ATOM     15  C   UNL     1       3.874   3.167  18.884  0.00  0.00    +0.000 A 
ENDBRANCH   3  10
BRANCH   3  17
ATOM     16  N   UNL     1       6.626   5.378  19.724  0.00  0.00    +0.000 NA
ATOM     17  C   UNL     1       5.748   5.364  18.818  0.00  0.00    +0.000 C 
ENDBRANCH   3  17
ENDBRANCH   2   3
ENDBRANCH   1   2
BRANCH   1  18
ATOM     18  S   UNL     1       1.998   8.481  18.338  0.00  0.00    +0.000 S 
BRANCH  18  19
ATOM     19  C   UNL     1       1.237   9.016  19.846  0.00  0.00    +0.000 C 
ATOM     20  S   UNL     1       1.240   8.127  21.274  0.00  0.00    +0.000 S 
BRANCH  19  21
ATOM     21  N   UNL     1       0.644  10.278  19.744  0.00  0.00    +0.000 N 
ATOM     22  C   UNL     1      -0.274  10.846  20.758  0.00  0.00    +0.000 C 
ATOM     23  C   UNL     1       0.075  12.312  21.092  0.00  0.00    +0.000 C 
ATOM     24  N   UNL     1       0.154  13.095  19.852  0.00  0.00    +0.000 N 
ATOM     25  C   UNL     1       1.115  12.573  18.863  0.00  0.00    +0.000 C 
ATOM     26  C   UNL     1       0.759  11.117  18.532  0.00  0.00    +0.000 C 
BRANCH  24  27
ATOM     27  C   UNL     1      -0.399  14.353  19.734  0.00  0.00    +0.000 A 
ATOM     28  C   UNL     1       0.046  15.279  18.776  0.00  0.00    +0.000 A 
ATOM     29  C   UNL     1      -0.487  16.571  18.702  0.00  0.00    +0.000 A 
ATOM     30  C   UNL     1      -1.479  16.953  19.594  0.00  0.00    +0.000 A 
ATOM     31  F   UNL     1      -1.982  18.192  19.532  0.00  0.00    +0.000 F 
ATOM     32  C   UNL     1      -1.943  16.068  20.552  0.00  0.00    +0.000 A 
ATOM     33  C   UNL     1      -1.406  14.780  20.615  0.00  0.00    +0.000 A 
ENDBRANCH  24  27
ENDBRANCH  19  21
ENDBRANCH  18  19
ENDBRANCH   1  18
TORSDOF 9
ENDMDL
MODEL 9
REMARK VINA RESULT:      -7.4      0.642      1.317
REMARK  Name = 
REMARK  9 active torsions:
REMARK  status: ('A' for Active; 'I' for Inactive)
REMARK    1  A    between atoms: C_2  and  C_3
REMARK    2  A    between atoms: C_3  and  C_4
REMARK    3  A    between atoms: C_3  and  C_22
REMARK    4  A    between atoms: C_3  and  C_28
REMARK    5  A    between atoms: C_4  and  C_5
REMARK    6  A    between atoms: C_5  and  S_6
REMARK    7  A    between atoms: S_6  and  C_7
REMARK    8  A    between atoms: C_7  and  N_9
REMARK    9  A    between atoms: N_12  and  C_13
REMARK                            x       y       z     vdW  Elec       q    Type
REMARK                         _______ _______ _______ _____ _____    ______ ____
ROOT
ATOM      1  C   UNL     1       2.146   6.560  19.204  0.00  0.00    +0.000 C 
ENDROOT
BRANCH   1   2
ATOM      2  C   UNL     1       3.557   6.639  18.583  0.00  0.00    +0.000 C 
BRANCH   2   3
ATOM      3  C   UNL     1       4.253   5.248  18.351  0.00  0.00    +0.000 C 
BRANCH   3   4
ATOM      4  C   UNL     1       4.795   5.114  16.888  0.00  0.00    +0.000 A 
ATOM      5  C   UNL     1       5.139   3.849  16.360  0.00  0.00    +0.000 A 
ATOM      6  C   UNL     1       5.721   3.718  15.096  0.00  0.00    +0.000 A 
ATOM      7  C   UNL     1       5.954   4.845  14.314  0.00  0.00    +0.000 A 
ATOM      8  C   UNL     1       5.571   6.095  14.785  0.00  0.00    +0.000 A 
ATOM      9  C   UNL     1       4.978   6.230  16.046  0.00  0.00    +0.000 A 
ENDBRANCH   3   4
BRANCH   3  10
ATOM     10  C   UNL     1       3.279   4.108  18.754  0.00  0.00    +0.000 A 
ATOM     11  C   UNL     1       3.505   3.366  19.936  0.00  0.00    +0.000 A 
ATOM     12  C   UNL     1       2.660   2.317  20.313  0.00  0.00    +0.000 A 
ATOM     13  C   UNL     1       1.572   1.980  19.520  0.00  0.00    +0.000 A 
ATOM     14  C   UNL     1       1.323   2.692  18.353  0.00  0.00    +0.000 A 
ATOM     15  C   UNL     1       2.166   3.744  17.973  0.00  0.00    +0.000 A 
ENDBRANCH   3  10
BRANCH   3  17
ATOM     16  N   UNL     1       6.452   5.209  20.052  0.00  0.00    +0.000 NA
ATOM     17  C   UNL     1       5.455   5.227  19.280  0.00  0.00    +0.000 C 
ENDBRANCH   3  17
ENDBRANCH   2   3
ENDBRANCH   1   2
BRANCH   1  18
ATOM     18  S   UNL     1       1.956   7.915  20.392  0.00  0.00    +0.000 S 
BRANCH  18  19
ATOM     19  C   UNL     1       1.259   9.256  19.466  0.00  0.00    +0.000 C 
ATOM     20  S   UNL     1       1.814   9.753  17.958  0.00  0.00    +0.000 S 
BRANCH  19  21
ATOM     21  N   UNL     1       0.171   9.858  20.106  0.00  0.00    +0.000 N 
ATOM     22  C   UNL     1      -0.279   9.513  21.474  0.00  0.00    +0.000 C 
ATOM     23  C   UNL     1      -0.564  10.772  22.319  0.00  0.00    +0.000 C 
ATOM     24  N   UNL     1      -1.484  11.657  21.593  0.00  0.00    +0.000 N 
ATOM     25  C   UNL     1      -1.012  12.058  20.255  0.00  0.00    +0.000 C 
ATOM     26  C   UNL     1      -0.735  10.802  19.418  0.00  0.00    +0.000 C 
BRANCH  24  27
ATOM     27  C   UNL     1      -2.548  12.284  22.207  0.00  0.00    +0.000 A 
ATOM     28  C   UNL     1      -2.851  12.086  23.565  0.00  0.00    +0.000 A 
ATOM     29  C   UNL     1      -3.965  12.686  24.162  0.00  0.00    +0.000 A 
ATOM     30  C   UNL     1      -4.795  13.496  23.402  0.00  0.00    +0.000 A 
ATOM     31  F   UNL     1      -5.868  14.062  23.969  0.00  0.00    +0.000 F 
ATOM     32  C   UNL     1      -4.529  13.715  22.060  0.00  0.00    +0.000 A 
ATOM     33  C   UNL     1      -3.412  13.114  21.475  0.00  0.00    +0.000 A 
ENDBRANCH  24  27
ENDBRANCH  19  21
ENDBRANCH  18  19
ENDBRANCH   1  18
TORSDOF 9
ENDMDL
