MODEL 1
REMARK VINA RESULT:      -8.5      0.000      0.000
REMARK  Name = 
REMARK  6 active torsions:
REMARK  status: ('A' for Active; 'I' for Inactive)
REMARK    1  A    between atoms: C_1  and  O_2
REMARK    2  A    between atoms: O_2  and  C_3
REMARK    3  A    between atoms: C_7  and  O_8
REMARK    4  A    between atoms: O_8  and  C_9
REMARK    5  A    between atoms: C_12  and  N_13
REMARK    6  A    between atoms: N_13  and  C_14
REMARK                            x       y       z     vdW  Elec       q    Type
REMARK                         _______ _______ _______ _____ _____    ______ ____
ROOT
ATOM      1  C   UNL     1       0.828   9.877  19.101  0.00  0.00    +0.000 A 
ATOM      2  C   UNL     1       1.629   9.168  18.195  0.00  0.00    +0.000 A 
ATOM      3  C   UNL     1       2.230   7.963  18.567  0.00  0.00    +0.000 A 
ATOM      4  C   UNL     1       2.116   7.490  19.877  0.00  0.00    +0.000 A 
ATOM      5  C   UNL     1       1.385   8.253  20.803  0.00  0.00    +0.000 A 
ATOM      6  C   UNL     1       0.739   9.429  20.421  0.00  0.00    +0.000 A 
ATOM      7 CL   UNL     1      -0.180  10.284  21.606  0.00  0.00    +0.000 Cl
ENDROOT
BRANCH   4   8
ATOM      8  N   UNL     1       2.751   6.294  20.256  0.00  0.00    +0.000 N 
ATOM      9  H   UNL     1       3.265   6.338  21.125  0.00  0.00    +0.000 HD
BRANCH   8  10
ATOM     10  C   UNL     1       2.294   5.002  19.969  0.00  0.00    +0.000 A 
ATOM     11  N   UNL     1       1.268   4.453  20.660  0.00  0.00    +0.000 NA
ATOM     12  C   UNL     1       0.881   3.201  20.385  0.00  0.00    +0.000 A 
ATOM     13  N   UNL     1       1.375   2.377  19.454  0.00  0.00    +0.000 NA
ATOM     14  C   UNL     1       2.382   2.929  18.745  0.00  0.00    +0.000 A 
ATOM     15  C   UNL     1       3.114   2.386  17.665  0.00  0.00    +0.000 A 
ATOM     16  C   UNL     1       4.027   3.338  17.264  0.00  0.00    +0.000 A 
ATOM     17  N   UNL     1       3.871   4.436  18.071  0.00  0.00    +0.000 N 
ATOM     18  C   UNL     1       2.867   4.206  18.985  0.00  0.00    +0.000 A 
ATOM     19  H   UNL     1       4.381   5.304  17.985  0.00  0.00    +0.000 HD
ENDBRANCH   8  10
ENDBRANCH   4   8
BRANCH   1  20
ATOM     20  O   UNL     1       0.127  11.016  18.747  0.00  0.00    +0.000 OA
BRANCH  20  25
ATOM     21  C   UNL     1      -2.834  10.075  16.746  0.00  0.00    +0.000 A 
ATOM     22  C   UNL     1      -3.789  10.874  17.377  0.00  0.00    +0.000 A 
ATOM     23  C   UNL     1      -3.458  11.614  18.516  0.00  0.00    +0.000 A 
ATOM     24  C   UNL     1      -2.145  11.619  18.983  0.00  0.00    +0.000 A 
ATOM     25  C   UNL     1      -1.175  10.874  18.317  0.00  0.00    +0.000 A 
ATOM     26  C   UNL     1      -1.538  10.038  17.254  0.00  0.00    +0.000 A 
BRANCH  21  28
ATOM     27  C   UNL     1      -3.078  10.135  14.386  0.00  0.00    +0.000 C 
ATOM     28  O   UNL     1      -3.255   9.435  15.612  0.00  0.00    +0.000 OA
ENDBRANCH  21  28
ENDBRANCH  20  25
ENDBRANCH   1  20
TORSDOF 5
ENDMDL
MODEL 2
REMARK VINA RESULT:      -8.4      0.768      1.749
REMARK  Name = 
REMARK  6 active torsions:
REMARK  status: ('A' for Active; 'I' for Inactive)
REMARK    1  A    between atoms: C_1  and  O_2
REMARK    2  A    between atoms: O_2  and  C_3
REMARK    3  A    between atoms: C_7  and  O_8
REMARK    4  A    between atoms: O_8  and  C_9
REMARK    5  A    between atoms: C_12  and  N_13
REMARK    6  A    between atoms: N_13  and  C_14
REMARK                            x       y       z     vdW  Elec       q    Type
REMARK                         _______ _______ _______ _____ _____    ______ ____
ROOT
ATOM      1  C   UNL     1       0.864   9.847  19.048  0.00  0.00    +0.000 A 
ATOM      2  C   UNL     1       1.659   9.160  18.119  0.00  0.00    +0.000 A 
ATOM      3  C   UNL     1       2.268   7.951  18.460  0.00  0.00    +0.000 A 
ATOM      4  C   UNL     1       2.170   7.451  19.762  0.00  0.00    +0.000 A 
ATOM      5  C   UNL     1       1.446   8.191  20.711  0.00  0.00    +0.000 A 
ATOM      6  C   UNL     1       0.791   9.373  20.359  0.00  0.00    +0.000 A 
ATOM      7 CL   UNL     1      -0.119  10.200  21.571  0.00  0.00    +0.000 Cl
ENDROOT
BRANCH   4   8
ATOM      8  N   UNL     1       2.814   6.250  20.109  0.00  0.00    +0.000 N 
ATOM      9  H   UNL     1       2.476   5.811  20.955  0.00  0.00    +0.000 HD
BRANCH   8  10
ATOM     10  C   UNL     1       3.358   5.326  19.209  0.00  0.00    +0.000 A 
ATOM     11  N   UNL     1       4.573   5.527  18.650  0.00  0.00    +0.000 NA
ATOM     12  C   UNL     1       5.049   4.641  17.765  0.00  0.00    +0.000 A 
ATOM     13  N   UNL     1       4.470   3.508  17.349  0.00  0.00    +0.000 NA
ATOM     14  C   UNL     1       3.269   3.290  17.924  0.00  0.00    +0.000 A 
ATOM     15  C   UNL     1       2.392   2.193  17.768  0.00  0.00    +0.000 A 
ATOM     16  C   UNL     1       1.298   2.420  18.575  0.00  0.00    +0.000 A 
ATOM     17  N   UNL     1       1.485   3.622  19.209  0.00  0.00    +0.000 N 
ATOM     18  C   UNL     1       2.689   4.171  18.825  0.00  0.00    +0.000 A 
ATOM     19  H   UNL     1       0.862   4.028  19.892  0.00  0.00    +0.000 HD
ENDBRANCH   8  10
ENDBRANCH   4   8
BRANCH   1  20
ATOM     20  O   UNL     1       0.156  10.990  18.724  0.00  0.00    +0.000 OA
BRANCH  20  25
ATOM     21  C   UNL     1      -2.810  10.057  16.725  0.00  0.00    +0.000 A 
ATOM     22  C   UNL     1      -3.763  10.855  17.359  0.00  0.00    +0.000 A 
ATOM     23  C   UNL     1      -3.429  11.593  18.499  0.00  0.00    +0.000 A 
ATOM     24  C   UNL     1      -2.116  11.595  18.964  0.00  0.00    +0.000 A 
ATOM     25  C   UNL     1      -1.148  10.850  18.295  0.00  0.00    +0.000 A 
ATOM     26  C   UNL     1      -1.513  10.018  17.231  0.00  0.00    +0.000 A 
BRANCH  21  28
ATOM     27  C   UNL     1      -3.180  10.173  14.383  0.00  0.00    +0.000 C 
ATOM     28  O   UNL     1      -3.233   9.420  15.591  0.00  0.00    +0.000 OA
ENDBRANCH  21  28
ENDBRANCH  20  25
ENDBRANCH   1  20
TORSDOF 5
ENDMDL
MODEL 3
REMARK VINA RESULT:      -8.3      0.843      1.787
REMARK  Name = 
REMARK  6 active torsions:
REMARK  status: ('A' for Active; 'I' for Inactive)
REMARK    1  A    between atoms: C_1  and  O_2
REMARK    2  A    between atoms: O_2  and  C_3
REMARK    3  A    between atoms: C_7  and  O_8
REMARK    4  A    between atoms: O_8  and  C_9
REMARK    5  A    between atoms: C_12  and  N_13
REMARK    6  A    between atoms: N_13  and  C_14
REMARK                            x       y       z     vdW  Elec       q    Type
REMARK                         _______ _______ _______ _____ _____    ______ ____
ROOT
ATOM      1  C   UNL     1       0.919   9.875  19.092  0.00  0.00    +0.000 A 
ATOM      2  C   UNL     1       1.746   9.594  17.995  0.00  0.00    +0.000 A 
ATOM      3  C   UNL     1       2.496   8.417  17.951  0.00  0.00    +0.000 A 
ATOM      4  C   UNL     1       2.505   7.542  19.042  0.00  0.00    +0.000 A 
ATOM      5  C   UNL     1       1.744   7.876  20.174  0.00  0.00    +0.000 A 
ATOM      6  C   UNL     1       0.950   9.024  20.199  0.00  0.00    +0.000 A 
ATOM      7 CL   UNL     1       0.005   9.339  21.609  0.00  0.00    +0.000 Cl
ENDROOT
BRANCH   4   8
ATOM      8  N   UNL     1       3.288   6.376  19.007  0.00  0.00    +0.000 N 
ATOM      9  H   UNL     1       4.107   6.390  19.600  0.00  0.00    +0.000 HD
BRANCH   8  10
ATOM     10  C   UNL     1       2.810   5.077  18.789  0.00  0.00    +0.000 A 
ATOM     11  N   UNL     1       2.732   4.561  17.542  0.00  0.00    +0.000 NA
ATOM     12  C   UNL     1       2.236   3.329  17.366  0.00  0.00    +0.000 A 
ATOM     13  N   UNL     1       1.804   2.479  18.304  0.00  0.00    +0.000 NA
ATOM     14  C   UNL     1       1.903   2.980  19.553  0.00  0.00    +0.000 A 
ATOM     15  C   UNL     1       1.589   2.368  20.787  0.00  0.00    +0.000 A 
ATOM     16  C   UNL     1       1.876   3.276  21.785  0.00  0.00    +0.000 A 
ATOM     17  N   UNL     1       2.349   4.417  21.190  0.00  0.00    +0.000 N 
ATOM     18  C   UNL     1       2.376   4.257  19.823  0.00  0.00    +0.000 A 
ATOM     19  H   UNL     1       2.676   5.240  21.677  0.00  0.00    +0.000 HD
ENDBRANCH   8  10
ENDBRANCH   4   8
BRANCH   1  20
ATOM     20  O   UNL     1       0.078  10.972  19.132  0.00  0.00    +0.000 OA
BRANCH  20  25
ATOM     21  C   UNL     1      -2.668  10.065  16.829  0.00  0.00    +0.000 A 
ATOM     22  C   UNL     1      -3.660  10.912  17.325  0.00  0.00    +0.000 A 
ATOM     23  C   UNL     1      -3.435  11.675  18.475  0.00  0.00    +0.000 A 
ATOM     24  C   UNL     1      -2.184  11.653  19.090  0.00  0.00    +0.000 A 
ATOM     25  C   UNL     1      -1.172  10.858  18.559  0.00  0.00    +0.000 A 
ATOM     26  C   UNL     1      -1.440  10.003  17.483  0.00  0.00    +0.000 A 
BRANCH  21  28
ATOM     27  C   UNL     1      -3.325  10.215  14.554  0.00  0.00    +0.000 C 
ATOM     28  O   UNL     1      -2.978   9.405  15.672  0.00  0.00    +0.000 OA
ENDBRANCH  21  28
ENDBRANCH  20  25
ENDBRANCH   1  20
TORSDOF 5
ENDMDL
MODEL 4
REMARK VINA RESULT:      -8.3      0.895      1.209
REMARK  Name = 
REMARK  6 active torsions:
REMARK  status: ('A' for Active; 'I' for Inactive)
REMARK    1  A    between atoms: C_1  and  O_2
REMARK    2  A    between atoms: O_2  and  C_3
REMARK    3  A    between atoms: C_7  and  O_8
REMARK    4  A    between atoms: O_8  and  C_9
REMARK    5  A    between atoms: C_12  and  N_13
REMARK    6  A    between atoms: N_13  and  C_14
REMARK                            x       y       z     vdW  Elec       q    Type
REMARK                         _______ _______ _______ _____ _____    ______ ____
ROOT
ATOM      1  C   UNL     1       0.823   9.884  19.170  0.00  0.00    +0.000 A 
ATOM      2  C   UNL     1       1.632   9.296  18.186  0.00  0.00    +0.000 A 
ATOM      3  C   UNL     1       2.268   8.076  18.423  0.00  0.00    +0.000 A 
ATOM      4  C   UNL     1       2.182   7.464  19.676  0.00  0.00    +0.000 A 
ATOM      5  C   UNL     1       1.443   8.104  20.685  0.00  0.00    +0.000 A 
ATOM      6  C   UNL     1       0.762   9.297  20.435  0.00  0.00    +0.000 A 
ATOM      7 CL   UNL     1      -0.165   9.996  21.713  0.00  0.00    +0.000 Cl
ENDROOT
BRANCH   4   8
ATOM      8  N   UNL     1       2.852   6.252  19.920  0.00  0.00    +0.000 N 
ATOM      9  H   UNL     1       2.939   5.998  20.895  0.00  0.00    +0.000 HD
BRANCH   8  10
ATOM     10  C   UNL     1       2.852   5.135  19.075  0.00  0.00    +0.000 A 
ATOM     11  N   UNL     1       1.849   4.228  19.115  0.00  0.00    +0.000 NA
ATOM     12  C   UNL     1       1.899   3.153  18.318  0.00  0.00    +0.000 A 
ATOM     13  N   UNL     1       2.841   2.842  17.420  0.00  0.00    +0.000 NA
ATOM     14  C   UNL     1       3.831   3.757  17.359  0.00  0.00    +0.000 A 
ATOM     15  C   UNL     1       4.961   3.792  16.511  0.00  0.00    +0.000 A 
ATOM     16  C   UNL     1       5.671   4.935  16.816  0.00  0.00    +0.000 A 
ATOM     17  N   UNL     1       5.006   5.587  17.822  0.00  0.00    +0.000 N 
ATOM     18  C   UNL     1       3.874   4.883  18.169  0.00  0.00    +0.000 A 
ATOM     19  H   UNL     1       5.274   6.474  18.223  0.00  0.00    +0.000 HD
ENDBRANCH   8  10
ENDBRANCH   4   8
BRANCH   1  20
ATOM     20  O   UNL     1       0.090  11.035  18.944  0.00  0.00    +0.000 OA
BRANCH  20  25
ATOM     21  C   UNL     1      -2.774  10.101  16.802  0.00  0.00    +0.000 A 
ATOM     22  C   UNL     1      -3.747  10.930  17.361  0.00  0.00    +0.000 A 
ATOM     23  C   UNL     1      -3.465  11.691  18.501  0.00  0.00    +0.000 A 
ATOM     24  C   UNL     1      -2.181  11.683  19.040  0.00  0.00    +0.000 A 
ATOM     25  C   UNL     1      -1.190  10.906  18.446  0.00  0.00    +0.000 A 
ATOM     26  C   UNL     1      -1.509  10.053  17.382  0.00  0.00    +0.000 A 
BRANCH  21  28
ATOM     27  C   UNL     1      -3.305  10.241  14.493  0.00  0.00    +0.000 C 
ATOM     28  O   UNL     1      -3.143   9.443  15.661  0.00  0.00    +0.000 OA
ENDBRANCH  21  28
ENDBRANCH  20  25
ENDBRANCH   1  20
TORSDOF 5
ENDMDL
MODEL 5
REMARK VINA RESULT:      -8.2      1.308      2.501
REMARK  Name = 
REMARK  6 active torsions:
REMARK  status: ('A' for Active; 'I' for Inactive)
REMARK    1  A    between atoms: C_1  and  O_2
REMARK    2  A    between atoms: O_2  and  C_3
REMARK    3  A    between atoms: C_7  and  O_8
REMARK    4  A    between atoms: O_8  and  C_9
REMARK    5  A    between atoms: C_12  and  N_13
REMARK    6  A    between atoms: N_13  and  C_14
REMARK                            x       y       z     vdW  Elec       q    Type
REMARK                         _______ _______ _______ _____ _____    ______ ____
ROOT
ATOM      1  C   UNL     1       0.830   9.929  19.017  0.00  0.00    +0.000 A 
ATOM      2  C   UNL     1       1.610   9.122  18.175  0.00  0.00    +0.000 A 
ATOM      3  C   UNL     1       2.151   7.922  18.641  0.00  0.00    +0.000 A 
ATOM      4  C   UNL     1       2.001   7.550  19.980  0.00  0.00    +0.000 A 
ATOM      5  C   UNL     1       1.294   8.408  20.838  0.00  0.00    +0.000 A 
ATOM      6  C   UNL     1       0.706   9.581  20.363  0.00  0.00    +0.000 A 
ATOM      7 CL   UNL     1      -0.188  10.558  21.471  0.00  0.00    +0.000 Cl
ENDROOT
BRANCH   4   8
ATOM      8  N   UNL     1       2.576   6.357  20.451  0.00  0.00    +0.000 N 
ATOM      9  H   UNL     1       2.146   5.971  21.281  0.00  0.00    +0.000 HD
BRANCH   8  10
ATOM     10  C   UNL     1       3.184   5.375  19.659  0.00  0.00    +0.000 A 
ATOM     11  N   UNL     1       4.492   5.457  19.324  0.00  0.00    +0.000 NA
ATOM     12  C   UNL     1       5.033   4.520  18.535  0.00  0.00    +0.000 A 
ATOM     13  N   UNL     1       4.435   3.438  18.021  0.00  0.00    +0.000 NA
ATOM     14  C   UNL     1       3.136   3.339  18.373  0.00  0.00    +0.000 A 
ATOM     15  C   UNL     1       2.204   2.324  18.061  0.00  0.00    +0.000 A 
ATOM     16  C   UNL     1       1.010   2.660  18.662  0.00  0.00    +0.000 A 
ATOM     17  N   UNL     1       1.192   3.848  19.323  0.00  0.00    +0.000 N 
ATOM     18  C   UNL     1       2.489   4.280  19.160  0.00  0.00    +0.000 A 
ATOM     19  H   UNL     1       0.498   4.318  19.886  0.00  0.00    +0.000 HD
ENDBRANCH   8  10
ENDBRANCH   4   8
BRANCH   1  20
ATOM     20  O   UNL     1       0.186  11.069  18.572  0.00  0.00    +0.000 OA
BRANCH  20  25
ATOM     21  C   UNL     1      -3.472  11.596  18.534  0.00  0.00    +0.000 A 
ATOM     22  C   UNL     1      -3.840  10.530  17.712  0.00  0.00    +0.000 A 
ATOM     23  C   UNL     1      -2.866   9.734  17.100  0.00  0.00    +0.000 A 
ATOM     24  C   UNL     1      -1.517   9.955  17.372  0.00  0.00    +0.000 A 
ATOM     25  C   UNL     1      -1.150  10.978  18.242  0.00  0.00    +0.000 A 
ATOM     26  C   UNL     1      -2.120  11.848  18.753  0.00  0.00    +0.000 A 
BRANCH  21  28
ATOM     27  C   UNL     1      -4.257  12.816  20.412  0.00  0.00    +0.000 C 
ATOM     28  O   UNL     1      -4.505  12.275  19.119  0.00  0.00    +0.000 OA
ENDBRANCH  21  28
ENDBRANCH  20  25
ENDBRANCH   1  20
TORSDOF 5
ENDMDL
MODEL 6
REMARK VINA RESULT:      -8.2      1.088      1.688
REMARK  Name = 
REMARK  6 active torsions:
REMARK  status: ('A' for Active; 'I' for Inactive)
REMARK    1  A    between atoms: C_1  and  O_2
REMARK    2  A    between atoms: O_2  and  C_3
REMARK    3  A    between atoms: C_7  and  O_8
REMARK    4  A    between atoms: O_8  and  C_9
REMARK    5  A    between atoms: C_12  and  N_13
REMARK    6  A    between atoms: N_13  and  C_14
REMARK                            x       y       z     vdW  Elec       q    Type
REMARK                         _______ _______ _______ _____ _____    ______ ____
ROOT
ATOM      1  C   UNL     1       0.760  10.032  18.978  0.00  0.00    +0.000 A 
ATOM      2  C   UNL     1       1.589   9.316  18.101  0.00  0.00    +0.000 A 
ATOM      3  C   UNL     1       2.180   8.116  18.500  0.00  0.00    +0.000 A 
ATOM      4  C   UNL     1       2.030   7.654  19.811  0.00  0.00    +0.000 A 
ATOM      5  C   UNL     1       1.272   8.423  20.709  0.00  0.00    +0.000 A 
ATOM      6  C   UNL     1       0.634   9.595  20.298  0.00  0.00    +0.000 A 
ATOM      7 CL   UNL     1      -0.320  10.458  21.449  0.00  0.00    +0.000 Cl
ENDROOT
BRANCH   4   8
ATOM      8  N   UNL     1       2.655   6.463  20.217  0.00  0.00    +0.000 N 
ATOM      9  H   UNL     1       3.136   6.512  21.105  0.00  0.00    +0.000 HD
BRANCH   8  10
ATOM     10  C   UNL     1       2.215   5.167  19.919  0.00  0.00    +0.000 A 
ATOM     11  N   UNL     1       1.274   4.556  20.676  0.00  0.00    +0.000 NA
ATOM     12  C   UNL     1       0.903   3.303  20.384  0.00  0.00    +0.000 A 
ATOM     13  N   UNL     1       1.337   2.533  19.379  0.00  0.00    +0.000 NA
ATOM     14  C   UNL     1       2.257   3.147  18.607  0.00  0.00    +0.000 A 
ATOM     15  C   UNL     1       2.905   2.672  17.444  0.00  0.00    +0.000 A 
ATOM     16  C   UNL     1       3.748   3.671  17.003  0.00  0.00    +0.000 A 
ATOM     17  N   UNL     1       3.631   4.730  17.866  0.00  0.00    +0.000 N 
ATOM     18  C   UNL     1       2.722   4.431  18.855  0.00  0.00    +0.000 A 
ATOM     19  H   UNL     1       4.104   5.618  17.771  0.00  0.00    +0.000 HD
ENDBRANCH   8  10
ENDBRANCH   4   8
BRANCH   1  20
ATOM     20  O   UNL     1       0.069  11.166  18.594  0.00  0.00    +0.000 OA
BRANCH  20  25
ATOM     21  C   UNL     1      -3.601  11.588  18.458  0.00  0.00    +0.000 A 
ATOM     22  C   UNL     1      -3.917  10.501  17.642  0.00  0.00    +0.000 A 
ATOM     23  C   UNL     1      -2.907   9.725  17.066  0.00  0.00    +0.000 A 
ATOM     24  C   UNL     1      -1.572   9.988  17.368  0.00  0.00    +0.000 A 
ATOM     25  C   UNL     1      -1.256  11.033  18.233  0.00  0.00    +0.000 A 
ATOM     26  C   UNL     1      -2.263  11.882  18.708  0.00  0.00    +0.000 A 
BRANCH  21  28
ATOM     27  C   UNL     1      -5.925  12.060  18.367  0.00  0.00    +0.000 C 
ATOM     28  O   UNL     1      -4.667  12.244  19.008  0.00  0.00    +0.000 OA
ENDBRANCH  21  28
ENDBRANCH  20  25
ENDBRANCH   1  20
TORSDOF 5
ENDMDL
MODEL 7
REMARK VINA RESULT:      -8.1      3.812      7.871
REMARK  Name = 
REMARK  6 active torsions:
REMARK  status: ('A' for Active; 'I' for Inactive)
REMARK    1  A    between atoms: C_1  and  O_2
REMARK    2  A    between atoms: O_2  and  C_3
REMARK    3  A    between atoms: C_7  and  O_8
REMARK    4  A    between atoms: O_8  and  C_9
REMARK    5  A    between atoms: C_12  and  N_13
REMARK    6  A    between atoms: N_13  and  C_14
REMARK                            x       y       z     vdW  Elec       q    Type
REMARK                         _______ _______ _______ _____ _____    ______ ____
ROOT
ATOM      1  C   UNL     1       2.080   8.042  19.220  0.00  0.00    +0.000 A 
ATOM      2  C   UNL     1       2.139   8.645  17.955  0.00  0.00    +0.000 A 
ATOM      3  C   UNL     1       1.461   9.839  17.704  0.00  0.00    +0.000 A 
ATOM      4  C   UNL     1       0.639  10.406  18.682  0.00  0.00    +0.000 A 
ATOM      5  C   UNL     1       0.514   9.747  19.916  0.00  0.00    +0.000 A 
ATOM      6  C   UNL     1       1.233   8.583  20.189  0.00  0.00    +0.000 A 
ATOM      7 CL   UNL     1       1.064   7.859  21.748  0.00  0.00    +0.000 Cl
ENDROOT
BRANCH   4   8
ATOM      8  N   UNL     1      -0.069  11.591  18.412  0.00  0.00    +0.000 N 
ATOM      9  H   UNL     1       0.334  12.177  17.695  0.00  0.00    +0.000 HD
BRANCH   8  10
ATOM     10  C   UNL     1      -1.456  11.756  18.521  0.00  0.00    +0.000 A 
ATOM     11  N   UNL     1      -2.014  12.261  19.645  0.00  0.00    +0.000 NA
ATOM     12  C   UNL     1      -3.346  12.372  19.729  0.00  0.00    +0.000 A 
ATOM     13  N   UNL     1      -4.254  12.059  18.797  0.00  0.00    +0.000 NA
ATOM     14  C   UNL     1      -3.700  11.578  17.664  0.00  0.00    +0.000 A 
ATOM     15  C   UNL     1      -4.329  11.186  16.462  0.00  0.00    +0.000 A 
ATOM     16  C   UNL     1      -3.340  10.781  15.591  0.00  0.00    +0.000 A 
ATOM     17  N   UNL     1      -2.135  10.912  16.232  0.00  0.00    +0.000 N 
ATOM     18  C   UNL     1      -2.334  11.401  17.504  0.00  0.00    +0.000 A 
ATOM     19  H   UNL     1      -1.231  10.725  15.824  0.00  0.00    +0.000 HD
ENDBRANCH   8  10
ENDBRANCH   4   8
BRANCH   1  20
ATOM     20  O   UNL     1       2.819   6.919  19.547  0.00  0.00    +0.000 OA
BRANCH  20  25
ATOM     21  C   UNL     1       1.470   3.488  19.806  0.00  0.00    +0.000 A 
ATOM     22  C   UNL     1       1.546   3.119  18.462  0.00  0.00    +0.000 A 
ATOM     23  C   UNL     1       1.933   4.047  17.490  0.00  0.00    +0.000 A 
ATOM     24  C   UNL     1       2.321   5.331  17.871  0.00  0.00    +0.000 A 
ATOM     25  C   UNL     1       2.307   5.682  19.218  0.00  0.00    +0.000 A 
ATOM     26  C   UNL     1       1.802   4.790  20.172  0.00  0.00    +0.000 A 
BRANCH  21  28
ATOM     27  C   UNL     1       1.671   2.577  21.988  0.00  0.00    +0.000 C 
ATOM     28  O   UNL     1       1.130   2.487  20.675  0.00  0.00    +0.000 OA
ENDBRANCH  21  28
ENDBRANCH  20  25
ENDBRANCH   1  20
TORSDOF 5
ENDMDL
MODEL 8
REMARK VINA RESULT:      -8.0      1.398      2.046
REMARK  Name = 
REMARK  6 active torsions:
REMARK  status: ('A' for Active; 'I' for Inactive)
REMARK    1  A    between atoms: C_1  and  O_2
REMARK    2  A    between atoms: O_2  and  C_3
REMARK    3  A    between atoms: C_7  and  O_8
REMARK    4  A    between atoms: O_8  and  C_9
REMARK    5  A    between atoms: C_12  and  N_13
REMARK    6  A    between atoms: N_13  and  C_14
REMARK                            x       y       z     vdW  Elec       q    Type
REMARK                         _______ _______ _______ _____ _____    ______ ____
ROOT
ATOM      1  C   UNL     1       0.769  10.008  19.179  0.00  0.00    +0.000 A 
ATOM      2  C   UNL     1       1.586   9.433  18.195  0.00  0.00    +0.000 A 
ATOM      3  C   UNL     1       2.215   8.207  18.420  0.00  0.00    +0.000 A 
ATOM      4  C   UNL     1       2.114   7.576  19.663  0.00  0.00    +0.000 A 
ATOM      5  C   UNL     1       1.367   8.204  20.673  0.00  0.00    +0.000 A 
ATOM      6  C   UNL     1       0.692   9.402  20.434  0.00  0.00    +0.000 A 
ATOM      7 CL   UNL     1      -0.246  10.086  21.712  0.00  0.00    +0.000 Cl
ENDROOT
BRANCH   4   8
ATOM      8  N   UNL     1       2.777   6.359  19.895  0.00  0.00    +0.000 N 
ATOM      9  H   UNL     1       2.858   6.093  20.867  0.00  0.00    +0.000 HD
BRANCH   8  10
ATOM     10  C   UNL     1       2.777   5.252  19.037  0.00  0.00    +0.000 A 
ATOM     11  N   UNL     1       1.747   4.375  19.027  0.00  0.00    +0.000 NA
ATOM     12  C   UNL     1       1.795   3.308  18.220  0.00  0.00    +0.000 A 
ATOM     13  N   UNL     1       2.761   2.978  17.354  0.00  0.00    +0.000 NA
ATOM     14  C   UNL     1       3.779   3.864  17.342  0.00  0.00    +0.000 A 
ATOM     15  C   UNL     1       4.942   3.874  16.539  0.00  0.00    +0.000 A 
ATOM     16  C   UNL     1       5.673   4.992  16.885  0.00  0.00    +0.000 A 
ATOM     17  N   UNL     1       4.989   5.652  17.873  0.00  0.00    +0.000 N 
ATOM     18  C   UNL     1       3.825   4.979  18.167  0.00  0.00    +0.000 A 
ATOM     19  H   UNL     1       5.269   6.527  18.294  0.00  0.00    +0.000 HD
ENDBRANCH   8  10
ENDBRANCH   4   8
BRANCH   1  20
ATOM     20  O   UNL     1       0.041  11.165  18.963  0.00  0.00    +0.000 OA
BRANCH  20  25
ATOM     21  C   UNL     1      -3.597  11.581  18.463  0.00  0.00    +0.000 A 
ATOM     22  C   UNL     1      -3.815  10.542  17.557  0.00  0.00    +0.000 A 
ATOM     23  C   UNL     1      -2.742   9.804  17.048  0.00  0.00    +0.000 A 
ATOM     24  C   UNL     1      -1.449  10.054  17.504  0.00  0.00    +0.000 A 
ATOM     25  C   UNL     1      -1.236  11.047  18.456  0.00  0.00    +0.000 A 
ATOM     26  C   UNL     1      -2.296  11.864  18.869  0.00  0.00    +0.000 A 
BRANCH  21  28
ATOM     27  C   UNL     1      -5.773  12.405  17.995  0.00  0.00    +0.000 C 
ATOM     28  O   UNL     1      -4.722  12.200  18.933  0.00  0.00    +0.000 OA
ENDBRANCH  21  28
ENDBRANCH  20  25
ENDBRANCH   1  20
TORSDOF 5
ENDMDL
MODEL 9
REMARK VINA RESULT:      -8.0      1.348      2.424
REMARK  Name = 
REMARK  6 active torsions:
REMARK  status: ('A' for Active; 'I' for Inactive)
REMARK    1  A    between atoms: C_1  and  O_2
REMARK    2  A    between atoms: O_2  and  C_3
REMARK    3  A    between atoms: C_7  and  O_8
REMARK    4  A    between atoms: O_8  and  C_9
REMARK    5  A    between atoms: C_12  and  N_13
REMARK    6  A    between atoms: N_13  and  C_14
REMARK                            x       y       z     vdW  Elec       q    Type
REMARK                         _______ _______ _______ _____ _____    ______ ____
ROOT
ATOM      1  C   UNL     1       0.861  10.023  18.966  0.00  0.00    +0.000 A 
ATOM      2  C   UNL     1       1.683   9.681  17.883  0.00  0.00    +0.000 A 
ATOM      3  C   UNL     1       2.418   8.494  17.893  0.00  0.00    +0.000 A 
ATOM      4  C   UNL     1       2.417   7.670  19.023  0.00  0.00    +0.000 A 
ATOM      5  C   UNL     1       1.661   8.065  20.138  0.00  0.00    +0.000 A 
ATOM      6  C   UNL     1       0.883   9.224  20.111  0.00  0.00    +0.000 A 
ATOM      7 CL   UNL     1      -0.057   9.615  21.505  0.00  0.00    +0.000 Cl
ENDROOT
BRANCH   4   8
ATOM      8  N   UNL     1       3.185   6.493  19.041  0.00  0.00    +0.000 N 
ATOM      9  H   UNL     1       3.991   6.516  19.651  0.00  0.00    +0.000 HD
BRANCH   8  10
ATOM     10  C   UNL     1       2.694   5.195  18.852  0.00  0.00    +0.000 A 
ATOM     11  N   UNL     1       2.516   4.688  17.611  0.00  0.00    +0.000 NA
ATOM     12  C   UNL     1       2.011   3.456  17.466  0.00  0.00    +0.000 A 
ATOM     13  N   UNL     1       1.659   2.597  18.430  0.00  0.00    +0.000 NA
ATOM     14  C   UNL     1       1.859   3.089  19.670  0.00  0.00    +0.000 A 
ATOM     15  C   UNL     1       1.648   2.465  20.921  0.00  0.00    +0.000 A 
ATOM     16  C   UNL     1       2.014   3.366  21.899  0.00  0.00    +0.000 A 
ATOM     17  N   UNL     1       2.433   4.514  21.277  0.00  0.00    +0.000 N 
ATOM     18  C   UNL     1       2.348   4.365  19.911  0.00  0.00    +0.000 A 
ATOM     19  H   UNL     1       2.796   5.334  21.743  0.00  0.00    +0.000 HD
ENDBRANCH   8  10
ENDBRANCH   4   8
BRANCH   1  20
ATOM     20  O   UNL     1       0.034  11.132  18.956  0.00  0.00    +0.000 OA
BRANCH  20  25
ATOM     21  C   UNL     1      -3.601  11.492  18.393  0.00  0.00    +0.000 A 
ATOM     22  C   UNL     1      -3.785  10.456  17.476  0.00  0.00    +0.000 A 
ATOM     23  C   UNL     1      -2.691   9.740  16.980  0.00  0.00    +0.000 A 
ATOM     24  C   UNL     1      -1.411  10.008  17.462  0.00  0.00    +0.000 A 
ATOM     25  C   UNL     1      -1.231  10.997  18.425  0.00  0.00    +0.000 A 
ATOM     26  C   UNL     1      -2.312  11.793  18.825  0.00  0.00    +0.000 A 
BRANCH  21  28
ATOM     27  C   UNL     1      -5.953  11.357  18.677  0.00  0.00    +0.000 C 
ATOM     28  O   UNL     1      -4.744  12.089  18.847  0.00  0.00    +0.000 OA
ENDBRANCH  21  28
ENDBRANCH  20  25
ENDBRANCH   1  20
TORSDOF 5
ENDMDL
