MODEL 1
REMARK VINA RESULT:      -6.9      0.000      0.000
REMARK  Name = 
REMARK  8 active torsions:
REMARK  status: ('A' for Active; 'I' for Inactive)
REMARK    1  A    between atoms: C_1  and  C_2
REMARK    2  A    between atoms: C_2  and  O_3
REMARK    3  A    between atoms: O_3  and  C_4
REMARK    4  A    between atoms: C_4  and  C_6
REMARK    5  A    between atoms: C_7  and  C_8
REMARK    6  A    between atoms: C_11  and  O_12
REMARK    7  A    between atoms: O_12  and  C_13
REMARK    8  A    between atoms: C_19  and  N_20
REMARK                            x       y       z     vdW  Elec       q    Type
REMARK                         _______ _______ _______ _____ _____    ______ ____
ROOT
ATOM      1  C   UNL     1       3.102   4.389  18.180  0.00  0.00    +0.000 A 
ATOM      2  C   UNL     1       3.546   5.756  18.424  0.00  0.00    +0.000 A 
ATOM      3  C   UNL     1       4.926   5.837  18.401  0.00  0.00    +0.000 A 
ATOM      4  S   UNL     1       5.677   4.340  18.105  0.00  0.00    +0.000 S 
ATOM      5  C   UNL     1       4.178   3.527  18.014  0.00  0.00    +0.000 A 
ENDROOT
BRANCH   2   6
ATOM      6  C   UNL     1       2.737   6.950  18.718  0.00  0.00    +0.000 A 
ATOM      7  C   UNL     1       2.491   7.921  17.735  0.00  0.00    +0.000 A 
ATOM      8  C   UNL     1       1.727   9.060  18.026  0.00  0.00    +0.000 A 
ATOM      9  C   UNL     1       1.176   9.247  19.295  0.00  0.00    +0.000 A 
ATOM     10  C   UNL     1       1.420   8.280  20.270  0.00  0.00    +0.000 A 
ATOM     11  F   UNL     1       0.917   8.387  21.509  0.00  0.00    +0.000 F 
ATOM     12  C   UNL     1       2.207   7.161  19.995  0.00  0.00    +0.000 A 
BRANCH   9  13
ATOM     13  O   UNL     1       0.446  10.396  19.430  0.00  0.00    +0.000 OA
ATOM     14  C   UNL     1      -0.708  10.527  18.608  0.00  0.00    +0.000 C 
ENDBRANCH   9  13
ENDBRANCH   2   6
BRANCH   5  15
ATOM     15  N   UNL     1       4.166   2.196  17.780  0.00  0.00    +0.000 N 
ATOM     16  H   UNL     1       4.846   1.614  18.263  0.00  0.00    +0.000 HD
ATOM     17  H   UNL     1       3.277   1.725  17.615  0.00  0.00    +0.000 HD
ENDBRANCH   5  15
BRANCH   1  18
ATOM     18  C   UNL     1       1.709   3.954  18.084  0.00  0.00    +0.000 C 
ATOM     19  O   UNL     1       0.931   4.367  17.230  0.00  0.00    +0.000 OA
BRANCH  18  20
ATOM     20  O   UNL     1       1.346   3.101  19.090  0.00  0.00    +0.000 OA
BRANCH  20  22
ATOM     21  C   UNL     1       1.885   3.223  21.453  0.00  0.00    +0.000 C 
ATOM     22  C   UNL     1       0.991   3.727  20.333  0.00  0.00    +0.000 C 
ENDBRANCH  20  22
ENDBRANCH  18  20
ENDBRANCH   1  18
TORSDOF 6
ENDMDL
MODEL 2
REMARK VINA RESULT:      -6.8      1.054      1.503
REMARK  Name = 
REMARK  8 active torsions:
REMARK  status: ('A' for Active; 'I' for Inactive)
REMARK    1  A    between atoms: C_1  and  C_2
REMARK    2  A    between atoms: C_2  and  O_3
REMARK    3  A    between atoms: O_3  and  C_4
REMARK    4  A    between atoms: C_4  and  C_6
REMARK    5  A    between atoms: C_7  and  C_8
REMARK    6  A    between atoms: C_11  and  O_12
REMARK    7  A    between atoms: O_12  and  C_13
REMARK    8  A    between atoms: C_19  and  N_20
REMARK                            x       y       z     vdW  Elec       q    Type
REMARK                         _______ _______ _______ _____ _____    ______ ____
ROOT
ATOM      1  C   UNL     1       3.100   4.295  18.272  0.00  0.00    +0.000 A 
ATOM      2  C   UNL     1       3.564   5.637  18.604  0.00  0.00    +0.000 A 
ATOM      3  C   UNL     1       4.945   5.688  18.635  0.00  0.00    +0.000 A 
ATOM      4  S   UNL     1       5.675   4.192  18.286  0.00  0.00    +0.000 S 
ATOM      5  C   UNL     1       4.164   3.418  18.100  0.00  0.00    +0.000 A 
ENDROOT
BRANCH   2   6
ATOM      6  C   UNL     1       2.770   6.832  18.933  0.00  0.00    +0.000 A 
ATOM      7  C   UNL     1       2.171   6.983  20.192  0.00  0.00    +0.000 A 
ATOM      8  C   UNL     1       1.409   8.120  20.494  0.00  0.00    +0.000 A 
ATOM      9  C   UNL     1       1.242   9.140  19.555  0.00  0.00    +0.000 A 
ATOM     10  C   UNL     1       1.840   8.989  18.304  0.00  0.00    +0.000 A 
ATOM     11  F   UNL     1       1.732   9.930  17.354  0.00  0.00    +0.000 F 
ATOM     12  C   UNL     1       2.573   7.844  17.988  0.00  0.00    +0.000 A 
BRANCH   9  13
ATOM     13  O   UNL     1       0.485  10.192  19.991  0.00  0.00    +0.000 OA
ATOM     14  C   UNL     1      -0.829  10.305  19.459  0.00  0.00    +0.000 C 
ENDBRANCH   9  13
ENDBRANCH   2   6
BRANCH   5  15
ATOM     15  N   UNL     1       4.133   2.102  17.795  0.00  0.00    +0.000 N 
ATOM     16  H   UNL     1       4.587   1.793  16.939  0.00  0.00    +0.000 HD
ATOM     17  H   UNL     1       4.176   1.414  18.545  0.00  0.00    +0.000 HD
ENDBRANCH   5  15
BRANCH   1  18
ATOM     18  C   UNL     1       1.703   3.897  18.104  0.00  0.00    +0.000 C 
ATOM     19  O   UNL     1       0.972   4.356  17.234  0.00  0.00    +0.000 OA
BRANCH  18  20
ATOM     20  O   UNL     1       1.279   3.020  19.066  0.00  0.00    +0.000 OA
BRANCH  20  22
ATOM     21  C   UNL     1       1.790   3.085  21.437  0.00  0.00    +0.000 C 
ATOM     22  C   UNL     1       0.905   3.611  20.320  0.00  0.00    +0.000 C 
ENDBRANCH  20  22
ENDBRANCH  18  20
ENDBRANCH   1  18
TORSDOF 6
ENDMDL
MODEL 3
REMARK VINA RESULT:      -6.7      4.184      5.612
REMARK  Name = 
REMARK  8 active torsions:
REMARK  status: ('A' for Active; 'I' for Inactive)
REMARK    1  A    between atoms: C_1  and  C_2
REMARK    2  A    between atoms: C_2  and  O_3
REMARK    3  A    between atoms: O_3  and  C_4
REMARK    4  A    between atoms: C_4  and  C_6
REMARK    5  A    between atoms: C_7  and  C_8
REMARK    6  A    between atoms: C_11  and  O_12
REMARK    7  A    between atoms: O_12  and  C_13
REMARK    8  A    between atoms: C_19  and  N_20
REMARK                            x       y       z     vdW  Elec       q    Type
REMARK                         _______ _______ _______ _____ _____    ______ ____
ROOT
ATOM      1  C   UNL     1       3.447   3.647  20.177  0.00  0.00    +0.000 A 
ATOM      2  C   UNL     1       3.737   4.827  19.371  0.00  0.00    +0.000 A 
ATOM      3  C   UNL     1       2.888   5.867  19.698  0.00  0.00    +0.000 A 
ATOM      4  S   UNL     1       1.776   5.462  20.919  0.00  0.00    +0.000 S 
ATOM      5  C   UNL     1       2.382   3.871  21.040  0.00  0.00    +0.000 A 
ENDROOT
BRANCH   2   6
ATOM      6  C   UNL     1       4.730   4.988  18.297  0.00  0.00    +0.000 A 
ATOM      7  C   UNL     1       4.387   5.586  17.075  0.00  0.00    +0.000 A 
ATOM      8  C   UNL     1       5.337   5.728  16.054  0.00  0.00    +0.000 A 
ATOM      9  C   UNL     1       6.651   5.296  16.233  0.00  0.00    +0.000 A 
ATOM     10  C   UNL     1       6.991   4.704  17.450  0.00  0.00    +0.000 A 
ATOM     11  F   UNL     1       8.237   4.272  17.699  0.00  0.00    +0.000 F 
ATOM     12  C   UNL     1       6.042   4.531  18.457  0.00  0.00    +0.000 A 
BRANCH   9  13
ATOM     13  O   UNL     1       7.469   5.510  15.158  0.00  0.00    +0.000 OA
ATOM     14  C   UNL     1       7.148   4.819  13.955  0.00  0.00    +0.000 C 
ENDBRANCH   9  13
ENDBRANCH   2   6
BRANCH   5  15
ATOM     15  N   UNL     1       1.822   3.020  21.930  0.00  0.00    +0.000 N 
ATOM     16  H   UNL     1       1.161   2.329  21.586  0.00  0.00    +0.000 HD
ATOM     17  H   UNL     1       2.372   2.693  22.723  0.00  0.00    +0.000 HD
ENDBRANCH   5  15
BRANCH   1  18
ATOM     18  C   UNL     1       4.184   2.385  20.130  0.00  0.00    +0.000 C 
ATOM     19  O   UNL     1       4.918   1.999  21.033  0.00  0.00    +0.000 OA
BRANCH  18  20
ATOM     20  O   UNL     1       4.030   1.721  18.943  0.00  0.00    +0.000 OA
BRANCH  20  22
ATOM     21  C   UNL     1       2.529   2.321  17.134  0.00  0.00    +0.000 C 
ATOM     22  C   UNL     1       2.679   1.610  18.468  0.00  0.00    +0.000 C 
ENDBRANCH  20  22
ENDBRANCH  18  20
ENDBRANCH   1  18
TORSDOF 6
ENDMDL
MODEL 4
REMARK VINA RESULT:      -6.6      3.345      5.062
REMARK  Name = 
REMARK  8 active torsions:
REMARK  status: ('A' for Active; 'I' for Inactive)
REMARK    1  A    between atoms: C_1  and  C_2
REMARK    2  A    between atoms: C_2  and  O_3
REMARK    3  A    between atoms: O_3  and  C_4
REMARK    4  A    between atoms: C_4  and  C_6
REMARK    5  A    between atoms: C_7  and  C_8
REMARK    6  A    between atoms: C_11  and  O_12
REMARK    7  A    between atoms: O_12  and  C_13
REMARK    8  A    between atoms: C_19  and  N_20
REMARK                            x       y       z     vdW  Elec       q    Type
REMARK                         _______ _______ _______ _____ _____    ______ ____
ROOT
ATOM      1  C   UNL     1       2.535   4.346  19.165  0.00  0.00    +0.000 A 
ATOM      2  C   UNL     1       3.761   4.095  18.417  0.00  0.00    +0.000 A 
ATOM      3  C   UNL     1       3.853   2.764  18.055  0.00  0.00    +0.000 A 
ATOM      4  S   UNL     1       2.531   1.835  18.587  0.00  0.00    +0.000 S 
ATOM      5  C   UNL     1       1.797   3.182  19.338  0.00  0.00    +0.000 A 
ENDROOT
BRANCH   2   6
ATOM      6  C   UNL     1       4.846   5.032  18.081  0.00  0.00    +0.000 A 
ATOM      7  C   UNL     1       4.734   5.914  16.996  0.00  0.00    +0.000 A 
ATOM      8  C   UNL     1       5.775   6.796  16.678  0.00  0.00    +0.000 A 
ATOM      9  C   UNL     1       6.941   6.834  17.443  0.00  0.00    +0.000 A 
ATOM     10  C   UNL     1       7.050   5.958  18.524  0.00  0.00    +0.000 A 
ATOM     11  F   UNL     1       8.136   5.942  19.311  0.00  0.00    +0.000 F 
ATOM     12  C   UNL     1       6.029   5.054  18.825  0.00  0.00    +0.000 A 
BRANCH   9  13
ATOM     13  O   UNL     1       7.865   7.751  17.024  0.00  0.00    +0.000 OA
ATOM     14  C   UNL     1       8.074   8.884  17.859  0.00  0.00    +0.000 C 
ENDBRANCH   9  13
ENDBRANCH   2   6
BRANCH   5  15
ATOM     15  N   UNL     1       0.619   3.016  19.979  0.00  0.00    +0.000 N 
ATOM     16  H   UNL     1       0.150   3.839  20.349  0.00  0.00    +0.000 HD
ATOM     17  H   UNL     1      -0.025   2.293  19.662  0.00  0.00    +0.000 HD
ENDBRANCH   5  15
BRANCH   1  18
ATOM     18  C   UNL     1       2.094   5.651  19.658  0.00  0.00    +0.000 C 
ATOM     19  O   UNL     1       1.842   5.876  20.836  0.00  0.00    +0.000 OA
BRANCH  18  20
ATOM     20  O   UNL     1       1.917   6.567  18.656  0.00  0.00    +0.000 OA
BRANCH  20  22
ATOM     21  C   UNL     1       2.161   8.809  17.761  0.00  0.00    +0.000 C 
ATOM     22  C   UNL     1       2.253   7.923  18.992  0.00  0.00    +0.000 C 
ENDBRANCH  20  22
ENDBRANCH  18  20
ENDBRANCH   1  18
TORSDOF 6
ENDMDL
MODEL 5
REMARK VINA RESULT:      -6.6      3.421      5.651
REMARK  Name = 
REMARK  8 active torsions:
REMARK  status: ('A' for Active; 'I' for Inactive)
REMARK    1  A    between atoms: C_1  and  C_2
REMARK    2  A    between atoms: C_2  and  O_3
REMARK    3  A    between atoms: O_3  and  C_4
REMARK    4  A    between atoms: C_4  and  C_6
REMARK    5  A    between atoms: C_7  and  C_8
REMARK    6  A    between atoms: C_11  and  O_12
REMARK    7  A    between atoms: O_12  and  C_13
REMARK    8  A    between atoms: C_19  and  N_20
REMARK                            x       y       z     vdW  Elec       q    Type
REMARK                         _______ _______ _______ _____ _____    ______ ____
ROOT
ATOM      1  C   UNL     1       2.614   3.998  18.859  0.00  0.00    +0.000 A 
ATOM      2  C   UNL     1       4.033   3.674  18.775  0.00  0.00    +0.000 A 
ATOM      3  C   UNL     1       4.418   2.868  19.830  0.00  0.00    +0.000 A 
ATOM      4  S   UNL     1       3.141   2.506  20.893  0.00  0.00    +0.000 S 
ATOM      5  C   UNL     1       2.030   3.433  19.986  0.00  0.00    +0.000 A 
ENDROOT
BRANCH   2   6
ATOM      6  C   UNL     1       5.025   4.126  17.786  0.00  0.00    +0.000 A 
ATOM      7  C   UNL     1       5.030   3.620  16.478  0.00  0.00    +0.000 A 
ATOM      8  C   UNL     1       5.984   4.049  15.545  0.00  0.00    +0.000 A 
ATOM      9  C   UNL     1       6.941   5.005  15.888  0.00  0.00    +0.000 A 
ATOM     10  C   UNL     1       6.934   5.510  17.189  0.00  0.00    +0.000 A 
ATOM     11  F   UNL     1       7.817   6.436  17.590  0.00  0.00    +0.000 F 
ATOM     12  C   UNL     1       6.006   5.061  18.131  0.00  0.00    +0.000 A 
BRANCH   9  13
ATOM     13  O   UNL     1       7.798   5.337  14.875  0.00  0.00    +0.000 OA
ATOM     14  C   UNL     1       7.397   4.996  13.553  0.00  0.00    +0.000 C 
ENDBRANCH   9  13
ENDBRANCH   2   6
BRANCH   5  15
ATOM     15  N   UNL     1       0.747   3.516  20.404  0.00  0.00    +0.000 N 
ATOM     16  H   UNL     1       0.015   3.597  19.704  0.00  0.00    +0.000 HD
ATOM     17  H   UNL     1       0.457   2.999  21.233  0.00  0.00    +0.000 HD
ENDBRANCH   5  15
BRANCH   1  18
ATOM     18  C   UNL     1       1.864   4.787  17.882  0.00  0.00    +0.000 C 
ATOM     19  O   UNL     1       0.883   4.361  17.283  0.00  0.00    +0.000 OA
BRANCH  18  20
ATOM     20  O   UNL     1       2.417   6.017  17.653  0.00  0.00    +0.000 OA
BRANCH  20  22
ATOM     21  C   UNL     1       2.263   8.364  18.250  0.00  0.00    +0.000 C 
ATOM     22  C   UNL     1       2.363   6.935  18.756  0.00  0.00    +0.000 C 
ENDBRANCH  20  22
ENDBRANCH  18  20
ENDBRANCH   1  18
TORSDOF 6
ENDMDL
MODEL 6
REMARK VINA RESULT:      -6.6      2.366      3.590
REMARK  Name = 
REMARK  8 active torsions:
REMARK  status: ('A' for Active; 'I' for Inactive)
REMARK    1  A    between atoms: C_1  and  C_2
REMARK    2  A    between atoms: C_2  and  O_3
REMARK    3  A    between atoms: O_3  and  C_4
REMARK    4  A    between atoms: C_4  and  C_6
REMARK    5  A    between atoms: C_7  and  C_8
REMARK    6  A    between atoms: C_11  and  O_12
REMARK    7  A    between atoms: O_12  and  C_13
REMARK    8  A    between atoms: C_19  and  N_20
REMARK                            x       y       z     vdW  Elec       q    Type
REMARK                         _______ _______ _______ _____ _____    ______ ____
ROOT
ATOM      1  C   UNL     1       4.421   5.387  17.149  0.00  0.00    +0.000 A 
ATOM      2  C   UNL     1       3.273   5.532  18.036  0.00  0.00    +0.000 A 
ATOM      3  C   UNL     1       2.774   4.296  18.401  0.00  0.00    +0.000 A 
ATOM      4  S   UNL     1       3.634   2.999  17.714  0.00  0.00    +0.000 S 
ATOM      5  C   UNL     1       4.695   4.051  16.887  0.00  0.00    +0.000 A 
ENDROOT
BRANCH   2   6
ATOM      6  C   UNL     1       2.616   6.765  18.500  0.00  0.00    +0.000 A 
ATOM      7  C   UNL     1       2.335   7.816  17.615  0.00  0.00    +0.000 A 
ATOM      8  C   UNL     1       1.718   8.990  18.068  0.00  0.00    +0.000 A 
ATOM      9  C   UNL     1       1.349   9.135  19.406  0.00  0.00    +0.000 A 
ATOM     10  C   UNL     1       1.627   8.087  20.285  0.00  0.00    +0.000 A 
ATOM     11  F   UNL     1       1.294   8.150  21.582  0.00  0.00    +0.000 F 
ATOM     12  C   UNL     1       2.271   6.930  19.845  0.00  0.00    +0.000 A 
BRANCH   9  13
ATOM     13  O   UNL     1       0.746  10.327  19.701  0.00  0.00    +0.000 OA
ATOM     14  C   UNL     1       1.183  11.469  18.974  0.00  0.00    +0.000 C 
ENDBRANCH   9  13
ENDBRANCH   2   6
BRANCH   5  15
ATOM     15  N   UNL     1       5.669   3.525  16.110  0.00  0.00    +0.000 N 
ATOM     16  H   UNL     1       6.192   4.149  15.503  0.00  0.00    +0.000 HD
ATOM     17  H   UNL     1       6.223   2.746  16.463  0.00  0.00    +0.000 HD
ENDBRANCH   5  15
BRANCH   1  18
ATOM     18  C   UNL     1       5.224   6.486  16.613  0.00  0.00    +0.000 C 
ATOM     19  O   UNL     1       5.299   6.744  15.417  0.00  0.00    +0.000 OA
BRANCH  18  20
ATOM     20  O   UNL     1       5.940   7.143  17.577  0.00  0.00    +0.000 OA
BRANCH  20  22
ATOM     21  C   UNL     1       8.030   8.367  17.718  0.00  0.00    +0.000 C 
ATOM     22  C   UNL     1       7.368   7.021  17.477  0.00  0.00    +0.000 C 
ENDBRANCH  20  22
ENDBRANCH  18  20
ENDBRANCH   1  18
TORSDOF 6
ENDMDL
MODEL 7
REMARK VINA RESULT:      -6.6      3.653      5.896
REMARK  Name = 
REMARK  8 active torsions:
REMARK  status: ('A' for Active; 'I' for Inactive)
REMARK    1  A    between atoms: C_1  and  C_2
REMARK    2  A    between atoms: C_2  and  O_3
REMARK    3  A    between atoms: O_3  and  C_4
REMARK    4  A    between atoms: C_4  and  C_6
REMARK    5  A    between atoms: C_7  and  C_8
REMARK    6  A    between atoms: C_11  and  O_12
REMARK    7  A    between atoms: O_12  and  C_13
REMARK    8  A    between atoms: C_19  and  N_20
REMARK                            x       y       z     vdW  Elec       q    Type
REMARK                         _______ _______ _______ _____ _____    ______ ____
ROOT
ATOM      1  C   UNL     1       2.546   4.397  18.881  0.00  0.00    +0.000 A 
ATOM      2  C   UNL     1       3.436   3.630  18.018  0.00  0.00    +0.000 A 
ATOM      3  C   UNL     1       3.107   2.288  18.040  0.00  0.00    +0.000 A 
ATOM      4  S   UNL     1       1.786   1.941  19.054  0.00  0.00    +0.000 S 
ATOM      5  C   UNL     1       1.620   3.577  19.514  0.00  0.00    +0.000 A 
ENDROOT
BRANCH   2   6
ATOM      6  C   UNL     1       4.588   4.099  17.231  0.00  0.00    +0.000 A 
ATOM      7  C   UNL     1       4.563   4.086  15.829  0.00  0.00    +0.000 A 
ATOM      8  C   UNL     1       5.668   4.526  15.087  0.00  0.00    +0.000 A 
ATOM      9  C   UNL     1       6.813   5.006  15.724  0.00  0.00    +0.000 A 
ATOM     10  C   UNL     1       6.835   5.020  17.119  0.00  0.00    +0.000 A 
ATOM     11  F   UNL     1       7.897   5.475  17.801  0.00  0.00    +0.000 F 
ATOM     12  C   UNL     1       5.750   4.553  17.862  0.00  0.00    +0.000 A 
BRANCH   9  13
ATOM     13  O   UNL     1       7.805   5.411  14.875  0.00  0.00    +0.000 OA
ATOM     14  C   UNL     1       7.611   5.158  13.488  0.00  0.00    +0.000 C 
ENDBRANCH   9  13
ENDBRANCH   2   6
BRANCH   5  15
ATOM     15  N   UNL     1       0.646   3.919  20.387  0.00  0.00    +0.000 N 
ATOM     16  H   UNL     1      -0.232   3.408  20.355  0.00  0.00    +0.000 HD
ATOM     17  H   UNL     1       0.900   4.227  21.324  0.00  0.00    +0.000 HD
ENDBRANCH   5  15
BRANCH   1  18
ATOM     18  C   UNL     1       2.576   5.849  19.055  0.00  0.00    +0.000 C 
ATOM     19  O   UNL     1       2.631   6.395  20.151  0.00  0.00    +0.000 OA
BRANCH  18  20
ATOM     20  O   UNL     1       2.457   6.530  17.874  0.00  0.00    +0.000 OA
BRANCH  20  22
ATOM     21  C   UNL     1       2.022   8.916  17.796  0.00  0.00    +0.000 C 
ATOM     22  C   UNL     1       3.078   7.825  17.842  0.00  0.00    +0.000 C 
ENDBRANCH  20  22
ENDBRANCH  18  20
ENDBRANCH   1  18
TORSDOF 6
ENDMDL
MODEL 8
REMARK VINA RESULT:      -6.6      3.892      5.439
REMARK  Name = 
REMARK  8 active torsions:
REMARK  status: ('A' for Active; 'I' for Inactive)
REMARK    1  A    between atoms: C_1  and  C_2
REMARK    2  A    between atoms: C_2  and  O_3
REMARK    3  A    between atoms: O_3  and  C_4
REMARK    4  A    between atoms: C_4  and  C_6
REMARK    5  A    between atoms: C_7  and  C_8
REMARK    6  A    between atoms: C_11  and  O_12
REMARK    7  A    between atoms: O_12  and  C_13
REMARK    8  A    between atoms: C_19  and  N_20
REMARK                            x       y       z     vdW  Elec       q    Type
REMARK                         _______ _______ _______ _____ _____    ______ ____
ROOT
ATOM      1  C   UNL     1       2.508   4.041  18.856  0.00  0.00    +0.000 A 
ATOM      2  C   UNL     1       3.536   5.064  18.711  0.00  0.00    +0.000 A 
ATOM      3  C   UNL     1       3.321   6.106  19.594  0.00  0.00    +0.000 A 
ATOM      4  S   UNL     1       1.941   5.885  20.563  0.00  0.00    +0.000 S 
ATOM      5  C   UNL     1       1.573   4.392  19.821  0.00  0.00    +0.000 A 
ENDROOT
BRANCH   2   6
ATOM      6  C   UNL     1       4.660   5.116  17.762  0.00  0.00    +0.000 A 
ATOM      7  C   UNL     1       4.497   5.645  16.472  0.00  0.00    +0.000 A 
ATOM      8  C   UNL     1       5.570   5.682  15.571  0.00  0.00    +0.000 A 
ATOM      9  C   UNL     1       6.831   5.212  15.939  0.00  0.00    +0.000 A 
ATOM     10  C   UNL     1       6.992   4.688  17.223  0.00  0.00    +0.000 A 
ATOM     11  F   UNL     1       8.176   4.226  17.651  0.00  0.00    +0.000 F 
ATOM     12  C   UNL     1       5.919   4.619  18.113  0.00  0.00    +0.000 A 
BRANCH   9  13
ATOM     13  O   UNL     1       7.783   5.322  14.964  0.00  0.00    +0.000 OA
ATOM     14  C   UNL     1       7.399   4.956  13.643  0.00  0.00    +0.000 C 
ENDBRANCH   9  13
ENDBRANCH   2   6
BRANCH   5  15
ATOM     15  N   UNL     1       0.480   3.708  20.227  0.00  0.00    +0.000 N 
ATOM     16  H   UNL     1      -0.217   4.197  20.781  0.00  0.00    +0.000 HD
ATOM     17  H   UNL     1       0.083   2.994  19.618  0.00  0.00    +0.000 HD
ENDBRANCH   5  15
BRANCH   1  18
ATOM     18  C   UNL     1       2.457   2.779  18.117  0.00  0.00    +0.000 C 
ATOM     19  O   UNL     1       2.130   2.702  16.938  0.00  0.00    +0.000 OA
BRANCH  18  20
ATOM     20  O   UNL     1       2.735   1.692  18.900  0.00  0.00    +0.000 OA
BRANCH  20  22
ATOM     21  C   UNL     1       4.634   1.884  20.398  0.00  0.00    +0.000 C 
ATOM     22  C   UNL     1       4.129   1.382  19.057  0.00  0.00    +0.000 C 
ENDBRANCH  20  22
ENDBRANCH  18  20
ENDBRANCH   1  18
TORSDOF 6
ENDMDL
MODEL 9
REMARK VINA RESULT:      -6.5      2.608      3.735
REMARK  Name = 
REMARK  8 active torsions:
REMARK  status: ('A' for Active; 'I' for Inactive)
REMARK    1  A    between atoms: C_1  and  C_2
REMARK    2  A    between atoms: C_2  and  O_3
REMARK    3  A    between atoms: O_3  and  C_4
REMARK    4  A    between atoms: C_4  and  C_6
REMARK    5  A    between atoms: C_7  and  C_8
REMARK    6  A    between atoms: C_11  and  O_12
REMARK    7  A    between atoms: O_12  and  C_13
REMARK    8  A    between atoms: C_19  and  N_20
REMARK                            x       y       z     vdW  Elec       q    Type
REMARK                         _______ _______ _______ _____ _____    ______ ____
ROOT
ATOM      1  C   UNL     1       4.510   5.358  17.119  0.00  0.00    +0.000 A 
ATOM      2  C   UNL     1       3.421   5.452  18.083  0.00  0.00    +0.000 A 
ATOM      3  C   UNL     1       3.000   4.195  18.474  0.00  0.00    +0.000 A 
ATOM      4  S   UNL     1       3.865   2.938  17.722  0.00  0.00    +0.000 S 
ATOM      5  C   UNL     1       4.821   4.035  16.830  0.00  0.00    +0.000 A 
ENDROOT
BRANCH   2   6
ATOM      6  C   UNL     1       2.746   6.655  18.599  0.00  0.00    +0.000 A 
ATOM      7  C   UNL     1       2.316   6.731  19.932  0.00  0.00    +0.000 A 
ATOM      8  C   UNL     1       1.667   7.876  20.412  0.00  0.00    +0.000 A 
ATOM      9  C   UNL     1       1.449   8.977  19.582  0.00  0.00    +0.000 A 
ATOM     10  C   UNL     1       1.879   8.900  18.258  0.00  0.00    +0.000 A 
ATOM     11  F   UNL     1       1.712   9.921  17.403  0.00  0.00    +0.000 F 
ATOM     12  C   UNL     1       2.497   7.750  17.765  0.00  0.00    +0.000 A 
BRANCH   9  13
ATOM     13  O   UNL     1       0.815  10.026  20.189  0.00  0.00    +0.000 OA
ATOM     14  C   UNL     1       0.698   9.976  21.607  0.00  0.00    +0.000 C 
ENDBRANCH   9  13
ENDBRANCH   2   6
BRANCH   5  15
ATOM     15  N   UNL     1       5.760   3.553  15.986  0.00  0.00    +0.000 N 
ATOM     16  H   UNL     1       5.734   3.851  15.014  0.00  0.00    +0.000 HD
ATOM     17  H   UNL     1       6.704   3.384  16.331  0.00  0.00    +0.000 HD
ENDBRANCH   5  15
BRANCH   1  18
ATOM     18  C   UNL     1       5.227   6.492  16.535  0.00  0.00    +0.000 C 
ATOM     19  O   UNL     1       5.180   6.777  15.344  0.00  0.00    +0.000 OA
BRANCH  18  20
ATOM     20  O   UNL     1       6.014   7.148  17.441  0.00  0.00    +0.000 OA
BRANCH  20  22
ATOM     21  C   UNL     1       7.736   6.111  18.800  0.00  0.00    +0.000 C 
ATOM     22  C   UNL     1       7.394   6.750  17.465  0.00  0.00    +0.000 C 
ENDBRANCH  20  22
ENDBRANCH  18  20
ENDBRANCH   1  18
TORSDOF 6
ENDMDL
