MODEL 1
REMARK VINA RESULT:      -7.8      0.000      0.000
REMARK  Name = 
REMARK  7 active torsions:
REMARK  status: ('A' for Active; 'I' for Inactive)
REMARK    1  A    between atoms: C_2  and  CA_3
REMARK    2  A    between atoms: CA_3  and  CB_4
REMARK    3  A    between atoms: CA_3  and  N_10
REMARK    4  A    between atoms: CB_4  and  CG_5
REMARK    5  A    between atoms: N_10  and  C_11
REMARK    6  A    between atoms: C_11  and  C_12
REMARK    7  A    between atoms: C_22  and  C_24
REMARK                            x       y       z     vdW  Elec       q    Type
REMARK                         _______ _______ _______ _____ _____    ______ ____
ROOT
ATOM      1  C   UNK A   0       3.808   7.030  17.487  0.00  0.00    +0.000 C 
ATOM      2  C   UNK A   0       2.934   8.242  17.093  0.00  0.00    +0.000 C 
ATOM      3  C   UNK A   0       2.433   9.043  18.306  0.00  0.00    +0.000 C 
ATOM      4  C   UNK A   0       1.492  10.189  17.904  0.00  0.00    +0.000 C 
ATOM      5  C   UNK A   0       0.980  10.939  19.136  0.00  0.00    +0.000 C 
ATOM      6  C   UNK A   0       0.297  10.004  20.131  0.00  0.00    +0.000 C 
ATOM      7  C   UNK A   0       1.207   8.845  20.518  0.00  0.00    +0.000 C 
ATOM      8  C   UNK A   0       1.711   8.100  19.277  0.00  0.00    +0.000 C 
ATOM      9  C   UNK A   0       2.626   6.955  19.690  0.00  0.00    +0.000 C 
ATOM     10  N   UNK A   0       3.137   6.216  18.534  0.00  0.00    +0.000 N 
ATOM     11  C   UNK A   0       3.063   4.827  18.353  0.00  0.00    +0.000 C 
ATOM     12  O   UNK A   0       3.358   4.283  17.290  0.00  0.00    +0.000 OA
ENDROOT
BRANCH  11  13
ATOM     13  C   UNK A   0       2.580   3.936  19.449  0.00  0.00    +0.000 A 
ATOM     14  C   UNK A   0       1.193   3.788  19.619  0.00  0.00    +0.000 A 
ATOM     15  C   UNK A   0       0.692   3.019  20.672  0.00  0.00    +0.000 A 
ATOM     16  C   UNK A   0       1.574   2.415  21.559  0.00  0.00    +0.000 A 
ATOM     17  F   UNK A   0       1.096   1.724  22.602  0.00  0.00    +0.000 F 
ATOM     18  C   UNK A   0       2.948   2.505  21.374  0.00  0.00    +0.000 A 
ATOM     19  C   UNK A   0       3.447   3.220  20.285  0.00  0.00    +0.000 A 
ENDBRANCH  11  13
BRANCH   1  20
ATOM     20  C   UNK A   0       5.242   7.453  17.923  0.00  0.00    +0.000 C 
BRANCH  20  21
ATOM     21  N   HIS A   1       6.261   6.655  17.230  0.00  0.00    +0.000 NA
ATOM     22  H   HIS A   1       5.953   6.428  16.280  0.00  0.00    +0.000 HD
BRANCH  21  23
ATOM     23  CA  HIS A   1       6.713   5.430  17.921  0.00  0.00    +0.000 C 
BRANCH  23  25
ATOM     24  O   HIS A   1       7.535   5.537  20.214  0.00  0.00    +0.000 OA
ATOM     25  C   HIS A   1       7.651   5.887  19.036  0.00  0.00    +0.000 C 
ENDBRANCH  23  25
BRANCH  23  26
ATOM     26  CB  HIS A   1       7.478   4.432  17.038  0.00  0.00    +0.000 C 
BRANCH  26  27
ATOM     27  CG  HIS A   1       7.027   4.414  15.613  0.00  0.00    +0.000 A 
ATOM     28  CD2 HIS A   1       6.017   3.663  15.045  0.00  0.00    +0.000 A 
ATOM     29  NE2 HIS A   1       6.017   4.003  13.722  0.00  0.00    +0.000 N 
ATOM     30  CE1 HIS A   1       7.005   4.927  13.534  0.00  0.00    +0.000 A 
ATOM     31  ND1 HIS A   1       7.632   5.197  14.657  0.00  0.00    +0.000 NA
ATOM     32  HE2 HIS A   1       5.399   3.639  13.007  0.00  0.00    +0.000 HD
ENDBRANCH  26  27
ENDBRANCH  23  26
ENDBRANCH  21  23
ENDBRANCH  20  21
ENDBRANCH   1  20
TORSDOF 7
ENDMDL
MODEL 2
REMARK VINA RESULT:      -7.4      0.999      1.339
REMARK  Name = 
REMARK  7 active torsions:
REMARK  status: ('A' for Active; 'I' for Inactive)
REMARK    1  A    between atoms: C_2  and  CA_3
REMARK    2  A    between atoms: CA_3  and  CB_4
REMARK    3  A    between atoms: CA_3  and  N_10
REMARK    4  A    between atoms: CB_4  and  CG_5
REMARK    5  A    between atoms: N_10  and  C_11
REMARK    6  A    between atoms: C_11  and  C_12
REMARK    7  A    between atoms: C_22  and  C_24
REMARK                            x       y       z     vdW  Elec       q    Type
REMARK                         _______ _______ _______ _____ _____    ______ ____
ROOT
ATOM      1  C   UNK A   0       2.900   7.444  17.521  0.00  0.00    +0.000 C 
ATOM      2  C   UNK A   0       1.962   8.672  17.462  0.00  0.00    +0.000 C 
ATOM      3  C   UNK A   0       1.809   9.377  18.820  0.00  0.00    +0.000 C 
ATOM      4  C   UNK A   0       0.805  10.538  18.767  0.00  0.00    +0.000 C 
ATOM      5  C   UNK A   0       0.645  11.191  20.143  0.00  0.00    +0.000 C 
ATOM      6  C   UNK A   0       0.246  10.180  21.213  0.00  0.00    +0.000 C 
ATOM      7  C   UNK A   0       1.216   9.007  21.258  0.00  0.00    +0.000 C 
ATOM      8  C   UNK A   0       1.365   8.359  19.877  0.00  0.00    +0.000 C 
ATOM      9  C   UNK A   0       2.348   7.198  19.947  0.00  0.00    +0.000 C 
ATOM     10  N   UNK A   0       2.526   6.550  18.647  0.00  0.00    +0.000 N 
ATOM     11  C   UNK A   0       2.395   5.176  18.392  0.00  0.00    +0.000 C 
ATOM     12  O   UNK A   0       2.392   4.714  17.252  0.00  0.00    +0.000 OA
ENDROOT
BRANCH  11  13
ATOM     13  C   UNK A   0       2.214   4.203  19.509  0.00  0.00    +0.000 A 
ATOM     14  C   UNK A   0       3.356   3.568  20.025  0.00  0.00    +0.000 A 
ATOM     15  C   UNK A   0       3.232   2.601  21.024  0.00  0.00    +0.000 A 
ATOM     16  C   UNK A   0       1.970   2.259  21.494  0.00  0.00    +0.000 A 
ATOM     17  F   UNK A   0       1.843   1.293  22.412  0.00  0.00    +0.000 F 
ATOM     18  C   UNK A   0       0.835   2.917  21.036  0.00  0.00    +0.000 A 
ATOM     19  C   UNK A   0       0.966   3.928  20.084  0.00  0.00    +0.000 A 
ENDBRANCH  11  13
BRANCH   1  20
ATOM     20  C   UNK A   0       4.401   7.852  17.588  0.00  0.00    +0.000 C 
BRANCH  20  21
ATOM     21  N   HIS A   1       5.254   6.828  16.971  0.00  0.00    +0.000 NA
ATOM     22  H   HIS A   1       4.695   6.016  16.693  0.00  0.00    +0.000 HD
BRANCH  21  23
ATOM     23  CA  HIS A   1       6.424   6.390  17.759  0.00  0.00    +0.000 C 
BRANCH  23  25
ATOM     24  O   HIS A   1       8.224   7.921  18.360  0.00  0.00    +0.000 OA
ATOM     25  C   HIS A   1       7.534   7.400  17.478  0.00  0.00    +0.000 C 
ENDBRANCH  23  25
BRANCH  23  26
ATOM     26  CB  HIS A   1       6.956   4.992  17.408  0.00  0.00    +0.000 C 
BRANCH  26  27
ATOM     27  CG  HIS A   1       6.782   4.621  15.971  0.00  0.00    +0.000 A 
ATOM     28  CD2 HIS A   1       6.088   3.551  15.442  0.00  0.00    +0.000 A 
ATOM     29  NE2 HIS A   1       6.246   3.653  14.089  0.00  0.00    +0.000 N 
ATOM     30  CE1 HIS A   1       7.014   4.755  13.847  0.00  0.00    +0.000 A 
ATOM     31  ND1 HIS A   1       7.353   5.362  14.962  0.00  0.00    +0.000 NA
ATOM     32  HE2 HIS A   1       5.863   3.028  13.390  0.00  0.00    +0.000 HD
ENDBRANCH  26  27
ENDBRANCH  23  26
ENDBRANCH  21  23
ENDBRANCH  20  21
ENDBRANCH   1  20
TORSDOF 7
ENDMDL
MODEL 3
REMARK VINA RESULT:      -7.4      2.413      5.550
REMARK  Name = 
REMARK  7 active torsions:
REMARK  status: ('A' for Active; 'I' for Inactive)
REMARK    1  A    between atoms: C_2  and  CA_3
REMARK    2  A    between atoms: CA_3  and  CB_4
REMARK    3  A    between atoms: CA_3  and  N_10
REMARK    4  A    between atoms: CB_4  and  CG_5
REMARK    5  A    between atoms: N_10  and  C_11
REMARK    6  A    between atoms: C_11  and  C_12
REMARK    7  A    between atoms: C_22  and  C_24
REMARK                            x       y       z     vdW  Elec       q    Type
REMARK                         _______ _______ _______ _____ _____    ______ ____
ROOT
ATOM      1  C   UNK A   0       4.113   5.144  17.986  0.00  0.00    +0.000 C 
ATOM      2  C   UNK A   0       4.537   4.129  19.072  0.00  0.00    +0.000 C 
ATOM      3  C   UNK A   0       3.345   3.397  19.710  0.00  0.00    +0.000 C 
ATOM      4  C   UNK A   0       3.774   2.460  20.848  0.00  0.00    +0.000 C 
ATOM      5  C   UNK A   0       2.561   1.779  21.488  0.00  0.00    +0.000 C 
ATOM      6  C   UNK A   0       1.531   2.791  21.982  0.00  0.00    +0.000 C 
ATOM      7  C   UNK A   0       1.117   3.748  20.871  0.00  0.00    +0.000 C 
ATOM      8  C   UNK A   0       2.339   4.426  20.241  0.00  0.00    +0.000 C 
ATOM      9  C   UNK A   0       1.899   5.366  19.127  0.00  0.00    +0.000 C 
ATOM     10  N   UNK A   0       3.035   6.034  18.491  0.00  0.00    +0.000 N 
ATOM     11  C   UNK A   0       3.173   7.418  18.306  0.00  0.00    +0.000 C 
ATOM     12  O   UNK A   0       4.220   7.932  17.918  0.00  0.00    +0.000 OA
ENDROOT
BRANCH  11  13
ATOM     13  C   UNK A   0       2.045   8.348  18.611  0.00  0.00    +0.000 A 
ATOM     14  C   UNK A   0       1.675   8.520  19.955  0.00  0.00    +0.000 A 
ATOM     15  C   UNK A   0       0.584   9.326  20.286  0.00  0.00    +0.000 A 
ATOM     16  C   UNK A   0      -0.143   9.944  19.276  0.00  0.00    +0.000 A 
ATOM     17  F   UNK A   0      -1.224  10.672  19.586  0.00  0.00    +0.000 F 
ATOM     18  C   UNK A   0       0.243   9.830  17.946  0.00  0.00    +0.000 A 
ATOM     19  C   UNK A   0       1.371   9.076  17.622  0.00  0.00    +0.000 A 
ENDBRANCH  11  13
BRANCH   1  20
ATOM     20  C   UNK A   0       3.704   4.448  16.655  0.00  0.00    +0.000 C 
BRANCH  20  21
ATOM     21  N   HIS A   1       4.831   3.702  16.081  0.00  0.00    +0.000 NA
ATOM     22  H   HIS A   1       5.158   2.987  16.737  0.00  0.00    +0.000 HD
BRANCH  21  23
ATOM     23  CA  HIS A   1       5.972   4.509  15.604  0.00  0.00    +0.000 C 
BRANCH  23  25
ATOM     24  O   HIS A   1       5.436   3.861  13.315  0.00  0.00    +0.000 OA
ATOM     25  C   HIS A   1       6.289   4.014  14.194  0.00  0.00    +0.000 C 
ENDBRANCH  23  25
BRANCH  23  26
ATOM     26  CB  HIS A   1       7.251   4.386  16.447  0.00  0.00    +0.000 C 
BRANCH  26  27
ATOM     27  CG  HIS A   1       7.551   5.595  17.273  0.00  0.00    +0.000 A 
ATOM     28  CD2 HIS A   1       7.884   5.655  18.612  0.00  0.00    +0.000 A 
ATOM     29  NE2 HIS A   1       8.043   6.984  18.883  0.00  0.00    +0.000 N 
ATOM     30  CE1 HIS A   1       7.806   7.672  17.728  0.00  0.00    +0.000 A 
ATOM     31  ND1 HIS A   1       7.508   6.862  16.737  0.00  0.00    +0.000 NA
ATOM     32  HE2 HIS A   1       8.293   7.390  19.777  0.00  0.00    +0.000 HD
ENDBRANCH  26  27
ENDBRANCH  23  26
ENDBRANCH  21  23
ENDBRANCH  20  21
ENDBRANCH   1  20
TORSDOF 7
ENDMDL
MODEL 4
REMARK VINA RESULT:      -7.2      2.507      5.588
REMARK  Name = 
REMARK  7 active torsions:
REMARK  status: ('A' for Active; 'I' for Inactive)
REMARK    1  A    between atoms: C_2  and  CA_3
REMARK    2  A    between atoms: CA_3  and  CB_4
REMARK    3  A    between atoms: CA_3  and  N_10
REMARK    4  A    between atoms: CB_4  and  CG_5
REMARK    5  A    between atoms: N_10  and  C_11
REMARK    6  A    between atoms: C_11  and  C_12
REMARK    7  A    between atoms: C_22  and  C_24
REMARK                            x       y       z     vdW  Elec       q    Type
REMARK                         _______ _______ _______ _____ _____    ______ ____
ROOT
ATOM      1  C   UNK A   0       4.156   5.065  18.037  0.00  0.00    +0.000 C 
ATOM      2  C   UNK A   0       4.587   4.049  19.119  0.00  0.00    +0.000 C 
ATOM      3  C   UNK A   0       3.401   3.298  19.747  0.00  0.00    +0.000 C 
ATOM      4  C   UNK A   0       3.836   2.360  20.882  0.00  0.00    +0.000 C 
ATOM      5  C   UNK A   0       2.628   1.661  21.512  0.00  0.00    +0.000 C 
ATOM      6  C   UNK A   0       1.585   2.658  22.007  0.00  0.00    +0.000 C 
ATOM      7  C   UNK A   0       1.164   3.616  20.900  0.00  0.00    +0.000 C 
ATOM      8  C   UNK A   0       2.380   4.312  20.280  0.00  0.00    +0.000 C 
ATOM      9  C   UNK A   0       1.935   5.254  19.169  0.00  0.00    +0.000 C 
ATOM     10  N   UNK A   0       3.066   5.940  18.542  0.00  0.00    +0.000 N 
ATOM     11  C   UNK A   0       3.187   7.326  18.367  0.00  0.00    +0.000 C 
ATOM     12  O   UNK A   0       4.231   7.854  17.986  0.00  0.00    +0.000 OA
ENDROOT
BRANCH  11  13
ATOM     13  C   UNK A   0       2.047   8.240  18.672  0.00  0.00    +0.000 A 
ATOM     14  C   UNK A   0       1.430   8.909  17.603  0.00  0.00    +0.000 A 
ATOM     15  C   UNK A   0       0.404   9.825  17.844  0.00  0.00    +0.000 A 
ATOM     16  C   UNK A   0       0.010  10.083  19.151  0.00  0.00    +0.000 A 
ATOM     17  F   UNK A   0      -0.934  11.002  19.390  0.00  0.00    +0.000 F 
ATOM     18  C   UNK A   0       0.571   9.390  20.217  0.00  0.00    +0.000 A 
ATOM     19  C   UNK A   0       1.551   8.429  19.970  0.00  0.00    +0.000 A 
ENDBRANCH  11  13
BRANCH   1  20
ATOM     20  C   UNK A   0       3.761   4.372  16.700  0.00  0.00    +0.000 C 
BRANCH  20  21
ATOM     21  N   HIS A   1       4.947   3.865  15.999  0.00  0.00    +0.000 NA
ATOM     22  H   HIS A   1       5.657   3.559  16.670  0.00  0.00    +0.000 HD
BRANCH  21  23
ATOM     23  CA  HIS A   1       5.552   4.769  15.000  0.00  0.00    +0.000 C 
BRANCH  23  25
ATOM     24  O   HIS A   1       6.335   3.442  13.111  0.00  0.00    +0.000 OA
ATOM     25  C   HIS A   1       5.419   4.069  13.649  0.00  0.00    +0.000 C 
ENDBRANCH  23  25
BRANCH  23  26
ATOM     26  CB  HIS A   1       7.040   5.082  15.226  0.00  0.00    +0.000 C 
BRANCH  26  27
ATOM     27  CG  HIS A   1       7.369   5.483  16.628  0.00  0.00    +0.000 A 
ATOM     28  CD2 HIS A   1       7.348   6.747  17.183  0.00  0.00    +0.000 A 
ATOM     29  NE2 HIS A   1       7.741   6.576  18.480  0.00  0.00    +0.000 N 
ATOM     30  CE1 HIS A   1       7.982   5.245  18.665  0.00  0.00    +0.000 A 
ATOM     31  ND1 HIS A   1       7.765   4.558  17.566  0.00  0.00    +0.000 NA
ATOM     32  HE2 HIS A   1       7.836   7.301  19.180  0.00  0.00    +0.000 HD
ENDBRANCH  26  27
ENDBRANCH  23  26
ENDBRANCH  21  23
ENDBRANCH  20  21
ENDBRANCH   1  20
TORSDOF 7
ENDMDL
MODEL 5
REMARK VINA RESULT:      -7.0      1.912      2.669
REMARK  Name = 
REMARK  7 active torsions:
REMARK  status: ('A' for Active; 'I' for Inactive)
REMARK    1  A    between atoms: C_2  and  CA_3
REMARK    2  A    between atoms: CA_3  and  CB_4
REMARK    3  A    between atoms: CA_3  and  N_10
REMARK    4  A    between atoms: CB_4  and  CG_5
REMARK    5  A    between atoms: N_10  and  C_11
REMARK    6  A    between atoms: C_11  and  C_12
REMARK    7  A    between atoms: C_22  and  C_24
REMARK                            x       y       z     vdW  Elec       q    Type
REMARK                         _______ _______ _______ _____ _____    ______ ____
ROOT
ATOM      1  C   UNK A   0       2.513   7.710  17.648  0.00  0.00    +0.000 C 
ATOM      2  C   UNK A   0       1.680   9.012  17.687  0.00  0.00    +0.000 C 
ATOM      3  C   UNK A   0       1.664   9.674  19.075  0.00  0.00    +0.000 C 
ATOM      4  C   UNK A   0       0.760  10.915  19.121  0.00  0.00    +0.000 C 
ATOM      5  C   UNK A   0       0.735  11.525  20.526  0.00  0.00    +0.000 C 
ATOM      6  C   UNK A   0       0.312  10.509  21.583  0.00  0.00    +0.000 C 
ATOM      7  C   UNK A   0       1.181   9.259  21.530  0.00  0.00    +0.000 C 
ATOM      8  C   UNK A   0       1.196   8.656  20.122  0.00  0.00    +0.000 C 
ATOM      9  C   UNK A   0       2.080   7.416  20.093  0.00  0.00    +0.000 C 
ATOM     10  N   UNK A   0       2.129   6.806  18.763  0.00  0.00    +0.000 N 
ATOM     11  C   UNK A   0       1.868   5.459  18.470  0.00  0.00    +0.000 C 
ATOM     12  O   UNK A   0       1.761   5.043  17.318  0.00  0.00    +0.000 OA
ENDROOT
BRANCH  11  13
ATOM     13  C   UNK A   0       1.669   4.462  19.563  0.00  0.00    +0.000 A 
ATOM     14  C   UNK A   0       2.288   4.704  20.800  0.00  0.00    +0.000 A 
ATOM     15  C   UNK A   0       2.188   3.768  21.832  0.00  0.00    +0.000 A 
ATOM     16  C   UNK A   0       1.486   2.588  21.620  0.00  0.00    +0.000 A 
ATOM     17  F   UNK A   0       1.435   1.663  22.587  0.00  0.00    +0.000 F 
ATOM     18  C   UNK A   0       0.820   2.357  20.422  0.00  0.00    +0.000 A 
ATOM     19  C   UNK A   0       0.868   3.321  19.415  0.00  0.00    +0.000 A 
ENDBRANCH  11  13
BRANCH   1  20
ATOM     20  C   UNK A   0       4.045   7.990  17.639  0.00  0.00    +0.000 C 
BRANCH  20  21
ATOM     21  N   HIS A   1       4.754   7.019  16.796  0.00  0.00    +0.000 NA
ATOM     22  H   HIS A   1       4.137   6.668  16.057  0.00  0.00    +0.000 HD
BRANCH  21  23
ATOM     23  CA  HIS A   1       5.393   5.888  17.499  0.00  0.00    +0.000 C 
BRANCH  23  25
ATOM     24  O   HIS A   1       7.467   6.717  16.522  0.00  0.00    +0.000 OA
ATOM     25  C   HIS A   1       6.897   6.152  17.459  0.00  0.00    +0.000 C 
ENDBRANCH  23  25
BRANCH  23  26
ATOM     26  CB  HIS A   1       5.139   4.508  16.872  0.00  0.00    +0.000 C 
BRANCH  26  27
ATOM     27  CG  HIS A   1       4.793   3.445  17.866  0.00  0.00    +0.000 A 
ATOM     28  CD2 HIS A   1       4.032   2.310  17.673  0.00  0.00    +0.000 A 
ATOM     29  NE2 HIS A   1       4.009   1.684  18.887  0.00  0.00    +0.000 N 
ATOM     30  CE1 HIS A   1       4.739   2.442  19.756  0.00  0.00    +0.000 A 
ATOM     31  ND1 HIS A   1       5.228   3.512  19.169  0.00  0.00    +0.000 NA
ATOM     32  HE2 HIS A   1       3.538   0.814  19.107  0.00  0.00    +0.000 HD
ENDBRANCH  26  27
ENDBRANCH  23  26
ENDBRANCH  21  23
ENDBRANCH  20  21
ENDBRANCH   1  20
TORSDOF 7
ENDMDL
MODEL 6
REMARK VINA RESULT:      -6.8      1.954      2.799
REMARK  Name = 
REMARK  7 active torsions:
REMARK  status: ('A' for Active; 'I' for Inactive)
REMARK    1  A    between atoms: C_2  and  CA_3
REMARK    2  A    between atoms: CA_3  and  CB_4
REMARK    3  A    between atoms: CA_3  and  N_10
REMARK    4  A    between atoms: CB_4  and  CG_5
REMARK    5  A    between atoms: N_10  and  C_11
REMARK    6  A    between atoms: C_11  and  C_12
REMARK    7  A    between atoms: C_22  and  C_24
REMARK                            x       y       z     vdW  Elec       q    Type
REMARK                         _______ _______ _______ _____ _____    ______ ____
ROOT
ATOM      1  C   UNK A   0       2.233   7.526  17.606  0.00  0.00    +0.000 C 
ATOM      2  C   UNK A   0       1.317   8.759  17.785  0.00  0.00    +0.000 C 
ATOM      3  C   UNK A   0       1.476   9.433  19.158  0.00  0.00    +0.000 C 
ATOM      4  C   UNK A   0       0.497  10.599  19.355  0.00  0.00    +0.000 C 
ATOM      5  C   UNK A   0       0.654  11.220  20.746  0.00  0.00    +0.000 C 
ATOM      6  C   UNK A   0       0.491  10.185  21.856  0.00  0.00    +0.000 C 
ATOM      7  C   UNK A   0       1.435   9.006  21.658  0.00  0.00    +0.000 C 
ATOM      8  C   UNK A   0       1.267   8.391  20.264  0.00  0.00    +0.000 C 
ATOM      9  C   UNK A   0       2.229   7.224  20.088  0.00  0.00    +0.000 C 
ATOM     10  N   UNK A   0       2.108   6.606  18.766  0.00  0.00    +0.000 N 
ATOM     11  C   UNK A   0       1.909   5.240  18.516  0.00  0.00    +0.000 C 
ATOM     12  O   UNK A   0       1.649   4.805  17.396  0.00  0.00    +0.000 OA
ENDROOT
BRANCH  11  13
ATOM     13  C   UNK A   0       1.971   4.241  19.624  0.00  0.00    +0.000 A 
ATOM     14  C   UNK A   0       3.208   3.637  19.902  0.00  0.00    +0.000 A 
ATOM     15  C   UNK A   0       3.303   2.648  20.883  0.00  0.00    +0.000 A 
ATOM     16  C   UNK A   0       2.163   2.255  21.572  0.00  0.00    +0.000 A 
ATOM     17  F   UNK A   0       2.240   1.268  22.474  0.00  0.00    +0.000 F 
ATOM     18  C   UNK A   0       0.942   2.881  21.350  0.00  0.00    +0.000 A 
ATOM     19  C   UNK A   0       0.861   3.913  20.415  0.00  0.00    +0.000 A 
ENDBRANCH  11  13
BRANCH   1  20
ATOM     20  C   UNK A   0       3.715   7.924  17.347  0.00  0.00    +0.000 C 
BRANCH  20  21
ATOM     21  N   HIS A   1       4.616   6.790  17.590  0.00  0.00    +0.000 NA
ATOM     22  H   HIS A   1       5.408   7.080  18.170  0.00  0.00    +0.000 HD
BRANCH  21  23
ATOM     23  CA  HIS A   1       5.103   6.075  16.393  0.00  0.00    +0.000 C 
BRANCH  23  25
ATOM     24  O   HIS A   1       5.428   3.678  16.091  0.00  0.00    +0.000 OA
ATOM     25  C   HIS A   1       4.797   4.596  16.621  0.00  0.00    +0.000 C 
ENDBRANCH  23  25
BRANCH  23  26
ATOM     26  CB  HIS A   1       6.610   6.211  16.125  0.00  0.00    +0.000 C 
BRANCH  26  27
ATOM     27  CG  HIS A   1       7.373   6.832  17.250  0.00  0.00    +0.000 A 
ATOM     28  CD2 HIS A   1       7.854   6.226  18.394  0.00  0.00    +0.000 A 
ATOM     29  NE2 HIS A   1       8.462   7.225  19.100  0.00  0.00    +0.000 N 
ATOM     30  CE1 HIS A   1       8.332   8.377  18.380  0.00  0.00    +0.000 A 
ATOM     31  ND1 HIS A   1       7.681   8.173  17.257  0.00  0.00    +0.000 NA
ATOM     32  HE2 HIS A   1       8.927   7.132  19.995  0.00  0.00    +0.000 HD
ENDBRANCH  26  27
ENDBRANCH  23  26
ENDBRANCH  21  23
ENDBRANCH  20  21
ENDBRANCH   1  20
TORSDOF 7
ENDMDL
MODEL 7
REMARK VINA RESULT:      -6.7      2.878      5.260
REMARK  Name = 
REMARK  7 active torsions:
REMARK  status: ('A' for Active; 'I' for Inactive)
REMARK    1  A    between atoms: C_2  and  CA_3
REMARK    2  A    between atoms: CA_3  and  CB_4
REMARK    3  A    between atoms: CA_3  and  N_10
REMARK    4  A    between atoms: CB_4  and  CG_5
REMARK    5  A    between atoms: N_10  and  C_11
REMARK    6  A    between atoms: C_11  and  C_12
REMARK    7  A    between atoms: C_22  and  C_24
REMARK                            x       y       z     vdW  Elec       q    Type
REMARK                         _______ _______ _______ _____ _____    ______ ____
ROOT
ATOM      1  C   UNK A   0       2.143   6.308  20.638  0.00  0.00    +0.000 C 
ATOM      2  C   UNK A   0       1.772   7.715  21.160  0.00  0.00    +0.000 C 
ATOM      3  C   UNK A   0       1.195   8.630  20.067  0.00  0.00    +0.000 C 
ATOM      4  C   UNK A   0       0.917  10.050  20.579  0.00  0.00    +0.000 C 
ATOM      5  C   UNK A   0       0.384  10.945  19.457  0.00  0.00    +0.000 C 
ATOM      6  C   UNK A   0       1.325  10.979  18.256  0.00  0.00    +0.000 C 
ATOM      7  C   UNK A   0       1.636   9.575  17.755  0.00  0.00    +0.000 C 
ATOM      8  C   UNK A   0       2.172   8.690  18.885  0.00  0.00    +0.000 C 
ATOM      9  C   UNK A   0       2.462   7.290  18.361  0.00  0.00    +0.000 C 
ATOM     10  N   UNK A   0       2.973   6.405  19.409  0.00  0.00    +0.000 N 
ATOM     11  C   UNK A   0       4.148   5.642  19.336  0.00  0.00    +0.000 C 
ATOM     12  O   UNK A   0       4.612   5.050  20.309  0.00  0.00    +0.000 OA
ENDROOT
BRANCH  11  13
ATOM     13  C   UNK A   0       4.919   5.544  18.062  0.00  0.00    +0.000 A 
ATOM     14  C   UNK A   0       6.118   4.812  18.069  0.00  0.00    +0.000 A 
ATOM     15  C   UNK A   0       6.909   4.747  16.920  0.00  0.00    +0.000 A 
ATOM     16  C   UNK A   0       6.510   5.424  15.775  0.00  0.00    +0.000 A 
ATOM     17  F   UNK A   0       7.294   5.410  14.689  0.00  0.00    +0.000 F 
ATOM     18  C   UNK A   0       5.300   6.106  15.733  0.00  0.00    +0.000 A 
ATOM     19  C   UNK A   0       4.480   6.118  16.861  0.00  0.00    +0.000 A 
ENDBRANCH  11  13
BRANCH   1  20
ATOM     20  C   UNK A   0       0.889   5.412  20.414  0.00  0.00    +0.000 C 
BRANCH  20  21
ATOM     21  N   HIS A   1       1.230   4.212  19.639  0.00  0.00    +0.000 NA
ATOM     22  H   HIS A   1       0.920   4.314  18.668  0.00  0.00    +0.000 HD
BRANCH  21  23
ATOM     23  CA  HIS A   1       0.758   2.925  20.187  0.00  0.00    +0.000 C 
BRANCH  23  25
ATOM     24  O   HIS A   1       2.536   2.794  21.850  0.00  0.00    +0.000 OA
ATOM     25  C   HIS A   1       1.327   2.825  21.600  0.00  0.00    +0.000 C 
ENDBRANCH  23  25
BRANCH  23  26
ATOM     26  CB  HIS A   1       1.211   1.682  19.405  0.00  0.00    +0.000 C 
BRANCH  26  27
ATOM     27  CG  HIS A   1       2.345   1.936  18.465  0.00  0.00    +0.000 A 
ATOM     28  CD2 HIS A   1       3.645   1.480  18.551  0.00  0.00    +0.000 A 
ATOM     29  NE2 HIS A   1       4.281   2.002  17.461  0.00  0.00    +0.000 N 
ATOM     30  CE1 HIS A   1       3.368   2.741  16.766  0.00  0.00    +0.000 A 
ATOM     31  ND1 HIS A   1       2.189   2.720  17.346  0.00  0.00    +0.000 NA
ATOM     32  HE2 HIS A   1       5.253   1.867  17.209  0.00  0.00    +0.000 HD
ENDBRANCH  26  27
ENDBRANCH  23  26
ENDBRANCH  21  23
ENDBRANCH  20  21
ENDBRANCH   1  20
TORSDOF 7
ENDMDL
MODEL 8
REMARK VINA RESULT:      -6.6      0.857      1.255
REMARK  Name = 
REMARK  7 active torsions:
REMARK  status: ('A' for Active; 'I' for Inactive)
REMARK    1  A    between atoms: C_2  and  CA_3
REMARK    2  A    between atoms: CA_3  and  CB_4
REMARK    3  A    between atoms: CA_3  and  N_10
REMARK    4  A    between atoms: CB_4  and  CG_5
REMARK    5  A    between atoms: N_10  and  C_11
REMARK    6  A    between atoms: C_11  and  C_12
REMARK    7  A    between atoms: C_22  and  C_24
REMARK                            x       y       z     vdW  Elec       q    Type
REMARK                         _______ _______ _______ _____ _____    ______ ____
ROOT
ATOM      1  C   UNK A   0       3.363   7.016  17.481  0.00  0.00    +0.000 C 
ATOM      2  C   UNK A   0       2.501   8.275  17.226  0.00  0.00    +0.000 C 
ATOM      3  C   UNK A   0       2.229   9.087  18.503  0.00  0.00    +0.000 C 
ATOM      4  C   UNK A   0       1.298  10.282  18.250  0.00  0.00    +0.000 C 
ATOM      5  C   UNK A   0       1.015  11.044  19.548  0.00  0.00    +0.000 C 
ATOM      6  C   UNK A   0       0.444  10.134  20.632  0.00  0.00    +0.000 C 
ATOM      7  C   UNK A   0       1.341   8.928  20.874  0.00  0.00    +0.000 C 
ATOM      8  C   UNK A   0       1.614   8.171  19.569  0.00  0.00    +0.000 C 
ATOM      9  C   UNK A   0       2.523   6.978  19.836  0.00  0.00    +0.000 C 
ATOM     10  N   UNK A   0       2.816   6.226  18.615  0.00  0.00    +0.000 N 
ATOM     11  C   UNK A   0       2.645   4.844  18.443  0.00  0.00    +0.000 C 
ATOM     12  O   UNK A   0       2.749   4.297  17.347  0.00  0.00    +0.000 OA
ENDROOT
BRANCH  11  13
ATOM     13  C   UNK A   0       2.287   3.967  19.597  0.00  0.00    +0.000 A 
ATOM     14  C   UNK A   0       3.330   3.351  20.307  0.00  0.00    +0.000 A 
ATOM     15  C   UNK A   0       3.044   2.469  21.352  0.00  0.00    +0.000 A 
ATOM     16  C   UNK A   0       1.721   2.193  21.673  0.00  0.00    +0.000 A 
ATOM     17  F   UNK A   0       1.443   1.305  22.636  0.00  0.00    +0.000 F 
ATOM     18  C   UNK A   0       0.678   2.837  21.018  0.00  0.00    +0.000 A 
ATOM     19  C   UNK A   0       0.965   3.766  20.019  0.00  0.00    +0.000 A 
ENDBRANCH  11  13
BRANCH   1  20
ATOM     20  C   UNK A   0       4.865   7.363  17.697  0.00  0.00    +0.000 C 
BRANCH  20  21
ATOM     21  N   HIS A   1       5.589   6.229  18.284  0.00  0.00    +0.000 NA
ATOM     22  H   HIS A   1       6.209   6.550  19.034  0.00  0.00    +0.000 HD
BRANCH  21  23
ATOM     23  CA  HIS A   1       6.339   5.374  17.342  0.00  0.00    +0.000 C 
BRANCH  23  25
ATOM     24  O   HIS A   1       8.374   4.088  17.727  0.00  0.00    +0.000 OA
ATOM     25  C   HIS A   1       7.676   5.066  18.012  0.00  0.00    +0.000 C 
ENDBRANCH  23  25
BRANCH  23  26
ATOM     26  CB  HIS A   1       6.631   6.015  15.976  0.00  0.00    +0.000 C 
BRANCH  26  27
ATOM     27  CG  HIS A   1       6.615   5.048  14.837  0.00  0.00    +0.000 A 
ATOM     28  CD2 HIS A   1       5.935   3.850  14.742  0.00  0.00    +0.000 A 
ATOM     29  NE2 HIS A   1       6.262   3.347  13.515  0.00  0.00    +0.000 N 
ATOM     30  CE1 HIS A   1       7.111   4.235  12.919  0.00  0.00    +0.000 A 
ATOM     31  ND1 HIS A   1       7.342   5.273  13.691  0.00  0.00    +0.000 NA
ATOM     32  HE2 HIS A   1       5.936   2.476  13.115  0.00  0.00    +0.000 HD
ENDBRANCH  26  27
ENDBRANCH  23  26
ENDBRANCH  21  23
ENDBRANCH  20  21
ENDBRANCH   1  20
TORSDOF 7
ENDMDL
MODEL 9
REMARK VINA RESULT:      -6.5      1.894      2.820
REMARK  Name = 
REMARK  7 active torsions:
REMARK  status: ('A' for Active; 'I' for Inactive)
REMARK    1  A    between atoms: C_2  and  CA_3
REMARK    2  A    between atoms: CA_3  and  CB_4
REMARK    3  A    between atoms: CA_3  and  N_10
REMARK    4  A    between atoms: CB_4  and  CG_5
REMARK    5  A    between atoms: N_10  and  C_11
REMARK    6  A    between atoms: C_11  and  C_12
REMARK    7  A    between atoms: C_22  and  C_24
REMARK                            x       y       z     vdW  Elec       q    Type
REMARK                         _______ _______ _______ _____ _____    ______ ____
ROOT
ATOM      1  C   UNK A   0       2.562   7.279  17.469  0.00  0.00    +0.000 C 
ATOM      2  C   UNK A   0       1.643   8.517  17.586  0.00  0.00    +0.000 C 
ATOM      3  C   UNK A   0       1.709   9.187  18.968  0.00  0.00    +0.000 C 
ATOM      4  C   UNK A   0       0.724  10.358  19.099  0.00  0.00    +0.000 C 
ATOM      5  C   UNK A   0       0.786  10.975  20.499  0.00  0.00    +0.000 C 
ATOM      6  C   UNK A   0       0.540   9.939  21.592  0.00  0.00    +0.000 C 
ATOM      7  C   UNK A   0       1.489   8.755  21.458  0.00  0.00    +0.000 C 
ATOM      8  C   UNK A   0       1.417   8.144  20.055  0.00  0.00    +0.000 C 
ATOM      9  C   UNK A   0       2.383   6.972  19.943  0.00  0.00    +0.000 C 
ATOM     10  N   UNK A   0       2.352   6.358  18.615  0.00  0.00    +0.000 N 
ATOM     11  C   UNK A   0       2.164   4.994  18.349  0.00  0.00    +0.000 C 
ATOM     12  O   UNK A   0       1.980   4.562  17.212  0.00  0.00    +0.000 OA
ENDROOT
BRANCH  11  13
ATOM     13  C   UNK A   0       2.143   3.992  19.456  0.00  0.00    +0.000 A 
ATOM     14  C   UNK A   0       0.902   3.661  20.024  0.00  0.00    +0.000 A 
ATOM     15  C   UNK A   0       0.837   2.780  21.107  0.00  0.00    +0.000 A 
ATOM     16  C   UNK A   0       2.010   2.247  21.627  0.00  0.00    +0.000 A 
ATOM     17  F   UNK A   0       1.956   1.447  22.700  0.00  0.00    +0.000 F 
ATOM     18  C   UNK A   0       3.240   2.520  21.041  0.00  0.00    +0.000 A 
ATOM     19  C   UNK A   0       3.298   3.349  19.921  0.00  0.00    +0.000 A 
ENDBRANCH  11  13
BRANCH   1  20
ATOM     20  C   UNK A   0       4.061   7.670  17.316  0.00  0.00    +0.000 C 
BRANCH  20  21
ATOM     21  N   HIS A   1       4.611   7.169  16.050  0.00  0.00    +0.000 NA
ATOM     22  H   HIS A   1       3.855   6.919  15.405  0.00  0.00    +0.000 HD
BRANCH  21  23
ATOM     23  CA  HIS A   1       5.575   6.055  16.152  0.00  0.00    +0.000 C 
BRANCH  23  25
ATOM     24  O   HIS A   1       6.004   4.401  14.413  0.00  0.00    +0.000 OA
ATOM     25  C   HIS A   1       5.185   5.048  15.072  0.00  0.00    +0.000 C 
ENDBRANCH  23  25
BRANCH  23  26
ATOM     26  CB  HIS A   1       5.579   5.322  17.502  0.00  0.00    +0.000 C 
BRANCH  26  27
ATOM     27  CG  HIS A   1       6.710   5.711  18.400  0.00  0.00    +0.000 A 
ATOM     28  CD2 HIS A   1       7.667   6.685  18.196  0.00  0.00    +0.000 A 
ATOM     29  NE2 HIS A   1       8.473   6.632  19.298  0.00  0.00    +0.000 N 
ATOM     30  CE1 HIS A   1       7.991   5.650  20.114  0.00  0.00    +0.000 A 
ATOM     31  ND1 HIS A   1       6.926   5.076  19.601  0.00  0.00    +0.000 NA
ATOM     32  HE2 HIS A   1       9.281   7.214  19.480  0.00  0.00    +0.000 HD
ENDBRANCH  26  27
ENDBRANCH  23  26
ENDBRANCH  21  23
ENDBRANCH  20  21
ENDBRANCH   1  20
TORSDOF 7
ENDMDL
