MODEL 1
REMARK VINA RESULT:      -6.8      0.000      0.000
REMARK  Name = 
REMARK  7 active torsions:
REMARK  status: ('A' for Active; 'I' for Inactive)
REMARK    1  A    between atoms: C_1  and  C_2
REMARK    2  A    between atoms: C_2  and  O_3
REMARK    3  A    between atoms: O_3  and  C_4
REMARK    4  A    between atoms: C_4  and  C_6
REMARK    5  A    between atoms: C_9  and  N_10
REMARK    6  A    between atoms: C_16  and  C_17
REMARK    7  A    between atoms: C_23  and  C_24
REMARK                            x       y       z     vdW  Elec       q    Type
REMARK                         _______ _______ _______ _____ _____    ______ ____
ROOT
ATOM      1  N   UNL     1       6.696   5.929  17.403  0.00  0.00    +0.000 N 
ATOM      2  C   UNL     1       6.943   5.270  16.193  0.00  0.00    +0.000 C 
ATOM      3  O   UNL     1       7.775   5.494  15.331  0.00  0.00    +0.000 OA
ATOM      4  C   UNL     1       5.983   4.228  16.189  0.00  0.00    +0.000 A 
ATOM      5  N   UNL     1       5.644   3.184  15.416  0.00  0.00    +0.000 N 
ATOM      6  N   UNL     1       4.568   2.535  15.915  0.00  0.00    +0.000 NA
ATOM      7  C   UNL     1       4.235   3.208  17.043  0.00  0.00    +0.000 A 
ATOM      8  C   UNL     1       5.135   4.263  17.266  0.00  0.00    +0.000 A 
ATOM      9  C   UNL     1       5.529   5.383  18.173  0.00  0.00    +0.000 C 
ATOM     10  H   UNL     1       6.078   2.851  14.562  0.00  0.00    +0.000 HD
ENDROOT
BRANCH   9  11
ATOM     11  C   UNL     1       4.365   6.357  18.269  0.00  0.00    +0.000 A 
ATOM     12  C   UNL     1       4.246   7.428  17.355  0.00  0.00    +0.000 A 
ATOM     13  C   UNL     1       3.188   8.337  17.427  0.00  0.00    +0.000 A 
ATOM     14  C   UNL     1       2.216   8.188  18.410  0.00  0.00    +0.000 A 
ATOM     15 CL   UNL     1       0.914   9.306  18.496  0.00  0.00    +0.000 Cl
ATOM     16  C   UNL     1       2.304   7.149  19.329  0.00  0.00    +0.000 A 
ATOM     17  C   UNL     1       3.380   6.253  19.274  0.00  0.00    +0.000 A 
ATOM     18 CL   UNL     1       3.424   5.022  20.490  0.00  0.00    +0.000 Cl
ENDBRANCH   9  11
BRANCH   1  22
ATOM     19  C   UNL     1       8.640   9.485  18.531  0.00  0.00    +0.000 A 
ATOM     20  C   UNL     1       8.904   8.287  19.207  0.00  0.00    +0.000 A 
ATOM     21  C   UNL     1       8.237   7.116  18.848  0.00  0.00    +0.000 A 
ATOM     22  C   UNL     1       7.344   7.117  17.774  0.00  0.00    +0.000 A 
ATOM     23  C   UNL     1       7.081   8.305  17.086  0.00  0.00    +0.000 A 
ATOM     24  C   UNL     1       7.705   9.495  17.487  0.00  0.00    +0.000 A 
BRANCH  19  25
ATOM     25  C   UNL     1       9.331  10.710  19.012  0.00  0.00    +0.000 C 
ATOM     26  O   UNL     1       9.548  10.937  20.191  0.00  0.00    +0.000 OA
BRANCH  25  27
ATOM     27  O   UNL     1       9.565  11.556  17.979  0.00  0.00    +0.000 OA
BRANCH  27  29
ATOM     28  C   UNL     1      11.080  13.148  17.073  0.00  0.00    +0.000 C 
ATOM     29  C   UNL     1      10.952  11.761  17.679  0.00  0.00    +0.000 C 
ENDBRANCH  27  29
ENDBRANCH  25  27
ENDBRANCH  19  25
ENDBRANCH   1  22
BRANCH   7  30
ATOM     30  C   UNL     1       3.034   2.802  17.849  0.00  0.00    +0.000 A 
ATOM     31  C   UNL     1       1.781   3.375  17.720  0.00  0.00    +0.000 A 
ATOM     32  C   UNL     1       0.831   2.822  18.634  0.00  0.00    +0.000 A 
ATOM     33  C   UNL     1       1.391   1.858  19.436  0.00  0.00    +0.000 A 
ATOM     34  S   UNL     1       3.028   1.601  19.053  0.00  0.00    +0.000 S 
ENDBRANCH   7  30
TORSDOF 6
ENDMDL
MODEL 2
REMARK VINA RESULT:      -6.8      0.681      1.223
REMARK  Name = 
REMARK  7 active torsions:
REMARK  status: ('A' for Active; 'I' for Inactive)
REMARK    1  A    between atoms: C_1  and  C_2
REMARK    2  A    between atoms: C_2  and  O_3
REMARK    3  A    between atoms: O_3  and  C_4
REMARK    4  A    between atoms: C_4  and  C_6
REMARK    5  A    between atoms: C_9  and  N_10
REMARK    6  A    between atoms: C_16  and  C_17
REMARK    7  A    between atoms: C_23  and  C_24
REMARK                            x       y       z     vdW  Elec       q    Type
REMARK                         _______ _______ _______ _____ _____    ______ ____
ROOT
ATOM      1  N   UNL     1       6.691   5.963  17.401  0.00  0.00    +0.000 N 
ATOM      2  C   UNL     1       6.949   5.291  16.202  0.00  0.00    +0.000 C 
ATOM      3  O   UNL     1       7.782   5.511  15.340  0.00  0.00    +0.000 OA
ATOM      4  C   UNL     1       5.998   4.241  16.206  0.00  0.00    +0.000 A 
ATOM      5  N   UNL     1       5.670   3.185  15.445  0.00  0.00    +0.000 N 
ATOM      6  N   UNL     1       4.597   2.533  15.948  0.00  0.00    +0.000 NA
ATOM      7  C   UNL     1       4.254   3.217  17.065  0.00  0.00    +0.000 A 
ATOM      8  C   UNL     1       5.144   4.283  17.279  0.00  0.00    +0.000 A 
ATOM      9  C   UNL     1       5.525   5.417  18.174  0.00  0.00    +0.000 C 
ATOM     10  H   UNL     1       6.111   2.844  14.597  0.00  0.00    +0.000 HD
ENDROOT
BRANCH   9  11
ATOM     11  C   UNL     1       4.353   6.382  18.252  0.00  0.00    +0.000 A 
ATOM     12  C   UNL     1       4.233   7.445  17.329  0.00  0.00    +0.000 A 
ATOM     13  C   UNL     1       3.167   8.346  17.385  0.00  0.00    +0.000 A 
ATOM     14  C   UNL     1       2.189   8.198  18.361  0.00  0.00    +0.000 A 
ATOM     15 CL   UNL     1       0.877   9.307  18.427  0.00  0.00    +0.000 Cl
ATOM     16  C   UNL     1       2.276   7.167  19.288  0.00  0.00    +0.000 A 
ATOM     17  C   UNL     1       3.361   6.279  19.249  0.00  0.00    +0.000 A 
ATOM     18 CL   UNL     1       3.403   5.057  20.475  0.00  0.00    +0.000 Cl
ENDBRANCH   9  11
BRANCH   1  22
ATOM     19  C   UNL     1       8.598   9.559  18.464  0.00  0.00    +0.000 A 
ATOM     20  C   UNL     1       7.667   9.532  17.417  0.00  0.00    +0.000 A 
ATOM     21  C   UNL     1       7.057   8.332  17.050  0.00  0.00    +0.000 A 
ATOM     22  C   UNL     1       7.327   7.161  17.761  0.00  0.00    +0.000 A 
ATOM     23  C   UNL     1       8.246   7.179  18.814  0.00  0.00    +0.000 A 
ATOM     24  C   UNL     1       8.905   8.372  19.143  0.00  0.00    +0.000 A 
BRANCH  19  25
ATOM     25  C   UNL     1       9.263  10.856  18.756  0.00  0.00    +0.000 C 
ATOM     26  O   UNL     1       9.150  11.842  18.046  0.00  0.00    +0.000 OA
BRANCH  25  27
ATOM     27  O   UNL     1      10.081  10.735  19.830  0.00  0.00    +0.000 OA
BRANCH  27  29
ATOM     28  C   UNL     1      12.215  11.757  19.598  0.00  0.00    +0.000 C 
ATOM     29  C   UNL     1      10.814  11.923  20.158  0.00  0.00    +0.000 C 
ENDBRANCH  27  29
ENDBRANCH  25  27
ENDBRANCH  19  25
ENDBRANCH   1  22
BRANCH   7  30
ATOM     30  C   UNL     1       3.052   2.812  17.871  0.00  0.00    +0.000 A 
ATOM     31  C   UNL     1       1.793   3.366  17.723  0.00  0.00    +0.000 A 
ATOM     32  C   UNL     1       0.844   2.819  18.641  0.00  0.00    +0.000 A 
ATOM     33  C   UNL     1       1.411   1.877  19.465  0.00  0.00    +0.000 A 
ATOM     34  S   UNL     1       3.054   1.634  19.099  0.00  0.00    +0.000 S 
ENDBRANCH   7  30
TORSDOF 6
ENDMDL
MODEL 3
REMARK VINA RESULT:      -6.7      6.533      9.736
REMARK  Name = 
REMARK  7 active torsions:
REMARK  status: ('A' for Active; 'I' for Inactive)
REMARK    1  A    between atoms: C_1  and  C_2
REMARK    2  A    between atoms: C_2  and  O_3
REMARK    3  A    between atoms: O_3  and  C_4
REMARK    4  A    between atoms: C_4  and  C_6
REMARK    5  A    between atoms: C_9  and  N_10
REMARK    6  A    between atoms: C_16  and  C_17
REMARK    7  A    between atoms: C_23  and  C_24
REMARK                            x       y       z     vdW  Elec       q    Type
REMARK                         _______ _______ _______ _____ _____    ______ ____
ROOT
ATOM      1  N   UNL     1       0.384  10.010  20.767  0.00  0.00    +0.000 N 
ATOM      2  C   UNL     1      -0.078   9.617  22.028  0.00  0.00    +0.000 C 
ATOM      3  O   UNL     1       0.161   8.612  22.675  0.00  0.00    +0.000 OA
ATOM      4  C   UNL     1      -0.916  10.691  22.417  0.00  0.00    +0.000 A 
ATOM      5  N   UNL     1      -1.647  11.054  23.483  0.00  0.00    +0.000 N 
ATOM      6  N   UNL     1      -2.300  12.216  23.255  0.00  0.00    +0.000 NA
ATOM      7  C   UNL     1      -1.953  12.582  21.998  0.00  0.00    +0.000 A 
ATOM      8  C   UNL     1      -1.047  11.657  21.452  0.00  0.00    +0.000 A 
ATOM      9  C   UNL     1      -0.196  11.305  20.276  0.00  0.00    +0.000 C 
ATOM     10  H   UNL     1      -1.752  10.587  24.377  0.00  0.00    +0.000 HD
ENDROOT
BRANCH   9  11
ATOM     11  C   UNL     1      -1.097  11.136  19.063  0.00  0.00    +0.000 A 
ATOM     12  C   UNL     1      -1.865   9.963  18.896  0.00  0.00    +0.000 A 
ATOM     13  C   UNL     1      -2.696   9.785  17.787  0.00  0.00    +0.000 A 
ATOM     14  C   UNL     1      -2.786  10.783  16.825  0.00  0.00    +0.000 A 
ATOM     15 CL   UNL     1      -3.810  10.563  15.462  0.00  0.00    +0.000 Cl
ATOM     16  C   UNL     1      -2.040  11.949  16.954  0.00  0.00    +0.000 A 
ATOM     17  C   UNL     1      -1.185  12.116  18.052  0.00  0.00    +0.000 A 
ATOM     18 CL   UNL     1      -0.264  13.581  18.098  0.00  0.00    +0.000 Cl
ENDBRANCH   9  11
BRANCH   1  22
ATOM     19  C   UNL     1       2.722   7.521  18.311  0.00  0.00    +0.000 A 
ATOM     20  C   UNL     1       2.346   7.100  19.592  0.00  0.00    +0.000 A 
ATOM     21  C   UNL     1       1.593   7.940  20.414  0.00  0.00    +0.000 A 
ATOM     22  C   UNL     1       1.162   9.182  19.943  0.00  0.00    +0.000 A 
ATOM     23  C   UNL     1       1.524   9.607  18.662  0.00  0.00    +0.000 A 
ATOM     24  C   UNL     1       2.331   8.789  17.859  0.00  0.00    +0.000 A 
BRANCH  19  25
ATOM     25  C   UNL     1       3.584   6.608  17.516  0.00  0.00    +0.000 C 
ATOM     26  O   UNL     1       4.480   6.998  16.785  0.00  0.00    +0.000 OA
BRANCH  25  27
ATOM     27  O   UNL     1       3.152   5.329  17.636  0.00  0.00    +0.000 OA
BRANCH  27  29
ATOM     28  C   UNL     1       4.575   3.912  18.908  0.00  0.00    +0.000 C 
ATOM     29  C   UNL     1       4.180   4.337  17.505  0.00  0.00    +0.000 C 
ENDBRANCH  27  29
ENDBRANCH  25  27
ENDBRANCH  19  25
ENDBRANCH   1  22
BRANCH   7  30
ATOM     30  C   UNL     1      -2.539  13.815  21.371  0.00  0.00    +0.000 A 
ATOM     31  C   UNL     1      -1.799  14.921  20.992  0.00  0.00    +0.000 A 
ATOM     32  C   UNL     1      -2.613  15.965  20.454  0.00  0.00    +0.000 A 
ATOM     33  C   UNL     1      -3.945  15.628  20.451  0.00  0.00    +0.000 A 
ATOM     34  S   UNL     1      -4.192  14.055  21.051  0.00  0.00    +0.000 S 
ENDBRANCH   7  30
TORSDOF 6
ENDMDL
MODEL 4
REMARK VINA RESULT:      -6.7      0.753      1.315
REMARK  Name = 
REMARK  7 active torsions:
REMARK  status: ('A' for Active; 'I' for Inactive)
REMARK    1  A    between atoms: C_1  and  C_2
REMARK    2  A    between atoms: C_2  and  O_3
REMARK    3  A    between atoms: O_3  and  C_4
REMARK    4  A    between atoms: C_4  and  C_6
REMARK    5  A    between atoms: C_9  and  N_10
REMARK    6  A    between atoms: C_16  and  C_17
REMARK    7  A    between atoms: C_23  and  C_24
REMARK                            x       y       z     vdW  Elec       q    Type
REMARK                         _______ _______ _______ _____ _____    ______ ____
ROOT
ATOM      1  N   UNL     1       6.645   5.872  17.430  0.00  0.00    +0.000 N 
ATOM      2  C   UNL     1       6.888   5.186  16.235  0.00  0.00    +0.000 C 
ATOM      3  O   UNL     1       7.722   5.385  15.369  0.00  0.00    +0.000 OA
ATOM      4  C   UNL     1       5.917   4.153  16.250  0.00  0.00    +0.000 A 
ATOM      5  N   UNL     1       5.569   3.098  15.498  0.00  0.00    +0.000 N 
ATOM      6  N   UNL     1       4.485   2.470  16.009  0.00  0.00    +0.000 NA
ATOM      7  C   UNL     1       4.157   3.169  17.122  0.00  0.00    +0.000 A 
ATOM      8  C   UNL     1       5.068   4.219  17.325  0.00  0.00    +0.000 A 
ATOM      9  C   UNL     1       5.471   5.353  18.210  0.00  0.00    +0.000 C 
ATOM     10  H   UNL     1       6.001   2.743  14.652  0.00  0.00    +0.000 HD
ENDROOT
BRANCH   9  11
ATOM     11  C   UNL     1       4.317   6.340  18.283  0.00  0.00    +0.000 A 
ATOM     12  C   UNL     1       4.212   7.395  17.350  0.00  0.00    +0.000 A 
ATOM     13  C   UNL     1       3.162   8.316  17.402  0.00  0.00    +0.000 A 
ATOM     14  C   UNL     1       2.187   8.195  18.384  0.00  0.00    +0.000 A 
ATOM     15 CL   UNL     1       0.895   9.328  18.445  0.00  0.00    +0.000 Cl
ATOM     16  C   UNL     1       2.261   7.173  19.322  0.00  0.00    +0.000 A 
ATOM     17  C   UNL     1       3.329   6.266  19.287  0.00  0.00    +0.000 A 
ATOM     18 CL   UNL     1       3.356   5.057  20.527  0.00  0.00    +0.000 Cl
ENDBRANCH   9  11
BRANCH   1  22
ATOM     19  C   UNL     1       8.622   9.431  18.489  0.00  0.00    +0.000 A 
ATOM     20  C   UNL     1       8.875   8.244  19.189  0.00  0.00    +0.000 A 
ATOM     21  C   UNL     1       8.197   7.072  18.852  0.00  0.00    +0.000 A 
ATOM     22  C   UNL     1       7.304   7.061  17.778  0.00  0.00    +0.000 A 
ATOM     23  C   UNL     1       7.052   8.238  17.067  0.00  0.00    +0.000 A 
ATOM     24  C   UNL     1       7.687   9.429  17.445  0.00  0.00    +0.000 A 
BRANCH  19  25
ATOM     25  C   UNL     1       9.325  10.658  18.946  0.00  0.00    +0.000 C 
ATOM     26  O   UNL     1       9.755  11.508  18.183  0.00  0.00    +0.000 OA
BRANCH  25  27
ATOM     27  O   UNL     1       9.511  10.623  20.289  0.00  0.00    +0.000 OA
BRANCH  27  29
ATOM     28  C   UNL     1       8.551  11.812  22.110  0.00  0.00    +0.000 C 
ATOM     29  C   UNL     1       9.497  11.908  20.926  0.00  0.00    +0.000 C 
ENDBRANCH  27  29
ENDBRANCH  25  27
ENDBRANCH  19  25
ENDBRANCH   1  22
BRANCH   7  30
ATOM     30  C   UNL     1       2.951   2.791  17.934  0.00  0.00    +0.000 A 
ATOM     31  C   UNL     1       1.697   3.352  17.770  0.00  0.00    +0.000 A 
ATOM     32  C   UNL     1       0.742   2.834  18.699  0.00  0.00    +0.000 A 
ATOM     33  C   UNL     1       1.299   1.906  19.545  0.00  0.00    +0.000 A 
ATOM     34  S   UNL     1       2.941   1.641  19.188  0.00  0.00    +0.000 S 
ENDBRANCH   7  30
TORSDOF 6
ENDMDL
MODEL 5
REMARK VINA RESULT:      -6.6      6.431      9.457
REMARK  Name = 
REMARK  7 active torsions:
REMARK  status: ('A' for Active; 'I' for Inactive)
REMARK    1  A    between atoms: C_1  and  C_2
REMARK    2  A    between atoms: C_2  and  O_3
REMARK    3  A    between atoms: O_3  and  C_4
REMARK    4  A    between atoms: C_4  and  C_6
REMARK    5  A    between atoms: C_9  and  N_10
REMARK    6  A    between atoms: C_16  and  C_17
REMARK    7  A    between atoms: C_23  and  C_24
REMARK                            x       y       z     vdW  Elec       q    Type
REMARK                         _______ _______ _______ _____ _____    ______ ____
ROOT
ATOM      1  N   UNL     1       0.495   9.866  20.797  0.00  0.00    +0.000 N 
ATOM      2  C   UNL     1      -0.030   9.453  22.026  0.00  0.00    +0.000 C 
ATOM      3  O   UNL     1       0.129   8.411  22.640  0.00  0.00    +0.000 OA
ATOM      4  C   UNL     1      -0.817  10.559  22.432  0.00  0.00    +0.000 A 
ATOM      5  N   UNL     1      -1.560  10.923  23.489  0.00  0.00    +0.000 N 
ATOM      6  N   UNL     1      -2.137  12.130  23.288  0.00  0.00    +0.000 NA
ATOM      7  C   UNL     1      -1.729  12.522  22.058  0.00  0.00    +0.000 A 
ATOM      8  C   UNL     1      -0.860  11.567  21.504  0.00  0.00    +0.000 A 
ATOM      9  C   UNL     1       0.008  11.211  20.340  0.00  0.00    +0.000 C 
ATOM     10  H   UNL     1      -1.721  10.430  24.360  0.00  0.00    +0.000 HD
ENDROOT
BRANCH   9  11
ATOM     11  C   UNL     1      -0.862  11.142  19.095  0.00  0.00    +0.000 A 
ATOM     12  C   UNL     1      -1.707  10.034  18.869  0.00  0.00    +0.000 A 
ATOM     13  C   UNL     1      -2.511   9.947  17.729  0.00  0.00    +0.000 A 
ATOM     14  C   UNL     1      -2.495  10.975  16.794  0.00  0.00    +0.000 A 
ATOM     15 CL   UNL     1      -3.486  10.869  15.393  0.00  0.00    +0.000 Cl
ATOM     16  C   UNL     1      -1.671  12.079  16.981  0.00  0.00    +0.000 A 
ATOM     17  C   UNL     1      -0.844  12.152  18.111  0.00  0.00    +0.000 A 
ATOM     18 CL   UNL     1       0.178  13.545  18.230  0.00  0.00    +0.000 Cl
ENDBRANCH   9  11
BRANCH   1  22
ATOM     19  C   UNL     1       2.766   7.340  18.315  0.00  0.00    +0.000 A 
ATOM     20  C   UNL     1       2.425   6.939  19.612  0.00  0.00    +0.000 A 
ATOM     21  C   UNL     1       1.694   7.791  20.442  0.00  0.00    +0.000 A 
ATOM     22  C   UNL     1       1.251   9.026  19.964  0.00  0.00    +0.000 A 
ATOM     23  C   UNL     1       1.577   9.431  18.667  0.00  0.00    +0.000 A 
ATOM     24  C   UNL     1       2.362   8.602  17.855  0.00  0.00    +0.000 A 
BRANCH  19  25
ATOM     25  C   UNL     1       3.605   6.415  17.510  0.00  0.00    +0.000 C 
ATOM     26  O   UNL     1       3.454   5.204  17.507  0.00  0.00    +0.000 OA
BRANCH  25  27
ATOM     27  O   UNL     1       4.605   7.096  16.899  0.00  0.00    +0.000 OA
BRANCH  27  29
ATOM     28  C   UNL     1       6.881   6.490  17.229  0.00  0.00    +0.000 C 
ATOM     29  C   UNL     1       5.651   6.270  16.366  0.00  0.00    +0.000 C 
ENDBRANCH  27  29
ENDBRANCH  25  27
ENDBRANCH  19  25
ENDBRANCH   1  22
BRANCH   7  30
ATOM     30  C   UNL     1      -2.221  13.811  21.464  0.00  0.00    +0.000 A 
ATOM     31  C   UNL     1      -1.396  14.796  20.951  0.00  0.00    +0.000 A 
ATOM     32  C   UNL     1      -2.127  15.931  20.481  0.00  0.00    +0.000 A 
ATOM     33  C   UNL     1      -3.481  15.780  20.660  0.00  0.00    +0.000 A 
ATOM     34  S   UNL     1      -3.855  14.270  21.347  0.00  0.00    +0.000 S 
ENDBRANCH   7  30
TORSDOF 6
ENDMDL
MODEL 6
REMARK VINA RESULT:      -6.5      9.736     12.161
REMARK  Name = 
REMARK  7 active torsions:
REMARK  status: ('A' for Active; 'I' for Inactive)
REMARK    1  A    between atoms: C_1  and  C_2
REMARK    2  A    between atoms: C_2  and  O_3
REMARK    3  A    between atoms: O_3  and  C_4
REMARK    4  A    between atoms: C_4  and  C_6
REMARK    5  A    between atoms: C_9  and  N_10
REMARK    6  A    between atoms: C_16  and  C_17
REMARK    7  A    between atoms: C_23  and  C_24
REMARK                            x       y       z     vdW  Elec       q    Type
REMARK                         _______ _______ _______ _____ _____    ______ ____
ROOT
ATOM      1  N   UNL     1      -3.596  14.004  21.962  0.00  0.00    +0.000 N 
ATOM      2  C   UNL     1      -4.945  13.648  22.079  0.00  0.00    +0.000 C 
ATOM      3  O   UNL     1      -5.762  13.933  22.936  0.00  0.00    +0.000 OA
ATOM      4  C   UNL     1      -5.172  12.854  20.927  0.00  0.00    +0.000 A 
ATOM      5  N   UNL     1      -6.197  12.219  20.337  0.00  0.00    +0.000 N 
ATOM      6  N   UNL     1      -5.791  11.558  19.230  0.00  0.00    +0.000 NA
ATOM      7  C   UNL     1      -4.461  11.799  19.136  0.00  0.00    +0.000 A 
ATOM      8  C   UNL     1      -4.044  12.649  20.174  0.00  0.00    +0.000 A 
ATOM      9  C   UNL     1      -2.899  13.394  20.779  0.00  0.00    +0.000 C 
ATOM     10  H   UNL     1      -7.174  12.187  20.609  0.00  0.00    +0.000 HD
ENDROOT
BRANCH   9  11
ATOM     11  C   UNL     1      -1.825  12.391  21.169  0.00  0.00    +0.000 A 
ATOM     12  C   UNL     1      -1.955  11.618  22.344  0.00  0.00    +0.000 A 
ATOM     13  C   UNL     1      -0.978  10.694  22.723  0.00  0.00    +0.000 A 
ATOM     14  C   UNL     1       0.148  10.516  21.929  0.00  0.00    +0.000 A 
ATOM     15 CL   UNL     1       1.349   9.377  22.396  0.00  0.00    +0.000 Cl
ATOM     16  C   UNL     1       0.312  11.263  20.768  0.00  0.00    +0.000 A 
ATOM     17  C   UNL     1      -0.655  12.210  20.402  0.00  0.00    +0.000 A 
ATOM     18 CL   UNL     1      -0.337  13.122  18.966  0.00  0.00    +0.000 Cl
ENDBRANCH   9  11
BRANCH   1  22
ATOM     19  C   UNL     1      -1.516  16.094  24.962  0.00  0.00    +0.000 A 
ATOM     20  C   UNL     1      -2.345  15.015  25.294  0.00  0.00    +0.000 A 
ATOM     21  C   UNL     1      -3.054  14.341  24.299  0.00  0.00    +0.000 A 
ATOM     22  C   UNL     1      -2.899  14.702  22.959  0.00  0.00    +0.000 A 
ATOM     23  C   UNL     1      -2.065  15.771  22.615  0.00  0.00    +0.000 A 
ATOM     24  C   UNL     1      -1.401  16.486  23.621  0.00  0.00    +0.000 A 
BRANCH  19  25
ATOM     25  C   UNL     1      -0.846  16.812  26.077  0.00  0.00    +0.000 C 
ATOM     26  O   UNL     1      -1.212  17.901  26.489  0.00  0.00    +0.000 OA
BRANCH  25  27
ATOM     27  O   UNL     1       0.265  16.142  26.469  0.00  0.00    +0.000 OA
BRANCH  27  29
ATOM     28  C   UNL     1       2.254  17.397  26.117  0.00  0.00    +0.000 C 
ATOM     29  C   UNL     1       1.237  16.948  27.151  0.00  0.00    +0.000 C 
ENDBRANCH  27  29
ENDBRANCH  25  27
ENDBRANCH  19  25
ENDBRANCH   1  22
BRANCH   7  30
ATOM     30  C   UNL     1      -3.645  11.172  18.041  0.00  0.00    +0.000 A 
ATOM     31  C   UNL     1      -2.522  10.394  18.258  0.00  0.00    +0.000 A 
ATOM     32  C   UNL     1      -1.920   9.953  17.039  0.00  0.00    +0.000 A 
ATOM     33  C   UNL     1      -2.594  10.417  15.935  0.00  0.00    +0.000 A 
ATOM     34  S   UNL     1      -3.957  11.334  16.377  0.00  0.00    +0.000 S 
ENDBRANCH   7  30
TORSDOF 6
ENDMDL
MODEL 7
REMARK VINA RESULT:      -6.5      9.580     12.015
REMARK  Name = 
REMARK  7 active torsions:
REMARK  status: ('A' for Active; 'I' for Inactive)
REMARK    1  A    between atoms: C_1  and  C_2
REMARK    2  A    between atoms: C_2  and  O_3
REMARK    3  A    between atoms: O_3  and  C_4
REMARK    4  A    between atoms: C_4  and  C_6
REMARK    5  A    between atoms: C_9  and  N_10
REMARK    6  A    between atoms: C_16  and  C_17
REMARK    7  A    between atoms: C_23  and  C_24
REMARK                            x       y       z     vdW  Elec       q    Type
REMARK                         _______ _______ _______ _____ _____    ______ ____
ROOT
ATOM      1  N   UNL     1      -3.041  14.201  21.770  0.00  0.00    +0.000 N 
ATOM      2  C   UNL     1      -4.405  13.963  21.977  0.00  0.00    +0.000 C 
ATOM      3  O   UNL     1      -5.147  14.357  22.860  0.00  0.00    +0.000 OA
ATOM      4  C   UNL     1      -4.760  13.134  20.884  0.00  0.00    +0.000 A 
ATOM      5  N   UNL     1      -5.864  12.557  20.384  0.00  0.00    +0.000 N 
ATOM      6  N   UNL     1      -5.574  11.810  19.294  0.00  0.00    +0.000 NA
ATOM      7  C   UNL     1      -4.237  11.936  19.118  0.00  0.00    +0.000 A 
ATOM      8  C   UNL     1      -3.696  12.799  20.085  0.00  0.00    +0.000 A 
ATOM      9  C   UNL     1      -2.463  13.477  20.588  0.00  0.00    +0.000 C 
ATOM     10  H   UNL     1      -6.823  12.619  20.708  0.00  0.00    +0.000 HD
ENDROOT
BRANCH   9  11
ATOM     11  C   UNL     1      -1.451  12.410  20.975  0.00  0.00    +0.000 A 
ATOM     12  C   UNL     1      -1.624  11.648  22.151  0.00  0.00    +0.000 A 
ATOM     13  C   UNL     1      -0.704  10.666  22.529  0.00  0.00    +0.000 A 
ATOM     14  C   UNL     1       0.405  10.417  21.730  0.00  0.00    +0.000 A 
ATOM     15 CL   UNL     1       1.535   9.207  22.194  0.00  0.00    +0.000 Cl
ATOM     16  C   UNL     1       0.610  11.151  20.567  0.00  0.00    +0.000 A 
ATOM     17  C   UNL     1      -0.298  12.155  20.204  0.00  0.00    +0.000 A 
ATOM     18 CL   UNL     1       0.069  13.044  18.764  0.00  0.00    +0.000 Cl
ENDBRANCH   9  11
BRANCH   1  22
ATOM     19  C   UNL     1      -0.615  16.266  24.516  0.00  0.00    +0.000 A 
ATOM     20  C   UNL     1      -0.658  16.659  23.173  0.00  0.00    +0.000 A 
ATOM     21  C   UNL     1      -1.443  15.955  22.259  0.00  0.00    +0.000 A 
ATOM     22  C   UNL     1      -2.235  14.888  22.690  0.00  0.00    +0.000 A 
ATOM     23  C   UNL     1      -2.208  14.494  24.031  0.00  0.00    +0.000 A 
ATOM     24  C   UNL     1      -1.372  15.164  24.936  0.00  0.00    +0.000 A 
BRANCH  19  25
ATOM     25  C   UNL     1       0.297  17.015  25.420  0.00  0.00    +0.000 C 
ATOM     26  O   UNL     1       1.514  16.935  25.361  0.00  0.00    +0.000 OA
BRANCH  25  27
ATOM     27  O   UNL     1      -0.415  17.681  26.362  0.00  0.00    +0.000 OA
BRANCH  27  29
ATOM     28  C   UNL     1       0.605  18.289  28.422  0.00  0.00    +0.000 C 
ATOM     29  C   UNL     1      -0.203  17.222  27.704  0.00  0.00    +0.000 C 
ENDBRANCH  27  29
ENDBRANCH  25  27
ENDBRANCH  19  25
ENDBRANCH   1  22
BRANCH   7  30
ATOM     30  C   UNL     1      -3.537  11.189  18.018  0.00  0.00    +0.000 A 
ATOM     31  C   UNL     1      -2.413  10.404  18.205  0.00  0.00    +0.000 A 
ATOM     32  C   UNL     1      -1.933   9.838  16.983  0.00  0.00    +0.000 A 
ATOM     33  C   UNL     1      -2.698  10.218  15.906  0.00  0.00    +0.000 A 
ATOM     34  S   UNL     1      -3.997  11.208  16.381  0.00  0.00    +0.000 S 
ENDBRANCH   7  30
TORSDOF 6
ENDMDL
MODEL 8
REMARK VINA RESULT:      -6.5      8.093     11.076
REMARK  Name = 
REMARK  7 active torsions:
REMARK  status: ('A' for Active; 'I' for Inactive)
REMARK    1  A    between atoms: C_1  and  C_2
REMARK    2  A    between atoms: C_2  and  O_3
REMARK    3  A    between atoms: O_3  and  C_4
REMARK    4  A    between atoms: C_4  and  C_6
REMARK    5  A    between atoms: C_9  and  N_10
REMARK    6  A    between atoms: C_16  and  C_17
REMARK    7  A    between atoms: C_23  and  C_24
REMARK                            x       y       z     vdW  Elec       q    Type
REMARK                         _______ _______ _______ _____ _____    ______ ____
ROOT
ATOM      1  N   UNL     1      -1.909  11.241  19.646  0.00  0.00    +0.000 N 
ATOM      2  C   UNL     1      -2.982  11.345  18.754  0.00  0.00    +0.000 C 
ATOM      3  O   UNL     1      -3.214  10.730  17.727  0.00  0.00    +0.000 OA
ATOM      4  C   UNL     1      -3.786  12.359  19.330  0.00  0.00    +0.000 A 
ATOM      5  N   UNL     1      -4.964  12.957  19.092  0.00  0.00    +0.000 N 
ATOM      6  N   UNL     1      -5.210  13.931  19.997  0.00  0.00    +0.000 NA
ATOM      7  C   UNL     1      -4.139  13.928  20.826  0.00  0.00    +0.000 A 
ATOM      8  C   UNL     1      -3.236  12.918  20.455  0.00  0.00    +0.000 A 
ATOM      9  C   UNL     1      -1.950  12.229  20.775  0.00  0.00    +0.000 C 
ATOM     10  H   UNL     1      -5.643  12.769  18.361  0.00  0.00    +0.000 HD
ENDROOT
BRANCH   9  11
ATOM     11  C   UNL     1      -0.827  13.253  20.717  0.00  0.00    +0.000 A 
ATOM     12  C   UNL     1      -0.196  13.559  19.491  0.00  0.00    +0.000 A 
ATOM     13  C   UNL     1       0.840  14.493  19.415  0.00  0.00    +0.000 A 
ATOM     14  C   UNL     1       1.261  15.151  20.564  0.00  0.00    +0.000 A 
ATOM     15 CL   UNL     1       2.535  16.302  20.468  0.00  0.00    +0.000 Cl
ATOM     16  C   UNL     1       0.667  14.871  21.788  0.00  0.00    +0.000 A 
ATOM     17  C   UNL     1      -0.354  13.914  21.869  0.00  0.00    +0.000 A 
ATOM     18 CL   UNL     1      -0.999  13.604  23.446  0.00  0.00    +0.000 Cl
ENDBRANCH   9  11
BRANCH   1  22
ATOM     19  C   UNL     1       1.441   8.803  18.914  0.00  0.00    +0.000 A 
ATOM     20  C   UNL     1       0.807   9.472  17.860  0.00  0.00    +0.000 A 
ATOM     21  C   UNL     1      -0.320  10.258  18.103  0.00  0.00    +0.000 A 
ATOM     22  C   UNL     1      -0.789  10.428  19.406  0.00  0.00    +0.000 A 
ATOM     23  C   UNL     1      -0.158   9.773  20.468  0.00  0.00    +0.000 A 
ATOM     24  C   UNL     1       0.936   8.935  20.216  0.00  0.00    +0.000 A 
BRANCH  19  25
ATOM     25  C   UNL     1       2.591   7.925  18.576  0.00  0.00    +0.000 C 
ATOM     26  O   UNL     1       3.321   8.117  17.616  0.00  0.00    +0.000 OA
BRANCH  25  27
ATOM     27  O   UNL     1       2.625   6.852  19.402  0.00  0.00    +0.000 OA
BRANCH  27  29
ATOM     28  C   UNL     1       2.060   4.861  18.230  0.00  0.00    +0.000 C 
ATOM     29  C   UNL     1       3.199   5.671  18.823  0.00  0.00    +0.000 C 
ENDBRANCH  27  29
ENDBRANCH  25  27
ENDBRANCH  19  25
ENDBRANCH   1  22
BRANCH   7  30
ATOM     30  C   UNL     1      -4.032  14.929  21.942  0.00  0.00    +0.000 A 
ATOM     31  C   UNL     1      -3.323  16.114  21.858  0.00  0.00    +0.000 A 
ATOM     32  C   UNL     1      -3.361  16.861  23.076  0.00  0.00    +0.000 A 
ATOM     33  C   UNL     1      -4.086  16.219  24.050  0.00  0.00    +0.000 A 
ATOM     34  S   UNL     1      -4.743  14.757  23.478  0.00  0.00    +0.000 S 
ENDBRANCH   7  30
TORSDOF 6
ENDMDL
MODEL 9
REMARK VINA RESULT:      -6.4      7.159     10.367
REMARK  Name = 
REMARK  7 active torsions:
REMARK  status: ('A' for Active; 'I' for Inactive)
REMARK    1  A    between atoms: C_1  and  C_2
REMARK    2  A    between atoms: C_2  and  O_3
REMARK    3  A    between atoms: O_3  and  C_4
REMARK    4  A    between atoms: C_4  and  C_6
REMARK    5  A    between atoms: C_9  and  N_10
REMARK    6  A    between atoms: C_16  and  C_17
REMARK    7  A    between atoms: C_23  and  C_24
REMARK                            x       y       z     vdW  Elec       q    Type
REMARK                         _______ _______ _______ _____ _____    ______ ____
ROOT
ATOM      1  N   UNL     1      -0.457  10.895  19.834  0.00  0.00    +0.000 N 
ATOM      2  C   UNL     1      -1.730  11.004  19.263  0.00  0.00    +0.000 C 
ATOM      3  O   UNL     1      -2.297  10.280  18.463  0.00  0.00    +0.000 OA
ATOM      4  C   UNL     1      -2.250  12.184  19.849  0.00  0.00    +0.000 A 
ATOM      5  N   UNL     1      -3.395  12.885  19.839  0.00  0.00    +0.000 N 
ATOM      6  N   UNL     1      -3.290  14.003  20.592  0.00  0.00    +0.000 NA
ATOM      7  C   UNL     1      -2.029  13.986  21.087  0.00  0.00    +0.000 A 
ATOM      8  C   UNL     1      -1.356  12.827  20.667  0.00  0.00    +0.000 A 
ATOM      9  C   UNL     1      -0.091  12.035  20.742  0.00  0.00    +0.000 C 
ATOM     10  H   UNL     1      -4.268  12.681  19.365  0.00  0.00    +0.000 HD
ENDROOT
BRANCH   9  11
ATOM     11  C   UNL     1       1.045  12.889  20.202  0.00  0.00    +0.000 A 
ATOM     12  C   UNL     1       2.197  13.130  20.982  0.00  0.00    +0.000 A 
ATOM     13  C   UNL     1       3.250  13.915  20.509  0.00  0.00    +0.000 A 
ATOM     14  C   UNL     1       3.179  14.471  19.237  0.00  0.00    +0.000 A 
ATOM     15 CL   UNL     1       4.477  15.436  18.654  0.00  0.00    +0.000 Cl
ATOM     16  C   UNL     1       2.058  14.260  18.443  0.00  0.00    +0.000 A 
ATOM     17  C   UNL     1       0.989  13.494  18.929  0.00  0.00    +0.000 A 
ATOM     18 CL   UNL     1      -0.381  13.328  17.883  0.00  0.00    +0.000 Cl
ENDBRANCH   9  11
BRANCH   1  22
ATOM     19  C   UNL     1       2.336   7.979  18.657  0.00  0.00    +0.000 A 
ATOM     20  C   UNL     1       1.879   8.933  17.740  0.00  0.00    +0.000 A 
ATOM     21  C   UNL     1       0.932   9.882  18.127  0.00  0.00    +0.000 A 
ATOM     22  C   UNL     1       0.477   9.922  19.446  0.00  0.00    +0.000 A 
ATOM     23  C   UNL     1       0.935   8.981  20.373  0.00  0.00    +0.000 A 
ATOM     24  C   UNL     1       1.840   7.990  19.968  0.00  0.00    +0.000 A 
BRANCH  19  25
ATOM     25  C   UNL     1       3.290   6.954  18.159  0.00  0.00    +0.000 C 
ATOM     26  O   UNL     1       4.034   7.135  17.209  0.00  0.00    +0.000 OA
BRANCH  25  27
ATOM     27  O   UNL     1       3.121   5.787  18.829  0.00  0.00    +0.000 OA
BRANCH  27  29
ATOM     28  C   UNL     1       1.596   4.321  17.744  0.00  0.00    +0.000 C 
ATOM     29  C   UNL     1       3.063   4.623  17.994  0.00  0.00    +0.000 C 
ENDBRANCH  27  29
ENDBRANCH  25  27
ENDBRANCH  19  25
ENDBRANCH   1  22
BRANCH   7  30
ATOM     30  C   UNL     1      -1.526  15.117  21.938  0.00  0.00    +0.000 A 
ATOM     31  C   UNL     1      -0.410  15.877  21.640  0.00  0.00    +0.000 A 
ATOM     32  C   UNL     1      -0.137  16.864  22.638  0.00  0.00    +0.000 A 
ATOM     33  C   UNL     1      -1.045  16.816  23.668  0.00  0.00    +0.000 A 
ATOM     34  S   UNL     1      -2.229  15.623  23.403  0.00  0.00    +0.000 S 
ENDBRANCH   7  30
TORSDOF 6
ENDMDL
