MODEL 1
REMARK VINA RESULT:      -8.0      0.000      0.000
REMARK  Name = 
REMARK  10 active torsions:
REMARK  status: ('A' for Active; 'I' for Inactive)
REMARK    1  A    between atoms: C_1  and  O_2
REMARK    2  A    between atoms: O_2  and  C_3
REMARK    3  A    between atoms: C_6  and  C_7
REMARK    4  A    between atoms: C_8  and  C_9
REMARK    5  A    between atoms: C_9  and  C_10
REMARK    6  A    between atoms: C_10  and  C_11
REMARK    7  A    between atoms: C_11  and  C_12
REMARK    8  A    between atoms: N_20  and  C_21
REMARK    9  A    between atoms: C_24  and  O_25
REMARK   10  A    between atoms: O_25  and  C_26
REMARK                            x       y       z     vdW  Elec       q    Type
REMARK                         _______ _______ _______ _____ _____    ______ ____
ROOT
ATOM      1  C   UNL     1      -0.049  11.098  21.024  0.00  0.00    +0.000 C 
ATOM      2  C   UNL     1       0.728   9.822  21.485  0.00  0.00    +0.000 C 
ATOM      3  C   UNL     1       0.117  10.133  22.877  0.00  0.00    +0.000 C 
ATOM      4  O   UNL     1       0.281   9.710  24.000  0.00  0.00    +0.000 OA
ATOM      5  N   UNL     1      -0.690  11.089  22.346  0.00  0.00    +0.000 N 
ENDROOT
BRANCH   1   9
ATOM      6  C   UNL     1      -2.517  10.978  17.343  0.00  0.00    +0.000 A 
ATOM      7  C   UNL     1      -2.929  11.734  18.437  0.00  0.00    +0.000 A 
ATOM      8  C   UNL     1      -2.149  11.791  19.594  0.00  0.00    +0.000 A 
ATOM      9  C   UNL     1      -0.955  11.060  19.724  0.00  0.00    +0.000 A 
ATOM     10  C   UNL     1      -0.572  10.294  18.600  0.00  0.00    +0.000 A 
ATOM     11  C   UNL     1      -1.333  10.254  17.429  0.00  0.00    +0.000 A 
BRANCH   6  13
ATOM     12  C   UNL     1      -4.645  11.555  16.510  0.00  0.00    +0.000 C 
ATOM     13  O   UNL     1      -3.361  10.993  16.271  0.00  0.00    +0.000 OA
ENDBRANCH   6  13
ENDBRANCH   1   9
BRANCH   5  14
ATOM     14  C   UNL     1      -1.438  12.110  22.945  0.00  0.00    +0.000 A 
ATOM     15  C   UNL     1      -2.749  11.904  23.378  0.00  0.00    +0.000 A 
ATOM     16  C   UNL     1      -3.464  12.941  23.992  0.00  0.00    +0.000 A 
ATOM     17  C   UNL     1      -2.892  14.202  24.163  0.00  0.00    +0.000 A 
ATOM     18  C   UNL     1      -1.598  14.423  23.705  0.00  0.00    +0.000 A 
ATOM     19  C   UNL     1      -0.874  13.380  23.119  0.00  0.00    +0.000 A 
BRANCH  17  20
ATOM     20  O   UNL     1      -3.693  15.144  24.747  0.00  0.00    +0.000 OA
ATOM     21  C   UNL     1      -3.182  16.473  24.759  0.00  0.00    +0.000 C 
ENDBRANCH  17  20
ENDBRANCH   5  14
BRANCH   2  22
ATOM     22  C   UNL     1       0.389   8.455  20.888  0.00  0.00    +0.000 C 
BRANCH  22  23
ATOM     23  C   UNL     1       1.586   7.511  21.000  0.00  0.00    +0.000 C 
BRANCH  23  24
ATOM     24  C   UNL     1       2.159   7.131  19.629  0.00  0.00    +0.000 C 
BRANCH  24  25
ATOM     25  C   UNL     1       2.963   5.811  19.663  0.00  0.00    +0.000 C 
ATOM     26  C   UNL     1       2.423   4.772  20.664  0.00  0.00    +0.000 C 
ATOM     27  C   UNL     1       1.120   4.113  20.219  0.00  0.00    +0.000 C 
ATOM     28  C   UNL     1       1.201   3.552  18.802  0.00  0.00    +0.000 C 
ATOM     29  C   UNL     1       1.731   4.574  17.802  0.00  0.00    +0.000 C 
ATOM     30  C   UNL     1       3.056   5.175  18.266  0.00  0.00    +0.000 C 
ENDBRANCH  24  25
ENDBRANCH  23  24
ENDBRANCH  22  23
ENDBRANCH   2  22
TORSDOF 8
ENDMDL
MODEL 2
REMARK VINA RESULT:      -7.9      0.642      1.113
REMARK  Name = 
REMARK  10 active torsions:
REMARK  status: ('A' for Active; 'I' for Inactive)
REMARK    1  A    between atoms: C_1  and  O_2
REMARK    2  A    between atoms: O_2  and  C_3
REMARK    3  A    between atoms: C_6  and  C_7
REMARK    4  A    between atoms: C_8  and  C_9
REMARK    5  A    between atoms: C_9  and  C_10
REMARK    6  A    between atoms: C_10  and  C_11
REMARK    7  A    between atoms: C_11  and  C_12
REMARK    8  A    between atoms: N_20  and  C_21
REMARK    9  A    between atoms: C_24  and  O_25
REMARK   10  A    between atoms: O_25  and  C_26
REMARK                            x       y       z     vdW  Elec       q    Type
REMARK                         _______ _______ _______ _____ _____    ______ ____
ROOT
ATOM      1  C   UNL     1      -0.063  11.045  20.952  0.00  0.00    +0.000 C 
ATOM      2  C   UNL     1       0.719   9.770  21.408  0.00  0.00    +0.000 C 
ATOM      3  C   UNL     1       0.137  10.095  22.809  0.00  0.00    +0.000 C 
ATOM      4  O   UNL     1       0.324   9.681  23.932  0.00  0.00    +0.000 OA
ATOM      5  N   UNL     1      -0.677  11.050  22.287  0.00  0.00    +0.000 N 
ENDROOT
BRANCH   1   9
ATOM      6  C   UNL     1      -2.606  10.903  17.323  0.00  0.00    +0.000 A 
ATOM      7  C   UNL     1      -2.987  11.679  18.415  0.00  0.00    +0.000 A 
ATOM      8  C   UNL     1      -2.184  11.743  19.555  0.00  0.00    +0.000 A 
ATOM      9  C   UNL     1      -0.995  11.000  19.671  0.00  0.00    +0.000 A 
ATOM     10  C   UNL     1      -0.645  10.213  18.551  0.00  0.00    +0.000 A 
ATOM     11  C   UNL     1      -1.429  10.166  17.396  0.00  0.00    +0.000 A 
BRANCH   6  13
ATOM     12  C   UNL     1      -2.947  10.429  15.039  0.00  0.00    +0.000 C 
ATOM     13  O   UNL     1      -3.473  10.913  16.269  0.00  0.00    +0.000 OA
ENDBRANCH   6  13
ENDBRANCH   1   9
BRANCH   5  14
ATOM     14  C   UNL     1      -1.409  12.079  22.893  0.00  0.00    +0.000 A 
ATOM     15  C   UNL     1      -0.867  13.350  23.086  0.00  0.00    +0.000 A 
ATOM     16  C   UNL     1      -1.632  14.365  23.677  0.00  0.00    +0.000 A 
ATOM     17  C   UNL     1      -2.938  14.120  24.103  0.00  0.00    +0.000 A 
ATOM     18  C   UNL     1      -3.472  12.847  23.942  0.00  0.00    +0.000 A 
ATOM     19  C   UNL     1      -2.719  11.842  23.326  0.00  0.00    +0.000 A 
BRANCH  17  20
ATOM     20  O   UNL     1      -3.578  15.175  24.692  0.00  0.00    +0.000 OA
ATOM     21  C   UNL     1      -3.265  16.462  24.169  0.00  0.00    +0.000 C 
ENDBRANCH  17  20
ENDBRANCH   5  14
BRANCH   2  22
ATOM     22  C   UNL     1       0.363   8.400  20.829  0.00  0.00    +0.000 C 
BRANCH  22  23
ATOM     23  C   UNL     1       1.631   7.601  20.528  0.00  0.00    +0.000 C 
BRANCH  23  24
ATOM     24  C   UNL     1       1.444   6.098  20.772  0.00  0.00    +0.000 C 
BRANCH  24  25
ATOM     25  C   UNL     1       2.608   5.252  20.207  0.00  0.00    +0.000 C 
ATOM     26  C   UNL     1       2.523   3.755  20.557  0.00  0.00    +0.000 C 
ATOM     27  C   UNL     1       1.439   3.006  19.785  0.00  0.00    +0.000 C 
ATOM     28  C   UNL     1       1.526   3.237  18.280  0.00  0.00    +0.000 C 
ATOM     29  C   UNL     1       1.607   4.717  17.921  0.00  0.00    +0.000 C 
ATOM     30  C   UNL     1       2.731   5.416  18.682  0.00  0.00    +0.000 C 
ENDBRANCH  24  25
ENDBRANCH  23  24
ENDBRANCH  22  23
ENDBRANCH   2  22
TORSDOF 8
ENDMDL
MODEL 3
REMARK VINA RESULT:      -7.8      5.106      9.000
REMARK  Name = 
REMARK  10 active torsions:
REMARK  status: ('A' for Active; 'I' for Inactive)
REMARK    1  A    between atoms: C_1  and  O_2
REMARK    2  A    between atoms: O_2  and  C_3
REMARK    3  A    between atoms: C_6  and  C_7
REMARK    4  A    between atoms: C_8  and  C_9
REMARK    5  A    between atoms: C_9  and  C_10
REMARK    6  A    between atoms: C_10  and  C_11
REMARK    7  A    between atoms: C_11  and  C_12
REMARK    8  A    between atoms: N_20  and  C_21
REMARK    9  A    between atoms: C_24  and  O_25
REMARK   10  A    between atoms: O_25  and  C_26
REMARK                            x       y       z     vdW  Elec       q    Type
REMARK                         _______ _______ _______ _____ _____    ______ ____
ROOT
ATOM      1  C   UNL     1       5.045   6.425  16.899  0.00  0.00    +0.000 C 
ATOM      2  C   UNL     1       5.252   4.985  16.327  0.00  0.00    +0.000 C 
ATOM      3  C   UNL     1       6.752   5.240  16.629  0.00  0.00    +0.000 C 
ATOM      4  O   UNL     1       7.789   4.669  16.372  0.00  0.00    +0.000 OA
ATOM      5  N   UNL     1       6.457   6.382  17.305  0.00  0.00    +0.000 N 
ENDROOT
BRANCH   1   9
ATOM      6  C   UNL     1       1.930   7.276  19.937  0.00  0.00    +0.000 A 
ATOM      7  C   UNL     1       2.854   6.256  20.148  0.00  0.00    +0.000 A 
ATOM      8  C   UNL     1       3.849   5.992  19.205  0.00  0.00    +0.000 A 
ATOM      9  C   UNL     1       3.933   6.702  17.993  0.00  0.00    +0.000 A 
ATOM     10  C   UNL     1       2.973   7.722  17.806  0.00  0.00    +0.000 A 
ATOM     11  C   UNL     1       1.992   8.010  18.758  0.00  0.00    +0.000 A 
BRANCH   6  13
ATOM     12  C   UNL     1       0.997   8.710  21.559  0.00  0.00    +0.000 C 
ATOM     13  O   UNL     1       1.002   7.437  20.925  0.00  0.00    +0.000 OA
ENDBRANCH   6  13
ENDBRANCH   1   9
BRANCH   5  14
ATOM     14  C   UNL     1       7.262   7.447  17.726  0.00  0.00    +0.000 A 
ATOM     15  C   UNL     1       7.166   8.714  17.149  0.00  0.00    +0.000 A 
ATOM     16  C   UNL     1       7.973   9.765  17.606  0.00  0.00    +0.000 A 
ATOM     17  C   UNL     1       8.900   9.562  18.629  0.00  0.00    +0.000 A 
ATOM     18  C   UNL     1       9.023   8.294  19.186  0.00  0.00    +0.000 A 
ATOM     19  C   UNL     1       8.198   7.253  18.750  0.00  0.00    +0.000 A 
BRANCH  17  20
ATOM     20  O   UNL     1       9.652  10.651  18.973  0.00  0.00    +0.000 OA
ATOM     21  C   UNL     1       9.519  11.098  20.319  0.00  0.00    +0.000 C 
ENDBRANCH  17  20
ENDBRANCH   5  14
BRANCH   2  22
ATOM     22  C   UNL     1       4.618   3.780  17.025  0.00  0.00    +0.000 C 
BRANCH  22  23
ATOM     23  C   UNL     1       3.213   3.525  16.479  0.00  0.00    +0.000 C 
BRANCH  23  24
ATOM     24  C   UNL     1       2.132   3.688  17.554  0.00  0.00    +0.000 C 
BRANCH  24  25
ATOM     25  C   UNL     1       1.812   2.363  18.285  0.00  0.00    +0.000 C 
ATOM     26  C   UNL     1       2.998   1.779  19.075  0.00  0.00    +0.000 C 
ATOM     27  C   UNL     1       3.322   2.552  20.352  0.00  0.00    +0.000 C 
ATOM     28  C   UNL     1       2.096   2.763  21.235  0.00  0.00    +0.000 C 
ATOM     29  C   UNL     1       0.916   3.344  20.464  0.00  0.00    +0.000 C 
ATOM     30  C   UNL     1       0.600   2.517  19.220  0.00  0.00    +0.000 C 
ENDBRANCH  24  25
ENDBRANCH  23  24
ENDBRANCH  22  23
ENDBRANCH   2  22
TORSDOF 8
ENDMDL
MODEL 4
REMARK VINA RESULT:      -7.7      0.652      1.601
REMARK  Name = 
REMARK  10 active torsions:
REMARK  status: ('A' for Active; 'I' for Inactive)
REMARK    1  A    between atoms: C_1  and  O_2
REMARK    2  A    between atoms: O_2  and  C_3
REMARK    3  A    between atoms: C_6  and  C_7
REMARK    4  A    between atoms: C_8  and  C_9
REMARK    5  A    between atoms: C_9  and  C_10
REMARK    6  A    between atoms: C_10  and  C_11
REMARK    7  A    between atoms: C_11  and  C_12
REMARK    8  A    between atoms: N_20  and  C_21
REMARK    9  A    between atoms: C_24  and  O_25
REMARK   10  A    between atoms: O_25  and  C_26
REMARK                            x       y       z     vdW  Elec       q    Type
REMARK                         _______ _______ _______ _____ _____    ______ ____
ROOT
ATOM      1  C   UNL     1      -0.174  11.205  20.854  0.00  0.00    +0.000 C 
ATOM      2  C   UNL     1       0.685   9.959  21.246  0.00  0.00    +0.000 C 
ATOM      3  C   UNL     1       0.160  10.232  22.680  0.00  0.00    +0.000 C 
ATOM      4  O   UNL     1       0.419   9.808  23.785  0.00  0.00    +0.000 OA
ATOM      5  N   UNL     1      -0.720  11.159  22.217  0.00  0.00    +0.000 N 
ENDROOT
BRANCH   1   9
ATOM      6  C   UNL     1      -3.008  11.045  17.449  0.00  0.00    +0.000 A 
ATOM      7  C   UNL     1      -1.866  10.250  17.446  0.00  0.00    +0.000 A 
ATOM      8  C   UNL     1      -0.977  10.281  18.522  0.00  0.00    +0.000 A 
ATOM      9  C   UNL     1      -1.166  11.141  19.620  0.00  0.00    +0.000 A 
ATOM     10  C   UNL     1      -2.328  11.943  19.584  0.00  0.00    +0.000 A 
ATOM     11  C   UNL     1      -3.237  11.896  18.524  0.00  0.00    +0.000 A 
BRANCH   6  13
ATOM     12  C   UNL     1      -3.128  10.575  15.142  0.00  0.00    +0.000 C 
ATOM     13  O   UNL     1      -3.800  10.934  16.342  0.00  0.00    +0.000 OA
ENDBRANCH   6  13
ENDBRANCH   1   9
BRANCH   5  14
ATOM     14  C   UNL     1      -1.465  12.144  22.878  0.00  0.00    +0.000 A 
ATOM     15  C   UNL     1      -0.938  13.409  23.145  0.00  0.00    +0.000 A 
ATOM     16  C   UNL     1      -1.716  14.380  23.790  0.00  0.00    +0.000 A 
ATOM     17  C   UNL     1      -3.020  14.097  24.196  0.00  0.00    +0.000 A 
ATOM     18  C   UNL     1      -3.540  12.829  23.962  0.00  0.00    +0.000 A 
ATOM     19  C   UNL     1      -2.774  11.869  23.293  0.00  0.00    +0.000 A 
BRANCH  17  20
ATOM     20  O   UNL     1      -3.674  15.110  24.842  0.00  0.00    +0.000 OA
ATOM     21  C   UNL     1      -3.171  16.422  24.609  0.00  0.00    +0.000 C 
ENDBRANCH  17  20
ENDBRANCH   5  14
BRANCH   2  22
ATOM     22  C   UNL     1       0.360   8.584  20.659  0.00  0.00    +0.000 C 
BRANCH  22  23
ATOM     23  C   UNL     1       1.454   7.578  21.017  0.00  0.00    +0.000 C 
BRANCH  23  24
ATOM     24  C   UNL     1       2.115   6.970  19.775  0.00  0.00    +0.000 C 
BRANCH  24  25
ATOM     25  C   UNL     1       2.592   5.517  20.002  0.00  0.00    +0.000 C 
ATOM     26  C   UNL     1       1.679   4.449  19.372  0.00  0.00    +0.000 C 
ATOM     27  C   UNL     1       1.781   4.378  17.850  0.00  0.00    +0.000 C 
ATOM     28  C   UNL     1       3.223   4.254  17.366  0.00  0.00    +0.000 C 
ATOM     29  C   UNL     1       4.137   5.308  17.981  0.00  0.00    +0.000 C 
ATOM     30  C   UNL     1       4.034   5.316  19.505  0.00  0.00    +0.000 C 
ENDBRANCH  24  25
ENDBRANCH  23  24
ENDBRANCH  22  23
ENDBRANCH   2  22
TORSDOF 8
ENDMDL
MODEL 5
REMARK VINA RESULT:      -7.7      0.678      1.112
REMARK  Name = 
REMARK  10 active torsions:
REMARK  status: ('A' for Active; 'I' for Inactive)
REMARK    1  A    between atoms: C_1  and  O_2
REMARK    2  A    between atoms: O_2  and  C_3
REMARK    3  A    between atoms: C_6  and  C_7
REMARK    4  A    between atoms: C_8  and  C_9
REMARK    5  A    between atoms: C_9  and  C_10
REMARK    6  A    between atoms: C_10  and  C_11
REMARK    7  A    between atoms: C_11  and  C_12
REMARK    8  A    between atoms: N_20  and  C_21
REMARK    9  A    between atoms: C_24  and  O_25
REMARK   10  A    between atoms: O_25  and  C_26
REMARK                            x       y       z     vdW  Elec       q    Type
REMARK                         _______ _______ _______ _____ _____    ______ ____
ROOT
ATOM      1  C   UNL     1       0.132  10.953  21.102  0.00  0.00    +0.000 C 
ATOM      2  C   UNL     1       0.819   9.649  21.625  0.00  0.00    +0.000 C 
ATOM      3  C   UNL     1       0.120   9.996  22.966  0.00  0.00    +0.000 C 
ATOM      4  O   UNL     1       0.182   9.576  24.101  0.00  0.00    +0.000 OA
ATOM      5  N   UNL     1      -0.605  10.981  22.372  0.00  0.00    +0.000 N 
ENDROOT
BRANCH   1   9
ATOM      6  C   UNL     1      -2.192  10.948  17.326  0.00  0.00    +0.000 A 
ATOM      7  C   UNL     1      -1.106  10.089  17.481  0.00  0.00    +0.000 A 
ATOM      8  C   UNL     1      -0.380  10.073  18.673  0.00  0.00    +0.000 A 
ATOM      9  C   UNL     1      -0.675  10.943  19.738  0.00  0.00    +0.000 A 
ATOM     10  C   UNL     1      -1.774  11.809  19.543  0.00  0.00    +0.000 A 
ATOM     11  C   UNL     1      -2.524  11.811  18.364  0.00  0.00    +0.000 A 
BRANCH   6  13
ATOM     12  C   UNL     1      -4.241  10.964  16.160  0.00  0.00    +0.000 C 
ATOM     13  O   UNL     1      -2.822  10.880  16.117  0.00  0.00    +0.000 OA
ENDBRANCH   6  13
ENDBRANCH   1   9
BRANCH   5  14
ATOM     14  C   UNL     1      -1.352  12.037  22.909  0.00  0.00    +0.000 A 
ATOM     15  C   UNL     1      -2.671  11.864  23.331  0.00  0.00    +0.000 A 
ATOM     16  C   UNL     1      -3.385  12.936  23.883  0.00  0.00    +0.000 A 
ATOM     17  C   UNL     1      -2.803  14.198  24.001  0.00  0.00    +0.000 A 
ATOM     18  C   UNL     1      -1.500  14.385  23.553  0.00  0.00    +0.000 A 
ATOM     19  C   UNL     1      -0.777  13.308  23.029  0.00  0.00    +0.000 A 
BRANCH  17  20
ATOM     20  O   UNL     1      -3.603  15.175  24.526  0.00  0.00    +0.000 OA
ATOM     21  C   UNL     1      -4.846  15.383  23.863  0.00  0.00    +0.000 C 
ENDBRANCH  17  20
ENDBRANCH   5  14
BRANCH   2  22
ATOM     22  C   UNL     1       0.468   8.293  21.011  0.00  0.00    +0.000 C 
BRANCH  22  23
ATOM     23  C   UNL     1       1.738   7.547  20.602  0.00  0.00    +0.000 C 
BRANCH  23  24
ATOM     24  C   UNL     1       1.530   6.028  20.553  0.00  0.00    +0.000 C 
BRANCH  24  25
ATOM     25  C   UNL     1       2.729   5.281  19.924  0.00  0.00    +0.000 C 
ATOM     26  C   UNL     1       2.854   3.811  20.364  0.00  0.00    +0.000 C 
ATOM     27  C   UNL     1       1.799   2.896  19.747  0.00  0.00    +0.000 C 
ATOM     28  C   UNL     1       1.721   3.033  18.230  0.00  0.00    +0.000 C 
ATOM     29  C   UNL     1       1.594   4.485  17.782  0.00  0.00    +0.000 C 
ATOM     30  C   UNL     1       2.693   5.355  18.388  0.00  0.00    +0.000 C 
ENDBRANCH  24  25
ENDBRANCH  23  24
ENDBRANCH  22  23
ENDBRANCH   2  22
TORSDOF 8
ENDMDL
MODEL 6
REMARK VINA RESULT:      -7.7      0.787      1.021
REMARK  Name = 
REMARK  10 active torsions:
REMARK  status: ('A' for Active; 'I' for Inactive)
REMARK    1  A    between atoms: C_1  and  O_2
REMARK    2  A    between atoms: O_2  and  C_3
REMARK    3  A    between atoms: C_6  and  C_7
REMARK    4  A    between atoms: C_8  and  C_9
REMARK    5  A    between atoms: C_9  and  C_10
REMARK    6  A    between atoms: C_10  and  C_11
REMARK    7  A    between atoms: C_11  and  C_12
REMARK    8  A    between atoms: N_20  and  C_21
REMARK    9  A    between atoms: C_24  and  O_25
REMARK   10  A    between atoms: O_25  and  C_26
REMARK                            x       y       z     vdW  Elec       q    Type
REMARK                         _______ _______ _______ _____ _____    ______ ____
ROOT
ATOM      1  C   UNL     1      -0.179  11.133  20.820  0.00  0.00    +0.000 C 
ATOM      2  C   UNL     1       0.615   9.874  21.301  0.00  0.00    +0.000 C 
ATOM      3  C   UNL     1       0.045  10.231  22.698  0.00  0.00    +0.000 C 
ATOM      4  O   UNL     1       0.243   9.848  23.830  0.00  0.00    +0.000 OA
ATOM      5  N   UNL     1      -0.780  11.168  22.160  0.00  0.00    +0.000 N 
ENDROOT
BRANCH   1   9
ATOM      6  C   UNL     1      -2.755  10.883  17.220  0.00  0.00    +0.000 A 
ATOM      7  C   UNL     1      -3.130  11.684  18.295  0.00  0.00    +0.000 A 
ATOM      8  C   UNL     1      -2.317  11.782  19.426  0.00  0.00    +0.000 A 
ATOM      9  C   UNL     1      -1.122  11.049  19.549  0.00  0.00    +0.000 A 
ATOM     10  C   UNL     1      -0.778  10.237  18.445  0.00  0.00    +0.000 A 
ATOM     11  C   UNL     1      -1.572  10.157  17.299  0.00  0.00    +0.000 A 
BRANCH   6  13
ATOM     12  C   UNL     1      -3.096  10.412  14.935  0.00  0.00    +0.000 C 
ATOM     13  O   UNL     1      -3.631  10.863  16.173  0.00  0.00    +0.000 OA
ENDBRANCH   6  13
ENDBRANCH   1   9
BRANCH   5  14
ATOM     14  C   UNL     1      -1.511  12.208  22.746  0.00  0.00    +0.000 A 
ATOM     15  C   UNL     1      -2.877  12.088  23.011  0.00  0.00    +0.000 A 
ATOM     16  C   UNL     1      -3.576  13.140  23.617  0.00  0.00    +0.000 A 
ATOM     17  C   UNL     1      -2.931  14.333  23.945  0.00  0.00    +0.000 A 
ATOM     18  C   UNL     1      -1.579  14.471  23.654  0.00  0.00    +0.000 A 
ATOM     19  C   UNL     1      -0.874  13.411  23.076  0.00  0.00    +0.000 A 
BRANCH  17  20
ATOM     20  O   UNL     1      -3.720  15.300  24.505  0.00  0.00    +0.000 OA
ATOM     21  C   UNL     1      -5.063  15.356  24.034  0.00  0.00    +0.000 C 
ENDBRANCH  17  20
ENDBRANCH   5  14
BRANCH   2  22
ATOM     22  C   UNL     1       0.261   8.487  20.761  0.00  0.00    +0.000 C 
BRANCH  22  23
ATOM     23  C   UNL     1       1.363   7.483  21.100  0.00  0.00    +0.000 C 
BRANCH  23  24
ATOM     24  C   UNL     1       2.131   7.018  19.857  0.00  0.00    +0.000 C 
BRANCH  24  25
ATOM     25  C   UNL     1       2.797   5.636  20.049  0.00  0.00    +0.000 C 
ATOM     26  C   UNL     1       1.877   4.445  19.723  0.00  0.00    +0.000 C 
ATOM     27  C   UNL     1       1.626   4.257  18.228  0.00  0.00    +0.000 C 
ATOM     28  C   UNL     1       2.917   4.219  17.418  0.00  0.00    +0.000 C 
ATOM     29  C   UNL     1       3.835   5.397  17.730  0.00  0.00    +0.000 C 
ATOM     30  C   UNL     1       4.094   5.521  19.230  0.00  0.00    +0.000 C 
ENDBRANCH  24  25
ENDBRANCH  23  24
ENDBRANCH  22  23
ENDBRANCH   2  22
TORSDOF 8
ENDMDL
MODEL 7
REMARK VINA RESULT:      -7.6      5.150      8.987
REMARK  Name = 
REMARK  10 active torsions:
REMARK  status: ('A' for Active; 'I' for Inactive)
REMARK    1  A    between atoms: C_1  and  O_2
REMARK    2  A    between atoms: O_2  and  C_3
REMARK    3  A    between atoms: C_6  and  C_7
REMARK    4  A    between atoms: C_8  and  C_9
REMARK    5  A    between atoms: C_9  and  C_10
REMARK    6  A    between atoms: C_10  and  C_11
REMARK    7  A    between atoms: C_11  and  C_12
REMARK    8  A    between atoms: N_20  and  C_21
REMARK    9  A    between atoms: C_24  and  O_25
REMARK   10  A    between atoms: O_25  and  C_26
REMARK                            x       y       z     vdW  Elec       q    Type
REMARK                         _______ _______ _______ _____ _____    ______ ____
ROOT
ATOM      1  C   UNL     1       5.080   6.442  16.904  0.00  0.00    +0.000 C 
ATOM      2  C   UNL     1       5.288   5.007  16.317  0.00  0.00    +0.000 C 
ATOM      3  C   UNL     1       6.786   5.257  16.630  0.00  0.00    +0.000 C 
ATOM      4  O   UNL     1       7.824   4.687  16.372  0.00  0.00    +0.000 OA
ATOM      5  N   UNL     1       6.489   6.392  17.316  0.00  0.00    +0.000 N 
ENDROOT
BRANCH   1   9
ATOM      6  C   UNL     1       1.960   7.113  19.981  0.00  0.00    +0.000 A 
ATOM      7  C   UNL     1       1.960   7.864  18.809  0.00  0.00    +0.000 A 
ATOM      8  C   UNL     1       2.929   7.648  17.827  0.00  0.00    +0.000 A 
ATOM      9  C   UNL     1       3.963   6.709  17.995  0.00  0.00    +0.000 A 
ATOM     10  C   UNL     1       3.940   5.973  19.201  0.00  0.00    +0.000 A 
ATOM     11  C   UNL     1       2.957   6.164  20.175  0.00  0.00    +0.000 A 
BRANCH   6  13
ATOM     12  C   UNL     1       1.088   8.678  21.513  0.00  0.00    +0.000 C 
ATOM     13  O   UNL     1       0.969   7.416  20.869  0.00  0.00    +0.000 OA
ENDBRANCH   6  13
ENDBRANCH   1   9
BRANCH   5  14
ATOM     14  C   UNL     1       7.295   7.451  17.753  0.00  0.00    +0.000 A 
ATOM     15  C   UNL     1       8.244   7.284  18.763  0.00  0.00    +0.000 A 
ATOM     16  C   UNL     1       9.049   8.359  19.164  0.00  0.00    +0.000 A 
ATOM     17  C   UNL     1       8.903   9.618  18.581  0.00  0.00    +0.000 A 
ATOM     18  C   UNL     1       7.937   9.798  17.597  0.00  0.00    +0.000 A 
ATOM     19  C   UNL     1       7.154   8.719  17.176  0.00  0.00    +0.000 A 
BRANCH  17  20
ATOM     20  O   UNL     1       9.722  10.598  19.071  0.00  0.00    +0.000 OA
ATOM     21  C   UNL     1       9.418  11.061  20.383  0.00  0.00    +0.000 C 
ENDBRANCH  17  20
ENDBRANCH   5  14
BRANCH   2  22
ATOM     22  C   UNL     1       4.647   3.797  16.999  0.00  0.00    +0.000 C 
BRANCH  22  23
ATOM     23  C   UNL     1       3.237   3.562  16.457  0.00  0.00    +0.000 C 
BRANCH  23  24
ATOM     24  C   UNL     1       2.165   3.704  17.543  0.00  0.00    +0.000 C 
BRANCH  24  25
ATOM     25  C   UNL     1       1.840   2.362  18.241  0.00  0.00    +0.000 C 
ATOM     26  C   UNL     1       3.015   1.772  19.044  0.00  0.00    +0.000 C 
ATOM     27  C   UNL     1       3.307   2.522  20.342  0.00  0.00    +0.000 C 
ATOM     28  C   UNL     1       2.062   2.706  21.204  0.00  0.00    +0.000 C 
ATOM     29  C   UNL     1       0.893   3.294  20.420  0.00  0.00    +0.000 C 
ATOM     30  C   UNL     1       0.609   2.489  19.154  0.00  0.00    +0.000 C 
ENDBRANCH  24  25
ENDBRANCH  23  24
ENDBRANCH  22  23
ENDBRANCH   2  22
TORSDOF 8
ENDMDL
MODEL 8
REMARK VINA RESULT:      -7.6      5.003      9.004
REMARK  Name = 
REMARK  10 active torsions:
REMARK  status: ('A' for Active; 'I' for Inactive)
REMARK    1  A    between atoms: C_1  and  O_2
REMARK    2  A    between atoms: O_2  and  C_3
REMARK    3  A    between atoms: C_6  and  C_7
REMARK    4  A    between atoms: C_8  and  C_9
REMARK    5  A    between atoms: C_9  and  C_10
REMARK    6  A    between atoms: C_10  and  C_11
REMARK    7  A    between atoms: C_11  and  C_12
REMARK    8  A    between atoms: N_20  and  C_21
REMARK    9  A    between atoms: C_24  and  O_25
REMARK   10  A    between atoms: O_25  and  C_26
REMARK                            x       y       z     vdW  Elec       q    Type
REMARK                         _______ _______ _______ _____ _____    ______ ____
ROOT
ATOM      1  C   UNL     1       4.989   6.547  16.905  0.00  0.00    +0.000 C 
ATOM      2  C   UNL     1       5.191   5.108  16.328  0.00  0.00    +0.000 C 
ATOM      3  C   UNL     1       6.695   5.367  16.609  0.00  0.00    +0.000 C 
ATOM      4  O   UNL     1       7.729   4.799  16.335  0.00  0.00    +0.000 OA
ATOM      5  N   UNL     1       6.406   6.507  17.290  0.00  0.00    +0.000 N 
ENDROOT
BRANCH   1   9
ATOM      6  C   UNL     1       1.924   7.232  20.034  0.00  0.00    +0.000 A 
ATOM      7  C   UNL     1       1.948   8.028  18.892  0.00  0.00    +0.000 A 
ATOM      8  C   UNL     1       2.899   7.808  17.894  0.00  0.00    +0.000 A 
ATOM      9  C   UNL     1       3.892   6.820  18.016  0.00  0.00    +0.000 A 
ATOM     10  C   UNL     1       3.846   6.039  19.193  0.00  0.00    +0.000 A 
ATOM     11  C   UNL     1       2.880   6.234  20.183  0.00  0.00    +0.000 A 
BRANCH   6  13
ATOM     12  C   UNL     1       0.769   8.931  21.191  0.00  0.00    +0.000 C 
ATOM     13  O   UNL     1       0.953   7.544  20.942  0.00  0.00    +0.000 OA
ENDBRANCH   6  13
ENDBRANCH   1   9
BRANCH   5  14
ATOM     14  C   UNL     1       7.215   7.573  17.701  0.00  0.00    +0.000 A 
ATOM     15  C   UNL     1       7.070   8.855  17.167  0.00  0.00    +0.000 A 
ATOM     16  C   UNL     1       7.881   9.906  17.614  0.00  0.00    +0.000 A 
ATOM     17  C   UNL     1       8.864   9.690  18.581  0.00  0.00    +0.000 A 
ATOM     18  C   UNL     1       9.035   8.409  19.094  0.00  0.00    +0.000 A 
ATOM     19  C   UNL     1       8.206   7.366  18.669  0.00  0.00    +0.000 A 
BRANCH  17  20
ATOM     20  O   UNL     1       9.615  10.781  18.919  0.00  0.00    +0.000 OA
ATOM     21  C   UNL     1      10.337  11.392  17.854  0.00  0.00    +0.000 C 
ENDBRANCH  17  20
ENDBRANCH   5  14
BRANCH   2  22
ATOM     22  C   UNL     1       4.570   3.901  17.034  0.00  0.00    +0.000 C 
BRANCH  22  23
ATOM     23  C   UNL     1       3.173   3.620  16.481  0.00  0.00    +0.000 C 
BRANCH  23  24
ATOM     24  C   UNL     1       2.085   3.746  17.555  0.00  0.00    +0.000 C 
BRANCH  24  25
ATOM     25  C   UNL     1       1.781   2.402  18.257  0.00  0.00    +0.000 C 
ATOM     26  C   UNL     1       2.982   1.803  19.013  0.00  0.00    +0.000 C 
ATOM     27  C   UNL     1       3.325   2.544  20.303  0.00  0.00    +0.000 C 
ATOM     28  C   UNL     1       2.113   2.729  21.211  0.00  0.00    +0.000 C 
ATOM     29  C   UNL     1       0.919   3.326  20.474  0.00  0.00    +0.000 C 
ATOM     30  C   UNL     1       0.585   2.529  19.215  0.00  0.00    +0.000 C 
ENDBRANCH  24  25
ENDBRANCH  23  24
ENDBRANCH  22  23
ENDBRANCH   2  22
TORSDOF 8
ENDMDL
MODEL 9
REMARK VINA RESULT:      -7.5      0.916      1.650
REMARK  Name = 
REMARK  10 active torsions:
REMARK  status: ('A' for Active; 'I' for Inactive)
REMARK    1  A    between atoms: C_1  and  O_2
REMARK    2  A    between atoms: O_2  and  C_3
REMARK    3  A    between atoms: C_6  and  C_7
REMARK    4  A    between atoms: C_8  and  C_9
REMARK    5  A    between atoms: C_9  and  C_10
REMARK    6  A    between atoms: C_10  and  C_11
REMARK    7  A    between atoms: C_11  and  C_12
REMARK    8  A    between atoms: N_20  and  C_21
REMARK    9  A    between atoms: C_24  and  O_25
REMARK   10  A    between atoms: O_25  and  C_26
REMARK                            x       y       z     vdW  Elec       q    Type
REMARK                         _______ _______ _______ _____ _____    ______ ____
ROOT
ATOM      1  C   UNL     1       0.151  10.855  20.994  0.00  0.00    +0.000 C 
ATOM      2  C   UNL     1       0.839   9.565  21.549  0.00  0.00    +0.000 C 
ATOM      3  C   UNL     1       0.176   9.967  22.893  0.00  0.00    +0.000 C 
ATOM      4  O   UNL     1       0.262   9.589  24.040  0.00  0.00    +0.000 OA
ATOM      5  N   UNL     1      -0.554  10.937  22.281  0.00  0.00    +0.000 N 
ENDROOT
BRANCH   1   9
ATOM      6  C   UNL     1      -2.267  10.720  17.281  0.00  0.00    +0.000 A 
ATOM      7  C   UNL     1      -1.075  10.006  17.366  0.00  0.00    +0.000 A 
ATOM      8  C   UNL     1      -0.316  10.029  18.538  0.00  0.00    +0.000 A 
ATOM      9  C   UNL     1      -0.690  10.802  19.652  0.00  0.00    +0.000 A 
ATOM     10  C   UNL     1      -1.898  11.524  19.527  0.00  0.00    +0.000 A 
ATOM     11  C   UNL     1      -2.677  11.484  18.368  0.00  0.00    +0.000 A 
BRANCH   6  13
ATOM     12  C   UNL     1      -4.236  11.165  16.062  0.00  0.00    +0.000 C 
ATOM     13  O   UNL     1      -2.920  10.627  16.086  0.00  0.00    +0.000 OA
ENDBRANCH   6  13
ENDBRANCH   1   9
BRANCH   5  14
ATOM     14  C   UNL     1      -1.278  12.020  22.796  0.00  0.00    +0.000 A 
ATOM     15  C   UNL     1      -2.588  11.876  23.255  0.00  0.00    +0.000 A 
ATOM     16  C   UNL     1      -3.279  12.975  23.784  0.00  0.00    +0.000 A 
ATOM     17  C   UNL     1      -2.682  14.235  23.841  0.00  0.00    +0.000 A 
ATOM     18  C   UNL     1      -1.388  14.391  23.355  0.00  0.00    +0.000 A 
ATOM     19  C   UNL     1      -0.689  13.289  22.855  0.00  0.00    +0.000 A 
BRANCH  17  20
ATOM     20  O   UNL     1      -3.460  15.238  24.349  0.00  0.00    +0.000 OA
ATOM     21  C   UNL     1      -4.829  15.222  23.956  0.00  0.00    +0.000 C 
ENDBRANCH  17  20
ENDBRANCH   5  14
BRANCH   2  22
ATOM     22  C   UNL     1       0.460   8.191  20.994  0.00  0.00    +0.000 C 
BRANCH  22  23
ATOM     23  C   UNL     1       1.685   7.501  20.393  0.00  0.00    +0.000 C 
BRANCH  23  24
ATOM     24  C   UNL     1       1.881   6.081  20.939  0.00  0.00    +0.000 C 
BRANCH  24  25
ATOM     25  C   UNL     1       1.523   4.989  19.905  0.00  0.00    +0.000 C 
ATOM     26  C   UNL     1       2.643   4.695  18.890  0.00  0.00    +0.000 C 
ATOM     27  C   UNL     1       3.820   3.925  19.483  0.00  0.00    +0.000 C 
ATOM     28  C   UNL     1       3.382   2.669  20.229  0.00  0.00    +0.000 C 
ATOM     29  C   UNL     1       2.275   2.948  21.240  0.00  0.00    +0.000 C 
ATOM     30  C   UNL     1       1.101   3.681  20.595  0.00  0.00    +0.000 C 
ENDBRANCH  24  25
ENDBRANCH  23  24
ENDBRANCH  22  23
ENDBRANCH   2  22
TORSDOF 8
ENDMDL
