MODEL 1
REMARK VINA RESULT:      -6.9      0.000      0.000
REMARK  Name = 
REMARK  11 active torsions:
REMARK  status: ('A' for Active; 'I' for Inactive)
REMARK    1  A    between atoms: C_1  and  O_2
REMARK    2  A    between atoms: O_2  and  C_3
REMARK    3  A    between atoms: C_5  and  C_6
REMARK    4  A    between atoms: N_7  and  N_8
REMARK    5  A    between atoms: C_9  and  S_10
REMARK    6  A    between atoms: S_10  and  C_11
REMARK    7  A    between atoms: C_14  and  C_15
REMARK    8  A    between atoms: C_15  and  C_16
REMARK    9  A    between atoms: C_15  and  C_17
REMARK   10  A    between atoms: C_15  and  C_18
REMARK   11  A    between atoms: C_23  and  O_24
REMARK                            x       y       z     vdW  Elec       q    Type
REMARK                         _______ _______ _______ _____ _____    ______ ____
ROOT
ATOM      1  N   UNL     1       2.971   5.396  18.886  0.00  0.00    +0.000 N 
ATOM      2  C   UNL     1       2.554   4.082  19.017  0.00  0.00    +0.000 A 
ATOM      3  N   UNL     1       3.080   3.090  18.374  0.00  0.00    +0.000 NA
ATOM      4  N   UNL     1       4.107   3.300  17.467  0.00  0.00    +0.000 NA
ATOM      5  C   UNL     1       4.614   4.486  17.320  0.00  0.00    +0.000 A 
ATOM      6  C   UNL     1       4.109   5.661  18.139  0.00  0.00    +0.000 A 
ATOM      7  O   UNL     1       4.731   6.718  18.122  0.00  0.00    +0.000 OA
ENDROOT
BRANCH   5   8
ATOM      8  C   UNL     1       5.734   4.713  16.279  0.00  0.00    +0.000 C 
ATOM      9  C   UNL     1       5.781   3.521  15.294  0.00  0.00    +0.000 C 
ATOM     10  C   UNL     1       5.439   5.982  15.465  0.00  0.00    +0.000 C 
ATOM     11  C   UNL     1       7.114   4.809  16.944  0.00  0.00    +0.000 C 
ENDBRANCH   5   8
BRANCH   1  13
ATOM     12  C   UNL     1       1.862   7.389  19.244  0.00  0.00    +0.000 C 
ATOM     13  N   UNL     1       2.462   6.359  19.755  0.00  0.00    +0.000 NA
BRANCH  12  16
ATOM     14  C   UNL     1       0.556  10.750  20.387  0.00  0.00    +0.000 A 
ATOM     15  C   UNL     1       1.064   9.724  19.573  0.00  0.00    +0.000 A 
ATOM     16  C   UNL     1       1.372   8.475  20.118  0.00  0.00    +0.000 A 
ATOM     17  C   UNL     1       1.212   8.246  21.484  0.00  0.00    +0.000 A 
ATOM     18  C   UNL     1       0.727   9.264  22.304  0.00  0.00    +0.000 A 
ATOM     19  C   UNL     1       0.389  10.507  21.757  0.00  0.00    +0.000 A 
BRANCH  14  21
ATOM     20  C   UNL     1       1.229  12.360  18.745  0.00  0.00    +0.000 C 
ATOM     21  O   UNL     1       0.273  11.894  19.689  0.00  0.00    +0.000 OA
ENDBRANCH  14  21
BRANCH  19  22
ATOM     22  O   UNL     1      -0.106  11.462  22.600  0.00  0.00    +0.000 OA
ATOM     23  H   UNL     1       0.536  11.630  23.310  0.00  0.00    +0.000 HD
ENDBRANCH  19  22
ENDBRANCH  12  16
ENDBRANCH   1  13
BRANCH   2  24
ATOM     24  S   UNL     1       1.195   3.758  20.095  0.00  0.00    +0.000 S 
ATOM     25  C   UNL     1       2.052   3.140  21.560  0.00  0.00    +0.000 C 
ENDBRANCH   2  24
TORSDOF 6
ENDMDL
MODEL 2
REMARK VINA RESULT:      -6.9      0.513      1.055
REMARK  Name = 
REMARK  11 active torsions:
REMARK  status: ('A' for Active; 'I' for Inactive)
REMARK    1  A    between atoms: C_1  and  O_2
REMARK    2  A    between atoms: O_2  and  C_3
REMARK    3  A    between atoms: C_5  and  C_6
REMARK    4  A    between atoms: N_7  and  N_8
REMARK    5  A    between atoms: C_9  and  S_10
REMARK    6  A    between atoms: S_10  and  C_11
REMARK    7  A    between atoms: C_14  and  C_15
REMARK    8  A    between atoms: C_15  and  C_16
REMARK    9  A    between atoms: C_15  and  C_17
REMARK   10  A    between atoms: C_15  and  C_18
REMARK   11  A    between atoms: C_23  and  O_24
REMARK                            x       y       z     vdW  Elec       q    Type
REMARK                         _______ _______ _______ _____ _____    ______ ____
ROOT
ATOM      1  N   UNL     1       2.961   5.381  18.841  0.00  0.00    +0.000 N 
ATOM      2  C   UNL     1       2.577   4.057  18.973  0.00  0.00    +0.000 A 
ATOM      3  N   UNL     1       3.121   3.078  18.326  0.00  0.00    +0.000 NA
ATOM      4  N   UNL     1       4.135   3.314  17.410  0.00  0.00    +0.000 NA
ATOM      5  C   UNL     1       4.612   4.512  17.259  0.00  0.00    +0.000 A 
ATOM      6  C   UNL     1       4.085   5.674  18.084  0.00  0.00    +0.000 A 
ATOM      7  O   UNL     1       4.681   6.745  18.062  0.00  0.00    +0.000 OA
ENDROOT
BRANCH   5   8
ATOM      8  C   UNL     1       5.716   4.766  16.208  0.00  0.00    +0.000 C 
ATOM      9  C   UNL     1       7.066   5.019  16.919  0.00  0.00    +0.000 C 
ATOM     10  C   UNL     1       5.881   3.526  15.317  0.00  0.00    +0.000 C 
ATOM     11  C   UNL     1       5.411   6.005  15.355  0.00  0.00    +0.000 C 
ENDBRANCH   5   8
BRANCH   1  13
ATOM     12  C   UNL     1       1.900   7.398  19.209  0.00  0.00    +0.000 C 
ATOM     13  N   UNL     1       2.436   6.331  19.715  0.00  0.00    +0.000 NA
BRANCH  12  16
ATOM     14  C   UNL     1       0.453  10.692  20.374  0.00  0.00    +0.000 A 
ATOM     15  C   UNL     1       0.972   9.683  19.547  0.00  0.00    +0.000 A 
ATOM     16  C   UNL     1       1.398   8.470  20.093  0.00  0.00    +0.000 A 
ATOM     17  C   UNL     1       1.345   8.263  21.472  0.00  0.00    +0.000 A 
ATOM     18  C   UNL     1       0.849   9.266  22.303  0.00  0.00    +0.000 A 
ATOM     19  C   UNL     1       0.394  10.471  21.757  0.00  0.00    +0.000 A 
BRANCH  14  21
ATOM     20  C   UNL     1      -1.298  11.854  19.221  0.00  0.00    +0.000 C 
ATOM     21  O   UNL     1       0.048  11.799  19.676  0.00  0.00    +0.000 OA
ENDBRANCH  14  21
BRANCH  19  22
ATOM     22  O   UNL     1      -0.107  11.412  22.614  0.00  0.00    +0.000 OA
ATOM     23  H   UNL     1       0.438  12.214  22.565  0.00  0.00    +0.000 HD
ENDBRANCH  19  22
ENDBRANCH  12  16
ENDBRANCH   1  13
BRANCH   2  24
ATOM     24  S   UNL     1       1.236   3.700  20.063  0.00  0.00    +0.000 S 
ATOM     25  C   UNL     1       2.115   3.023  21.488  0.00  0.00    +0.000 C 
ENDBRANCH   2  24
TORSDOF 6
ENDMDL
MODEL 3
REMARK VINA RESULT:      -6.8      0.824      1.837
REMARK  Name = 
REMARK  11 active torsions:
REMARK  status: ('A' for Active; 'I' for Inactive)
REMARK    1  A    between atoms: C_1  and  O_2
REMARK    2  A    between atoms: O_2  and  C_3
REMARK    3  A    between atoms: C_5  and  C_6
REMARK    4  A    between atoms: N_7  and  N_8
REMARK    5  A    between atoms: C_9  and  S_10
REMARK    6  A    between atoms: S_10  and  C_11
REMARK    7  A    between atoms: C_14  and  C_15
REMARK    8  A    between atoms: C_15  and  C_16
REMARK    9  A    between atoms: C_15  and  C_17
REMARK   10  A    between atoms: C_15  and  C_18
REMARK   11  A    between atoms: C_23  and  O_24
REMARK                            x       y       z     vdW  Elec       q    Type
REMARK                         _______ _______ _______ _____ _____    ______ ____
ROOT
ATOM      1  N   UNL     1       3.098   5.820  18.696  0.00  0.00    +0.000 N 
ATOM      2  C   UNL     1       2.728   4.556  19.123  0.00  0.00    +0.000 A 
ATOM      3  N   UNL     1       3.261   3.461  18.688  0.00  0.00    +0.000 NA
ATOM      4  N   UNL     1       4.248   3.494  17.715  0.00  0.00    +0.000 NA
ATOM      5  C   UNL     1       4.711   4.632  17.295  0.00  0.00    +0.000 A 
ATOM      6  C   UNL     1       4.199   5.944  17.863  0.00  0.00    +0.000 A 
ATOM      7  O   UNL     1       4.785   6.986  17.593  0.00  0.00    +0.000 OA
ENDROOT
BRANCH   5   8
ATOM      8  C   UNL     1       5.785   4.654  16.183  0.00  0.00    +0.000 C 
ATOM      9  C   UNL     1       5.737   3.332  15.383  0.00  0.00    +0.000 C 
ATOM     10  C   UNL     1       5.500   5.805  15.207  0.00  0.00    +0.000 C 
ATOM     11  C   UNL     1       7.200   4.782  16.766  0.00  0.00    +0.000 C 
ENDBRANCH   5   8
BRANCH   1  13
ATOM     12  C   UNL     1       1.982   7.840  18.655  0.00  0.00    +0.000 C 
ATOM     13  N   UNL     1       2.589   6.936  19.358  0.00  0.00    +0.000 NA
BRANCH  12  16
ATOM     14  C   UNL     1       0.788  10.274  21.294  0.00  0.00    +0.000 A 
ATOM     15  C   UNL     1       1.213   9.091  20.666  0.00  0.00    +0.000 A 
ATOM     16  C   UNL     1       1.492   9.078  19.297  0.00  0.00    +0.000 A 
ATOM     17  C   UNL     1       1.318  10.232  18.533  0.00  0.00    +0.000 A 
ATOM     18  C   UNL     1       0.878  11.406  19.144  0.00  0.00    +0.000 A 
ATOM     19  C   UNL     1       0.626  11.431  20.520  0.00  0.00    +0.000 A 
BRANCH  14  21
ATOM     20  C   UNL     1      -0.740  10.022  23.122  0.00  0.00    +0.000 C 
ATOM     21  O   UNL     1       0.595  10.122  22.642  0.00  0.00    +0.000 OA
ENDBRANCH  14  21
BRANCH  19  22
ATOM     22  O   UNL     1       0.222  12.614  21.074  0.00  0.00    +0.000 OA
ATOM     23  H   UNL     1       0.977  13.038  21.513  0.00  0.00    +0.000 HD
ENDBRANCH  19  22
ENDBRANCH  12  16
ENDBRANCH   1  13
BRANCH   2  24
ATOM     24  S   UNL     1       1.419   4.441  20.302  0.00  0.00    +0.000 S 
ATOM     25  C   UNL     1       2.142   3.315  21.517  0.00  0.00    +0.000 C 
ENDBRANCH   2  24
TORSDOF 6
ENDMDL
MODEL 4
REMARK VINA RESULT:      -6.7      1.459      2.340
REMARK  Name = 
REMARK  11 active torsions:
REMARK  status: ('A' for Active; 'I' for Inactive)
REMARK    1  A    between atoms: C_1  and  O_2
REMARK    2  A    between atoms: O_2  and  C_3
REMARK    3  A    between atoms: C_5  and  C_6
REMARK    4  A    between atoms: N_7  and  N_8
REMARK    5  A    between atoms: C_9  and  S_10
REMARK    6  A    between atoms: S_10  and  C_11
REMARK    7  A    between atoms: C_14  and  C_15
REMARK    8  A    between atoms: C_15  and  C_16
REMARK    9  A    between atoms: C_15  and  C_17
REMARK   10  A    between atoms: C_15  and  C_18
REMARK   11  A    between atoms: C_23  and  O_24
REMARK                            x       y       z     vdW  Elec       q    Type
REMARK                         _______ _______ _______ _____ _____    ______ ____
ROOT
ATOM      1  N   UNL     1       3.131   6.196  18.581  0.00  0.00    +0.000 N 
ATOM      2  C   UNL     1       3.168   5.187  19.528  0.00  0.00    +0.000 A 
ATOM      3  N   UNL     1       4.180   4.403  19.709  0.00  0.00    +0.000 NA
ATOM      4  N   UNL     1       5.313   4.517  18.918  0.00  0.00    +0.000 NA
ATOM      5  C   UNL     1       5.405   5.473  18.045  0.00  0.00    +0.000 A 
ATOM      6  C   UNL     1       4.289   6.490  17.877  0.00  0.00    +0.000 A 
ATOM      7  O   UNL     1       4.483   7.487  17.190  0.00  0.00    +0.000 OA
ENDROOT
BRANCH   5   8
ATOM      8  C   UNL     1       6.658   5.565  17.144  0.00  0.00    +0.000 C 
ATOM      9  C   UNL     1       7.671   4.467  17.545  0.00  0.00    +0.000 C 
ATOM     10  C   UNL     1       6.264   5.328  15.679  0.00  0.00    +0.000 C 
ATOM     11  C   UNL     1       7.367   6.918  17.298  0.00  0.00    +0.000 C 
ENDBRANCH   5   8
BRANCH   1  13
ATOM     12  C   UNL     1       2.186   8.177  19.298  0.00  0.00    +0.000 C 
ATOM     13  N   UNL     1       2.068   7.098  18.589  0.00  0.00    +0.000 NA
BRANCH  12  16
ATOM     14  C   UNL     1      -0.469  10.435  20.767  0.00  0.00    +0.000 A 
ATOM     15  C   UNL     1       0.573   9.499  20.656  0.00  0.00    +0.000 A 
ATOM     16  C   UNL     1       1.059   9.127  19.401  0.00  0.00    +0.000 A 
ATOM     17  C   UNL     1       0.490   9.655  18.242  0.00  0.00    +0.000 A 
ATOM     18  C   UNL     1      -0.558  10.569  18.341  0.00  0.00    +0.000 A 
ATOM     19  C   UNL     1      -1.028  10.967  19.597  0.00  0.00    +0.000 A 
BRANCH  14  21
ATOM     20  C   UNL     1      -0.383   9.805  23.078  0.00  0.00    +0.000 C 
ATOM     21  O   UNL     1      -0.800  10.714  22.067  0.00  0.00    +0.000 OA
ENDBRANCH  14  21
BRANCH  19  22
ATOM     22  O   UNL     1      -2.040  11.886  19.639  0.00  0.00    +0.000 OA
ATOM     23  H   UNL     1      -2.654  11.656  20.355  0.00  0.00    +0.000 HD
ENDBRANCH  19  22
ENDBRANCH  12  16
ENDBRANCH   1  13
BRANCH   2  24
ATOM     24  S   UNL     1       1.725   4.937  20.513  0.00  0.00    +0.000 S 
ATOM     25  C   UNL     1       1.755   3.143  20.726  0.00  0.00    +0.000 C 
ENDBRANCH   2  24
TORSDOF 6
ENDMDL
MODEL 5
REMARK VINA RESULT:      -6.6      2.195      2.821
REMARK  Name = 
REMARK  11 active torsions:
REMARK  status: ('A' for Active; 'I' for Inactive)
REMARK    1  A    between atoms: C_1  and  O_2
REMARK    2  A    between atoms: O_2  and  C_3
REMARK    3  A    between atoms: C_5  and  C_6
REMARK    4  A    between atoms: N_7  and  N_8
REMARK    5  A    between atoms: C_9  and  S_10
REMARK    6  A    between atoms: S_10  and  C_11
REMARK    7  A    between atoms: C_14  and  C_15
REMARK    8  A    between atoms: C_15  and  C_16
REMARK    9  A    between atoms: C_15  and  C_17
REMARK   10  A    between atoms: C_15  and  C_18
REMARK   11  A    between atoms: C_23  and  O_24
REMARK                            x       y       z     vdW  Elec       q    Type
REMARK                         _______ _______ _______ _____ _____    ______ ____
ROOT
ATOM      1  N   UNL     1       3.058   6.577  18.360  0.00  0.00    +0.000 N 
ATOM      2  C   UNL     1       3.098   5.763  19.479  0.00  0.00    +0.000 A 
ATOM      3  N   UNL     1       4.112   5.027  19.801  0.00  0.00    +0.000 NA
ATOM      4  N   UNL     1       5.242   4.991  19.000  0.00  0.00    +0.000 NA
ATOM      5  C   UNL     1       5.331   5.767  17.963  0.00  0.00    +0.000 A 
ATOM      6  C   UNL     1       4.214   6.735  17.611  0.00  0.00    +0.000 A 
ATOM      7  O   UNL     1       4.406   7.586  16.750  0.00  0.00    +0.000 OA
ENDROOT
BRANCH   5   8
ATOM      8  C   UNL     1       6.582   5.691  17.058  0.00  0.00    +0.000 C 
ATOM      9  C   UNL     1       7.514   4.559  17.550  0.00  0.00    +0.000 C 
ATOM     10  C   UNL     1       6.162   5.360  15.618  0.00  0.00    +0.000 C 
ATOM     11  C   UNL     1       7.390   6.996  17.097  0.00  0.00    +0.000 C 
ENDBRANCH   5   8
BRANCH   1  13
ATOM     12  C   UNL     1       2.198   8.717  18.463  0.00  0.00    +0.000 C 
ATOM     13  N   UNL     1       1.994   7.464  18.203  0.00  0.00    +0.000 NA
BRANCH  12  16
ATOM     14  C   UNL     1      -1.186  10.226  17.703  0.00  0.00    +0.000 A 
ATOM     15  C   UNL     1      -0.105   9.330  17.745  0.00  0.00    +0.000 A 
ATOM     16  C   UNL     1       1.084   9.685  18.385  0.00  0.00    +0.000 A 
ATOM     17  C   UNL     1       1.223  10.949  18.959  0.00  0.00    +0.000 A 
ATOM     18  C   UNL     1       0.163  11.853  18.906  0.00  0.00    +0.000 A 
ATOM     19  C   UNL     1      -1.041  11.490  18.292  0.00  0.00    +0.000 A 
BRANCH  14  21
ATOM     20  C   UNL     1      -2.637  10.230  15.797  0.00  0.00    +0.000 C 
ATOM     21  O   UNL     1      -2.286   9.708  17.071  0.00  0.00    +0.000 OA
ENDBRANCH  14  21
BRANCH  19  22
ATOM     22  O   UNL     1      -2.058  12.404  18.290  0.00  0.00    +0.000 OA
ATOM     23  H   UNL     1      -1.773  13.204  18.762  0.00  0.00    +0.000 HD
ENDBRANCH  19  22
ENDBRANCH  12  16
ENDBRANCH   1  13
BRANCH   2  24
ATOM     24  S   UNL     1       1.658   5.700  20.497  0.00  0.00    +0.000 S 
ATOM     25  C   UNL     1       1.593   3.940  20.901  0.00  0.00    +0.000 C 
ENDBRANCH   2  24
TORSDOF 6
ENDMDL
MODEL 6
REMARK VINA RESULT:      -6.5      0.834      1.313
REMARK  Name = 
REMARK  11 active torsions:
REMARK  status: ('A' for Active; 'I' for Inactive)
REMARK    1  A    between atoms: C_1  and  O_2
REMARK    2  A    between atoms: O_2  and  C_3
REMARK    3  A    between atoms: C_5  and  C_6
REMARK    4  A    between atoms: N_7  and  N_8
REMARK    5  A    between atoms: C_9  and  S_10
REMARK    6  A    between atoms: S_10  and  C_11
REMARK    7  A    between atoms: C_14  and  C_15
REMARK    8  A    between atoms: C_15  and  C_16
REMARK    9  A    between atoms: C_15  and  C_17
REMARK   10  A    between atoms: C_15  and  C_18
REMARK   11  A    between atoms: C_23  and  O_24
REMARK                            x       y       z     vdW  Elec       q    Type
REMARK                         _______ _______ _______ _____ _____    ______ ____
ROOT
ATOM      1  N   UNL     1       3.090   5.932  18.808  0.00  0.00    +0.000 N 
ATOM      2  C   UNL     1       2.793   4.660  19.268  0.00  0.00    +0.000 A 
ATOM      3  N   UNL     1       3.358   3.583  18.830  0.00  0.00    +0.000 NA
ATOM      4  N   UNL     1       4.306   3.643  17.820  0.00  0.00    +0.000 NA
ATOM      5  C   UNL     1       4.703   4.792  17.366  0.00  0.00    +0.000 A 
ATOM      6  C   UNL     1       4.153   6.090  17.932  0.00  0.00    +0.000 A 
ATOM      7  O   UNL     1       4.683   7.152  17.625  0.00  0.00    +0.000 OA
ENDROOT
BRANCH   5   8
ATOM      8  C   UNL     1       5.733   4.842  16.215  0.00  0.00    +0.000 C 
ATOM      9  C   UNL     1       7.132   5.186  16.779  0.00  0.00    +0.000 C 
ATOM     10  C   UNL     1       5.826   3.466  15.539  0.00  0.00    +0.000 C 
ATOM     11  C   UNL     1       5.379   5.925  15.185  0.00  0.00    +0.000 C 
ENDBRANCH   5   8
BRANCH   1  13
ATOM     12  C   UNL     1       1.875   7.894  18.780  0.00  0.00    +0.000 C 
ATOM     13  N   UNL     1       2.558   7.036  19.472  0.00  0.00    +0.000 NA
BRANCH  12  16
ATOM     14  C   UNL     1       0.818  11.489  19.301  0.00  0.00    +0.000 A 
ATOM     15  C   UNL     1       1.351  10.327  18.717  0.00  0.00    +0.000 A 
ATOM     16  C   UNL     1       1.354   9.120  19.420  0.00  0.00    +0.000 A 
ATOM     17  C   UNL     1       0.860   9.065  20.724  0.00  0.00    +0.000 A 
ATOM     18  C   UNL     1       0.347  10.217  21.319  0.00  0.00    +0.000 A 
ATOM     19  C   UNL     1       0.314  11.421  20.607  0.00  0.00    +0.000 A 
BRANCH  14  21
ATOM     20  C   UNL     1       2.067  13.318  18.387  0.00  0.00    +0.000 C 
ATOM     21  O   UNL     1       0.859  12.573  18.464  0.00  0.00    +0.000 OA
ENDBRANCH  14  21
BRANCH  19  22
ATOM     22  O   UNL     1      -0.223  12.514  21.227  0.00  0.00    +0.000 OA
ATOM     23  H   UNL     1       0.069  13.320  20.769  0.00  0.00    +0.000 HD
ENDBRANCH  19  22
ENDBRANCH  12  16
ENDBRANCH   1  13
BRANCH   2  24
ATOM     24  S   UNL     1       1.534   4.508  20.496  0.00  0.00    +0.000 S 
ATOM     25  C   UNL     1       2.163   3.123  21.470  0.00  0.00    +0.000 C 
ENDBRANCH   2  24
TORSDOF 6
ENDMDL
MODEL 7
REMARK VINA RESULT:      -6.3      1.926      2.490
REMARK  Name = 
REMARK  11 active torsions:
REMARK  status: ('A' for Active; 'I' for Inactive)
REMARK    1  A    between atoms: C_1  and  O_2
REMARK    2  A    between atoms: O_2  and  C_3
REMARK    3  A    between atoms: C_5  and  C_6
REMARK    4  A    between atoms: N_7  and  N_8
REMARK    5  A    between atoms: C_9  and  S_10
REMARK    6  A    between atoms: S_10  and  C_11
REMARK    7  A    between atoms: C_14  and  C_15
REMARK    8  A    between atoms: C_15  and  C_16
REMARK    9  A    between atoms: C_15  and  C_17
REMARK   10  A    between atoms: C_15  and  C_18
REMARK   11  A    between atoms: C_23  and  O_24
REMARK                            x       y       z     vdW  Elec       q    Type
REMARK                         _______ _______ _______ _____ _____    ______ ____
ROOT
ATOM      1  N   UNL     1       3.106   6.515  18.349  0.00  0.00    +0.000 N 
ATOM      2  C   UNL     1       3.144   5.675  19.449  0.00  0.00    +0.000 A 
ATOM      3  N   UNL     1       4.162   4.942  19.763  0.00  0.00    +0.000 NA
ATOM      4  N   UNL     1       5.300   4.937  18.973  0.00  0.00    +0.000 NA
ATOM      5  C   UNL     1       5.391   5.739  17.955  0.00  0.00    +0.000 A 
ATOM      6  C   UNL     1       4.268   6.703  17.616  0.00  0.00    +0.000 A 
ATOM      7  O   UNL     1       4.458   7.576  16.777  0.00  0.00    +0.000 OA
ENDROOT
BRANCH   5   8
ATOM      8  C   UNL     1       6.651   5.696  17.061  0.00  0.00    +0.000 C 
ATOM      9  C   UNL     1       7.589   4.560  17.533  0.00  0.00    +0.000 C 
ATOM     10  C   UNL     1       6.249   5.400  15.609  0.00  0.00    +0.000 C 
ATOM     11  C   UNL     1       7.447   7.007  17.142  0.00  0.00    +0.000 C 
ENDBRANCH   5   8
BRANCH   1  13
ATOM     12  C   UNL     1       2.208   8.633  18.543  0.00  0.00    +0.000 C 
ATOM     13  N   UNL     1       2.034   7.394  18.203  0.00  0.00    +0.000 NA
BRANCH  12  16
ATOM     14  C   UNL     1       0.134  11.761  19.020  0.00  0.00    +0.000 A 
ATOM     15  C   UNL     1       1.181  10.829  19.111  0.00  0.00    +0.000 A 
ATOM     16  C   UNL     1       1.082   9.588  18.478  0.00  0.00    +0.000 A 
ATOM     17  C   UNL     1      -0.076   9.247  17.778  0.00  0.00    +0.000 A 
ATOM     18  C   UNL     1      -1.129  10.158  17.697  0.00  0.00    +0.000 A 
ATOM     19  C   UNL     1      -1.021  11.414  18.305  0.00  0.00    +0.000 A 
BRANCH  14  21
ATOM     20  C   UNL     1       0.522  12.917  21.082  0.00  0.00    +0.000 C 
ATOM     21  O   UNL     1       0.409  12.938  19.665  0.00  0.00    +0.000 OA
ENDBRANCH  14  21
BRANCH  19  22
ATOM     22  O   UNL     1      -2.071  12.279  18.174  0.00  0.00    +0.000 OA
ATOM     23  H   UNL     1      -1.754  13.115  17.796  0.00  0.00    +0.000 HD
ENDBRANCH  19  22
ENDBRANCH  12  16
ENDBRANCH   1  13
BRANCH   2  24
ATOM     24  S   UNL     1       1.694   5.573  20.450  0.00  0.00    +0.000 S 
ATOM     25  C   UNL     1       1.944   3.979  21.263  0.00  0.00    +0.000 C 
ENDBRANCH   2  24
TORSDOF 6
ENDMDL
MODEL 8
REMARK VINA RESULT:      -6.3      1.716      1.949
REMARK  Name = 
REMARK  11 active torsions:
REMARK  status: ('A' for Active; 'I' for Inactive)
REMARK    1  A    between atoms: C_1  and  O_2
REMARK    2  A    between atoms: O_2  and  C_3
REMARK    3  A    between atoms: C_5  and  C_6
REMARK    4  A    between atoms: N_7  and  N_8
REMARK    5  A    between atoms: C_9  and  S_10
REMARK    6  A    between atoms: S_10  and  C_11
REMARK    7  A    between atoms: C_14  and  C_15
REMARK    8  A    between atoms: C_15  and  C_16
REMARK    9  A    between atoms: C_15  and  C_17
REMARK   10  A    between atoms: C_15  and  C_18
REMARK   11  A    between atoms: C_23  and  O_24
REMARK                            x       y       z     vdW  Elec       q    Type
REMARK                         _______ _______ _______ _____ _____    ______ ____
ROOT
ATOM      1  N   UNL     1       3.020   6.077  18.837  0.00  0.00    +0.000 N 
ATOM      2  C   UNL     1       3.212   4.991  19.675  0.00  0.00    +0.000 A 
ATOM      3  N   UNL     1       4.244   4.214  19.627  0.00  0.00    +0.000 NA
ATOM      4  N   UNL     1       5.238   4.417  18.681  0.00  0.00    +0.000 NA
ATOM      5  C   UNL     1       5.185   5.446  17.891  0.00  0.00    +0.000 A 
ATOM      6  C   UNL     1       4.052   6.452  17.989  0.00  0.00    +0.000 A 
ATOM      7  O   UNL     1       4.129   7.507  17.371  0.00  0.00    +0.000 OA
ENDROOT
BRANCH   5   8
ATOM      8  C   UNL     1       6.281   5.639  16.818  0.00  0.00    +0.000 C 
ATOM      9  C   UNL     1       7.256   4.439  16.844  0.00  0.00    +0.000 C 
ATOM     10  C   UNL     1       5.639   5.692  15.423  0.00  0.00    +0.000 C 
ATOM     11  C   UNL     1       7.110   6.905  17.077  0.00  0.00    +0.000 C 
ENDBRANCH   5   8
BRANCH   1  13
ATOM     12  C   UNL     1       2.187   8.225  18.975  0.00  0.00    +0.000 C 
ATOM     13  N   UNL     1       1.966   6.953  19.090  0.00  0.00    +0.000 NA
BRANCH  12  16
ATOM     14  C   UNL     1      -0.715  10.622  18.600  0.00  0.00    +0.000 A 
ATOM     15  C   UNL     1       0.326   9.731  18.292  0.00  0.00    +0.000 A 
ATOM     16  C   UNL     1       1.125   9.198  19.306  0.00  0.00    +0.000 A 
ATOM     17  C   UNL     1       0.921   9.575  20.634  0.00  0.00    +0.000 A 
ATOM     18  C   UNL     1      -0.097  10.475  20.947  0.00  0.00    +0.000 A 
ATOM     19  C   UNL     1      -0.919  10.988  19.938  0.00  0.00    +0.000 A 
BRANCH  14  21
ATOM     20  C   UNL     1      -2.202  10.048  16.811  0.00  0.00    +0.000 C 
ATOM     21  O   UNL     1      -1.422  11.019  17.496  0.00  0.00    +0.000 OA
ENDBRANCH  14  21
BRANCH  19  22
ATOM     22  O   UNL     1      -1.919  11.846  20.303  0.00  0.00    +0.000 OA
ATOM     23  H   UNL     1      -1.993  11.861  21.271  0.00  0.00    +0.000 HD
ENDBRANCH  19  22
ENDBRANCH  12  16
ENDBRANCH   1  13
BRANCH   2  24
ATOM     24  S   UNL     1       1.943   4.630  20.847  0.00  0.00    +0.000 S 
ATOM     25  C   UNL     1       0.985   3.386  19.952  0.00  0.00    +0.000 C 
ENDBRANCH   2  24
TORSDOF 6
ENDMDL
MODEL 9
REMARK VINA RESULT:      -6.2      2.003      2.451
REMARK  Name = 
REMARK  11 active torsions:
REMARK  status: ('A' for Active; 'I' for Inactive)
REMARK    1  A    between atoms: C_1  and  O_2
REMARK    2  A    between atoms: O_2  and  C_3
REMARK    3  A    between atoms: C_5  and  C_6
REMARK    4  A    between atoms: N_7  and  N_8
REMARK    5  A    between atoms: C_9  and  S_10
REMARK    6  A    between atoms: S_10  and  C_11
REMARK    7  A    between atoms: C_14  and  C_15
REMARK    8  A    between atoms: C_15  and  C_16
REMARK    9  A    between atoms: C_15  and  C_17
REMARK   10  A    between atoms: C_15  and  C_18
REMARK   11  A    between atoms: C_23  and  O_24
REMARK                            x       y       z     vdW  Elec       q    Type
REMARK                         _______ _______ _______ _____ _____    ______ ____
ROOT
ATOM      1  N   UNL     1       3.164   6.529  18.451  0.00  0.00    +0.000 N 
ATOM      2  C   UNL     1       2.934   5.424  19.253  0.00  0.00    +0.000 A 
ATOM      3  N   UNL     1       3.554   4.296  19.124  0.00  0.00    +0.000 NA
ATOM      4  N   UNL     1       4.495   4.117  18.123  0.00  0.00    +0.000 NA
ATOM      5  C   UNL     1       4.831   5.112  17.359  0.00  0.00    +0.000 A 
ATOM      6  C   UNL     1       4.216   6.487  17.548  0.00  0.00    +0.000 A 
ATOM      7  O   UNL     1       4.689   7.446  16.948  0.00  0.00    +0.000 OA
ENDROOT
BRANCH   5   8
ATOM      8  C   UNL     1       5.855   4.888  16.223  0.00  0.00    +0.000 C 
ATOM      9  C   UNL     1       5.475   5.753  14.998  0.00  0.00    +0.000 C 
ATOM     10  C   UNL     1       7.253   5.324  16.689  0.00  0.00    +0.000 C 
ATOM     11  C   UNL     1       5.875   3.425  15.759  0.00  0.00    +0.000 C 
ENDBRANCH   5   8
BRANCH   1  13
ATOM     12  C   UNL     1       1.898   8.371  17.876  0.00  0.00    +0.000 C 
ATOM     13  N   UNL     1       2.576   7.747  18.788  0.00  0.00    +0.000 NA
BRANCH  12  16
ATOM     14  C   UNL     1      -0.621  11.098  18.604  0.00  0.00    +0.000 A 
ATOM     15  C   UNL     1      -0.064   9.847  18.292  0.00  0.00    +0.000 A 
ATOM     16  C   UNL     1       1.319   9.701  18.159  0.00  0.00    +0.000 A 
ATOM     17  C   UNL     1       2.159  10.806  18.300  0.00  0.00    +0.000 A 
ATOM     18  C   UNL     1       1.614  12.056  18.591  0.00  0.00    +0.000 A 
ATOM     19  C   UNL     1       0.232  12.200  18.754  0.00  0.00    +0.000 A 
BRANCH  14  21
ATOM     20  C   UNL     1      -2.778  11.402  17.605  0.00  0.00    +0.000 C 
ATOM     21  O   UNL     1      -1.984  11.057  18.733  0.00  0.00    +0.000 OA
ENDBRANCH  14  21
BRANCH  19  22
ATOM     22  O   UNL     1      -0.249  13.442  19.064  0.00  0.00    +0.000 OA
ATOM     23  H   UNL     1       0.399  14.114  18.796  0.00  0.00    +0.000 HD
ENDBRANCH  19  22
ENDBRANCH  12  16
ENDBRANCH   1  13
BRANCH   2  24
ATOM     24  S   UNL     1       1.688   5.560  20.495  0.00  0.00    +0.000 S 
ATOM     25  C   UNL     1       0.986   3.895  20.468  0.00  0.00    +0.000 C 
ENDBRANCH   2  24
TORSDOF 6
ENDMDL
