MODEL 1
REMARK VINA RESULT:      -8.6      0.000      0.000
REMARK  Name = 
REMARK  8 active torsions:
REMARK  status: ('A' for Active; 'I' for Inactive)
REMARK    1  A    between atoms: C_1  and  C_2
REMARK    2  A    between atoms: C_2  and  C_3
REMARK    3  A    between atoms: C_3  and  C_4
REMARK    4  A    between atoms: C_5  and  C_6
REMARK    5  A    between atoms: C_6  and  N_7
REMARK    6  A    between atoms: C_11  and  C_12
REMARK    7  A    between atoms: C_23  and  C_24
REMARK    8  A    between atoms: C_24  and  C_25
REMARK                            x       y       z     vdW  Elec       q    Type
REMARK                         _______ _______ _______ _____ _____    ______ ____
ROOT
ATOM      1  C   UNL     1       2.703   6.170  19.476  0.00  0.00    +0.000 A 
ATOM      2  C   UNL     1       3.399   6.241  18.304  0.00  0.00    +0.000 A 
ATOM      3  N   UNL     1       3.438   7.366  17.483  0.00  0.00    +0.000 NA
ATOM      4  C   UNL     1       2.749   8.408  17.828  0.00  0.00    +0.000 A 
ATOM      5  N   UNL     1       2.015   8.413  18.996  0.00  0.00    +0.000 N 
ATOM      6  C   UNL     1       1.240   9.412  19.520  0.00  0.00    +0.000 A 
ATOM      7  C   UNL     1       0.734   8.892  20.693  0.00  0.00    +0.000 A 
ATOM      8  N   UNL     1       1.194   7.605  20.885  0.00  0.00    +0.000 NA
ATOM      9  C   UNL     1       1.962   7.339  19.845  0.00  0.00    +0.000 A 
ENDROOT
BRANCH   7  10
ATOM     10  C   UNL     1      -0.187   9.532  21.670  0.00  0.00    +0.000 C 
ATOM     11  C   UNL     1       0.323   9.439  23.099  0.00  0.00    +0.000 C 
ENDBRANCH   7  10
BRANCH   1  12
ATOM     12  C   UNL     1       2.663   4.919  20.344  0.00  0.00    +0.000 C 
BRANCH  12  14
ATOM     13  C   UNL     1       1.316   3.147  19.156  0.00  0.00    +0.000 C 
ATOM     14  C   UNL     1       1.317   4.191  20.264  0.00  0.00    +0.000 C 
ENDBRANCH  12  14
ENDBRANCH   1  12
BRANCH   2  15
ATOM     15  C   UNL     1       4.272   5.107  17.774  0.00  0.00    +0.000 C 
BRANCH  15  16
ATOM     16  N   UNL     1       5.689   5.230  18.116  0.00  0.00    +0.000 N 
ATOM     17  C   UNL     1       6.202   5.561  19.347  0.00  0.00    +0.000 A 
ATOM     18  C   UNL     1       7.563   5.481  19.205  0.00  0.00    +0.000 A 
ATOM     19  N   UNL     1       7.898   5.142  17.923  0.00  0.00    +0.000 NA
ATOM     20  C   UNL     1       6.757   5.034  17.254  0.00  0.00    +0.000 A 
BRANCH  20  21
ATOM     21  C   UNL     1       6.652   4.720  15.825  0.00  0.00    +0.000 A 
ATOM     22  C   UNL     1       5.666   3.856  15.360  0.00  0.00    +0.000 A 
ATOM     23  C   UNL     1       5.584   3.604  13.993  0.00  0.00    +0.000 A 
ATOM     24  C   UNL     1       6.498   4.213  13.141  0.00  0.00    +0.000 A 
ATOM     25  C   UNL     1       7.458   5.040  13.696  0.00  0.00    +0.000 A 
ATOM     26  F   UNL     1       8.339   5.631  12.877  0.00  0.00    +0.000 F 
ATOM     27  N   UNL     1       7.560   5.313  15.012  0.00  0.00    +0.000 NA
ENDBRANCH  20  21
ENDBRANCH  15  16
ENDBRANCH   2  15
TORSDOF 6
ENDMDL
MODEL 2
REMARK VINA RESULT:      -8.6      2.783      3.407
REMARK  Name = 
REMARK  8 active torsions:
REMARK  status: ('A' for Active; 'I' for Inactive)
REMARK    1  A    between atoms: C_1  and  C_2
REMARK    2  A    between atoms: C_2  and  C_3
REMARK    3  A    between atoms: C_3  and  C_4
REMARK    4  A    between atoms: C_5  and  C_6
REMARK    5  A    between atoms: C_6  and  N_7
REMARK    6  A    between atoms: C_11  and  C_12
REMARK    7  A    between atoms: C_23  and  C_24
REMARK    8  A    between atoms: C_24  and  C_25
REMARK                            x       y       z     vdW  Elec       q    Type
REMARK                         _______ _______ _______ _____ _____    ______ ____
ROOT
ATOM      1  C   UNL     1       2.318   7.018  19.439  0.00  0.00    +0.000 A 
ATOM      2  C   UNL     1       2.681   7.333  18.162  0.00  0.00    +0.000 A 
ATOM      3  N   UNL     1       2.460   8.574  17.568  0.00  0.00    +0.000 NA
ATOM      4  C   UNL     1       1.842   9.486  18.252  0.00  0.00    +0.000 A 
ATOM      5  N   UNL     1       1.438   9.242  19.548  0.00  0.00    +0.000 N 
ATOM      6  C   UNL     1       0.787  10.076  20.416  0.00  0.00    +0.000 A 
ATOM      7  C   UNL     1       0.626   9.335  21.568  0.00  0.00    +0.000 A 
ATOM      8  N   UNL     1       1.172   8.077  21.410  0.00  0.00    +0.000 NA
ATOM      9  C   UNL     1       1.652   8.046  20.181  0.00  0.00    +0.000 A 
ENDROOT
BRANCH   7  10
ATOM     10  C   UNL     1      -0.034   9.730  22.841  0.00  0.00    +0.000 C 
ATOM     11  C   UNL     1      -0.814  11.029  22.714  0.00  0.00    +0.000 C 
ENDBRANCH   7  10
BRANCH   1  12
ATOM     12  C   UNL     1       2.557   5.646  20.055  0.00  0.00    +0.000 C 
BRANCH  12  14
ATOM     13  C   UNL     1       1.271   3.623  20.841  0.00  0.00    +0.000 C 
ATOM     14  C   UNL     1       1.434   4.654  19.734  0.00  0.00    +0.000 C 
ENDBRANCH  12  14
ENDBRANCH   1  12
BRANCH   2  15
ATOM     15  C   UNL     1       3.431   6.376  17.239  0.00  0.00    +0.000 C 
BRANCH  15  16
ATOM     16  N   UNL     1       4.861   6.261  17.528  0.00  0.00    +0.000 N 
ATOM     17  C   UNL     1       5.814   7.227  17.316  0.00  0.00    +0.000 A 
ATOM     18  C   UNL     1       6.981   6.697  17.799  0.00  0.00    +0.000 A 
ATOM     19  N   UNL     1       6.780   5.429  18.270  0.00  0.00    +0.000 NA
ATOM     20  C   UNL     1       5.499   5.152  18.063  0.00  0.00    +0.000 A 
BRANCH  20  21
ATOM     21  C   UNL     1       4.857   3.873  18.386  0.00  0.00    +0.000 A 
ATOM     22  C   UNL     1       4.047   3.231  17.454  0.00  0.00    +0.000 A 
ATOM     23  C   UNL     1       3.477   2.006  17.791  0.00  0.00    +0.000 A 
ATOM     24  C   UNL     1       3.724   1.473  19.050  0.00  0.00    +0.000 A 
ATOM     25  C   UNL     1       4.524   2.194  19.919  0.00  0.00    +0.000 A 
ATOM     26  F   UNL     1       4.767   1.680  21.134  0.00  0.00    +0.000 F 
ATOM     27  N   UNL     1       5.099   3.375  19.623  0.00  0.00    +0.000 NA
ENDBRANCH  20  21
ENDBRANCH  15  16
ENDBRANCH   2  15
TORSDOF 6
ENDMDL
MODEL 3
REMARK VINA RESULT:      -8.3      2.750      7.611
REMARK  Name = 
REMARK  8 active torsions:
REMARK  status: ('A' for Active; 'I' for Inactive)
REMARK    1  A    between atoms: C_1  and  C_2
REMARK    2  A    between atoms: C_2  and  C_3
REMARK    3  A    between atoms: C_3  and  C_4
REMARK    4  A    between atoms: C_5  and  C_6
REMARK    5  A    between atoms: C_6  and  N_7
REMARK    6  A    between atoms: C_11  and  C_12
REMARK    7  A    between atoms: C_23  and  C_24
REMARK    8  A    between atoms: C_24  and  C_25
REMARK                            x       y       z     vdW  Elec       q    Type
REMARK                         _______ _______ _______ _____ _____    ______ ____
ROOT
ATOM      1  C   UNL     1       6.306   5.603  17.407  0.00  0.00    +0.000 A 
ATOM      2  C   UNL     1       5.207   5.101  18.041  0.00  0.00    +0.000 A 
ATOM      3  N   UNL     1       4.283   4.243  17.447  0.00  0.00    +0.000 NA
ATOM      4  C   UNL     1       4.451   3.919  16.203  0.00  0.00    +0.000 A 
ATOM      5  N   UNL     1       5.535   4.391  15.492  0.00  0.00    +0.000 N 
ATOM      6  C   UNL     1       5.876   4.154  14.187  0.00  0.00    +0.000 A 
ATOM      7  C   UNL     1       7.041   4.865  13.989  0.00  0.00    +0.000 A 
ATOM      8  N   UNL     1       7.407   5.518  15.148  0.00  0.00    +0.000 NA
ATOM      9  C   UNL     1       6.480   5.218  16.038  0.00  0.00    +0.000 A 
ENDROOT
BRANCH   7  10
ATOM     10  C   UNL     1       7.853   4.988  12.749  0.00  0.00    +0.000 C 
ATOM     11  C   UNL     1       7.295   4.161  11.603  0.00  0.00    +0.000 C 
ENDBRANCH   7  10
BRANCH   1  12
ATOM     12  C   UNL     1       7.289   6.554  18.077  0.00  0.00    +0.000 C 
BRANCH  12  14
ATOM     13  C   UNL     1       8.315   8.859  18.074  0.00  0.00    +0.000 C 
ATOM     14  C   UNL     1       7.210   7.976  17.512  0.00  0.00    +0.000 C 
ENDBRANCH  12  14
ENDBRANCH   1  12
BRANCH   2  15
ATOM     15  C   UNL     1       4.883   5.373  19.507  0.00  0.00    +0.000 C 
BRANCH  15  16
ATOM     16  N   UNL     1       3.602   4.824  19.951  0.00  0.00    +0.000 N 
ATOM     17  C   UNL     1       3.383   3.554  20.428  0.00  0.00    +0.000 A 
ATOM     18  C   UNL     1       2.060   3.523  20.783  0.00  0.00    +0.000 A 
ATOM     19  N   UNL     1       1.457   4.719  20.509  0.00  0.00    +0.000 NA
ATOM     20  C   UNL     1       2.387   5.492  19.963  0.00  0.00    +0.000 A 
BRANCH  20  21
ATOM     21  C   UNL     1       2.161   6.858  19.480  0.00  0.00    +0.000 A 
ATOM     22  C   UNL     1       2.418   7.193  18.153  0.00  0.00    +0.000 A 
ATOM     23  C   UNL     1       2.167   8.494  17.728  0.00  0.00    +0.000 A 
ATOM     24  C   UNL     1       1.682   9.419  18.645  0.00  0.00    +0.000 A 
ATOM     25  C   UNL     1       1.477   9.002  19.948  0.00  0.00    +0.000 A 
ATOM     26  F   UNL     1       1.006   9.891  20.834  0.00  0.00    +0.000 F 
ATOM     27  N   UNL     1       1.701   7.750  20.391  0.00  0.00    +0.000 NA
ENDBRANCH  20  21
ENDBRANCH  15  16
ENDBRANCH   2  15
TORSDOF 6
ENDMDL
MODEL 4
REMARK VINA RESULT:      -8.2      2.250      7.491
REMARK  Name = 
REMARK  8 active torsions:
REMARK  status: ('A' for Active; 'I' for Inactive)
REMARK    1  A    between atoms: C_1  and  C_2
REMARK    2  A    between atoms: C_2  and  C_3
REMARK    3  A    between atoms: C_3  and  C_4
REMARK    4  A    between atoms: C_5  and  C_6
REMARK    5  A    between atoms: C_6  and  N_7
REMARK    6  A    between atoms: C_11  and  C_12
REMARK    7  A    between atoms: C_23  and  C_24
REMARK    8  A    between atoms: C_24  and  C_25
REMARK                            x       y       z     vdW  Elec       q    Type
REMARK                         _______ _______ _______ _____ _____    ______ ____
ROOT
ATOM      1  C   UNL     1       6.355   5.556  17.439  0.00  0.00    +0.000 A 
ATOM      2  C   UNL     1       5.251   5.043  18.056  0.00  0.00    +0.000 A 
ATOM      3  N   UNL     1       4.325   4.206  17.436  0.00  0.00    +0.000 NA
ATOM      4  C   UNL     1       4.496   3.913  16.185  0.00  0.00    +0.000 A 
ATOM      5  N   UNL     1       5.586   4.398  15.490  0.00  0.00    +0.000 N 
ATOM      6  C   UNL     1       5.931   4.193  14.181  0.00  0.00    +0.000 A 
ATOM      7  C   UNL     1       7.100   4.903  14.006  0.00  0.00    +0.000 A 
ATOM      8  N   UNL     1       7.464   5.524  15.183  0.00  0.00    +0.000 NA
ATOM      9  C   UNL     1       6.533   5.206  16.061  0.00  0.00    +0.000 A 
ENDROOT
BRANCH   7  10
ATOM     10  C   UNL     1       7.917   5.054  12.773  0.00  0.00    +0.000 C 
ATOM     11  C   UNL     1       7.346   4.281  11.596  0.00  0.00    +0.000 C 
ENDBRANCH   7  10
BRANCH   1  12
ATOM     12  C   UNL     1       7.340   6.484  18.138  0.00  0.00    +0.000 C 
BRANCH  12  14
ATOM     13  C   UNL     1       8.362   8.789  18.229  0.00  0.00    +0.000 C 
ATOM     14  C   UNL     1       7.430   7.858  17.466  0.00  0.00    +0.000 C 
ENDBRANCH  12  14
ENDBRANCH   1  12
BRANCH   2  15
ATOM     15  C   UNL     1       4.922   5.279  19.527  0.00  0.00    +0.000 C 
BRANCH  15  16
ATOM     16  N   UNL     1       3.717   4.590  19.991  0.00  0.00    +0.000 N 
ATOM     17  C   UNL     1       3.617   3.260  20.320  0.00  0.00    +0.000 A 
ATOM     18  C   UNL     1       2.331   3.092  20.764  0.00  0.00    +0.000 A 
ATOM     19  N   UNL     1       1.636   4.267  20.688  0.00  0.00    +0.000 NA
ATOM     20  C   UNL     1       2.469   5.164  20.177  0.00  0.00    +0.000 A 
BRANCH  20  21
ATOM     21  C   UNL     1       2.122   6.559  19.887  0.00  0.00    +0.000 A 
ATOM     22  C   UNL     1       1.553   7.367  20.868  0.00  0.00    +0.000 A 
ATOM     23  C   UNL     1       1.261   8.693  20.560  0.00  0.00    +0.000 A 
ATOM     24  C   UNL     1       1.534   9.162  19.281  0.00  0.00    +0.000 A 
ATOM     25  C   UNL     1       2.080   8.280  18.364  0.00  0.00    +0.000 A 
ATOM     26  F   UNL     1       2.347   8.731  17.130  0.00  0.00    +0.000 F 
ATOM     27  N   UNL     1       2.383   6.995  18.630  0.00  0.00    +0.000 NA
ENDBRANCH  20  21
ENDBRANCH  15  16
ENDBRANCH   2  15
TORSDOF 6
ENDMDL
MODEL 5
REMARK VINA RESULT:      -8.0      2.645      3.317
REMARK  Name = 
REMARK  8 active torsions:
REMARK  status: ('A' for Active; 'I' for Inactive)
REMARK    1  A    between atoms: C_1  and  C_2
REMARK    2  A    between atoms: C_2  and  C_3
REMARK    3  A    between atoms: C_3  and  C_4
REMARK    4  A    between atoms: C_5  and  C_6
REMARK    5  A    between atoms: C_6  and  N_7
REMARK    6  A    between atoms: C_11  and  C_12
REMARK    7  A    between atoms: C_23  and  C_24
REMARK    8  A    between atoms: C_24  and  C_25
REMARK                            x       y       z     vdW  Elec       q    Type
REMARK                         _______ _______ _______ _____ _____    ______ ____
ROOT
ATOM      1  C   UNL     1       2.264   7.069  19.475  0.00  0.00    +0.000 A 
ATOM      2  C   UNL     1       2.608   7.373  18.190  0.00  0.00    +0.000 A 
ATOM      3  N   UNL     1       2.378   8.609  17.589  0.00  0.00    +0.000 NA
ATOM      4  C   UNL     1       1.771   9.527  18.274  0.00  0.00    +0.000 A 
ATOM      5  N   UNL     1       1.387   9.294  19.579  0.00  0.00    +0.000 N 
ATOM      6  C   UNL     1       0.748  10.135  20.450  0.00  0.00    +0.000 A 
ATOM      7  C   UNL     1       0.605   9.404  21.610  0.00  0.00    +0.000 A 
ATOM      8  N   UNL     1       1.148   8.145  21.454  0.00  0.00    +0.000 NA
ATOM      9  C   UNL     1       1.610   8.104  20.219  0.00  0.00    +0.000 A 
ENDROOT
BRANCH   7  10
ATOM     10  C   UNL     1      -0.035   9.811  22.889  0.00  0.00    +0.000 C 
ATOM     11  C   UNL     1      -0.894  11.056  22.742  0.00  0.00    +0.000 C 
ENDBRANCH   7  10
BRANCH   1  12
ATOM     12  C   UNL     1       2.512   5.702  20.099  0.00  0.00    +0.000 C 
BRANCH  12  14
ATOM     13  C   UNL     1       1.307   3.660  20.960  0.00  0.00    +0.000 C 
ATOM     14  C   UNL     1       1.342   4.737  19.886  0.00  0.00    +0.000 C 
ENDBRANCH  12  14
ENDBRANCH   1  12
BRANCH   2  15
ATOM     15  C   UNL     1       3.344   6.408  17.264  0.00  0.00    +0.000 C 
BRANCH  15  16
ATOM     16  N   UNL     1       4.777   6.291  17.535  0.00  0.00    +0.000 N 
ATOM     17  C   UNL     1       5.730   7.250  17.296  0.00  0.00    +0.000 A 
ATOM     18  C   UNL     1       6.903   6.723  17.772  0.00  0.00    +0.000 A 
ATOM     19  N   UNL     1       6.702   5.463  18.264  0.00  0.00    +0.000 NA
ATOM     20  C   UNL     1       5.417   5.188  18.078  0.00  0.00    +0.000 A 
BRANCH  20  21
ATOM     21  C   UNL     1       4.774   3.917  18.429  0.00  0.00    +0.000 A 
ATOM     22  C   UNL     1       5.077   3.276  19.627  0.00  0.00    +0.000 A 
ATOM     23  C   UNL     1       4.426   2.084  19.935  0.00  0.00    +0.000 A 
ATOM     24  C   UNL     1       3.508   1.567  19.030  0.00  0.00    +0.000 A 
ATOM     25  C   UNL     1       3.287   2.262  17.853  0.00  0.00    +0.000 A 
ATOM     26  F   UNL     1       2.398   1.767  16.979  0.00  0.00    +0.000 F 
ATOM     27  N   UNL     1       3.891   3.421  17.529  0.00  0.00    +0.000 NA
ENDBRANCH  20  21
ENDBRANCH  15  16
ENDBRANCH   2  15
TORSDOF 6
ENDMDL
MODEL 6
REMARK VINA RESULT:      -7.8      1.704      3.090
REMARK  Name = 
REMARK  8 active torsions:
REMARK  status: ('A' for Active; 'I' for Inactive)
REMARK    1  A    between atoms: C_1  and  C_2
REMARK    2  A    between atoms: C_2  and  C_3
REMARK    3  A    between atoms: C_3  and  C_4
REMARK    4  A    between atoms: C_5  and  C_6
REMARK    5  A    between atoms: C_6  and  N_7
REMARK    6  A    between atoms: C_11  and  C_12
REMARK    7  A    between atoms: C_23  and  C_24
REMARK    8  A    between atoms: C_24  and  C_25
REMARK                            x       y       z     vdW  Elec       q    Type
REMARK                         _______ _______ _______ _____ _____    ______ ____
ROOT
ATOM      1  C   UNL     1       2.900   5.957  19.477  0.00  0.00    +0.000 A 
ATOM      2  C   UNL     1       3.601   5.845  18.312  0.00  0.00    +0.000 A 
ATOM      3  N   UNL     1       3.689   6.850  17.350  0.00  0.00    +0.000 NA
ATOM      4  C   UNL     1       3.043   7.956  17.550  0.00  0.00    +0.000 A 
ATOM      5  N   UNL     1       2.306   8.143  18.702  0.00  0.00    +0.000 N 
ATOM      6  C   UNL     1       1.571   9.233  19.083  0.00  0.00    +0.000 A 
ATOM      7  C   UNL     1       1.042   8.893  20.311  0.00  0.00    +0.000 A 
ATOM      8  N   UNL     1       1.448   7.625  20.673  0.00  0.00    +0.000 NA
ATOM      9  C   UNL     1       2.207   7.194  19.684  0.00  0.00    +0.000 A 
ENDROOT
BRANCH   7  10
ATOM     10  C   UNL     1       0.145   9.692  21.187  0.00  0.00    +0.000 C 
ATOM     11  C   UNL     1      -0.440   8.873  22.325  0.00  0.00    +0.000 C 
ENDBRANCH   7  10
BRANCH   1  12
ATOM     12  C   UNL     1       2.807   4.834  20.502  0.00  0.00    +0.000 C 
BRANCH  12  14
ATOM     13  C   UNL     1       1.463   2.889  21.382  0.00  0.00    +0.000 C 
ATOM     14  C   UNL     1       1.521   4.014  20.359  0.00  0.00    +0.000 C 
ENDBRANCH  12  14
ENDBRANCH   1  12
BRANCH   2  15
ATOM     15  C   UNL     1       4.428   4.617  17.942  0.00  0.00    +0.000 C 
BRANCH  15  16
ATOM     16  N   UNL     1       5.056   4.691  16.622  0.00  0.00    +0.000 N 
ATOM     17  C   UNL     1       4.640   4.038  15.487  0.00  0.00    +0.000 A 
ATOM     18  C   UNL     1       5.483   4.465  14.494  0.00  0.00    +0.000 A 
ATOM     19  N   UNL     1       6.417   5.332  14.991  0.00  0.00    +0.000 NA
ATOM     20  C   UNL     1       6.180   5.432  16.293  0.00  0.00    +0.000 A 
BRANCH  20  21
ATOM     21  C   UNL     1       6.975   6.235  17.228  0.00  0.00    +0.000 A 
ATOM     22  C   UNL     1       7.547   5.652  18.355  0.00  0.00    +0.000 A 
ATOM     23  C   UNL     1       8.316   6.444  19.204  0.00  0.00    +0.000 A 
ATOM     24  C   UNL     1       8.474   7.791  18.906  0.00  0.00    +0.000 A 
ATOM     25  C   UNL     1       7.849   8.289  17.776  0.00  0.00    +0.000 A 
ATOM     26  F   UNL     1       8.002   9.589  17.485  0.00  0.00    +0.000 F 
ATOM     27  N   UNL     1       7.107   7.550  16.929  0.00  0.00    +0.000 NA
ENDBRANCH  20  21
ENDBRANCH  15  16
ENDBRANCH   2  15
TORSDOF 6
ENDMDL
MODEL 7
REMARK VINA RESULT:      -7.6      1.372      1.654
REMARK  Name = 
REMARK  8 active torsions:
REMARK  status: ('A' for Active; 'I' for Inactive)
REMARK    1  A    between atoms: C_1  and  C_2
REMARK    2  A    between atoms: C_2  and  C_3
REMARK    3  A    between atoms: C_3  and  C_4
REMARK    4  A    between atoms: C_5  and  C_6
REMARK    5  A    between atoms: C_6  and  N_7
REMARK    6  A    between atoms: C_11  and  C_12
REMARK    7  A    between atoms: C_23  and  C_24
REMARK    8  A    between atoms: C_24  and  C_25
REMARK                            x       y       z     vdW  Elec       q    Type
REMARK                         _______ _______ _______ _____ _____    ______ ____
ROOT
ATOM      1  C   UNL     1       3.021   5.582  18.618  0.00  0.00    +0.000 A 
ATOM      2  C   UNL     1       3.697   5.975  17.499  0.00  0.00    +0.000 A 
ATOM      3  N   UNL     1       3.763   7.290  17.046  0.00  0.00    +0.000 NA
ATOM      4  C   UNL     1       3.120   8.205  17.702  0.00  0.00    +0.000 A 
ATOM      5  N   UNL     1       2.408   7.886  18.840  0.00  0.00    +0.000 N 
ATOM      6  C   UNL     1       1.681   8.708  19.658  0.00  0.00    +0.000 A 
ATOM      7  C   UNL     1       1.179   7.881  20.640  0.00  0.00    +0.000 A 
ATOM      8  N   UNL     1       1.593   6.581  20.430  0.00  0.00    +0.000 NA
ATOM      9  C   UNL     1       2.331   6.611  19.337  0.00  0.00    +0.000 A 
ENDROOT
BRANCH   7  10
ATOM     10  C   UNL     1       0.301   8.231  21.788  0.00  0.00    +0.000 C 
ATOM     11  C   UNL     1       0.837   9.401  22.596  0.00  0.00    +0.000 C 
ENDBRANCH   7  10
BRANCH   1  12
ATOM     12  C   UNL     1       2.950   4.132  19.079  0.00  0.00    +0.000 C 
BRANCH  12  14
ATOM     13  C   UNL     1       0.876   2.865  19.753  0.00  0.00    +0.000 C 
ATOM     14  C   UNL     1       1.685   3.420  18.590  0.00  0.00    +0.000 C 
ENDBRANCH  12  14
ENDBRANCH   1  12
BRANCH   2  15
ATOM     15  C   UNL     1       4.516   5.022  16.633  0.00  0.00    +0.000 C 
BRANCH  15  16
ATOM     16  N   UNL     1       5.907   4.867  17.062  0.00  0.00    +0.000 N 
ATOM     17  C   UNL     1       6.372   4.933  18.353  0.00  0.00    +0.000 A 
ATOM     18  C   UNL     1       7.712   4.658  18.270  0.00  0.00    +0.000 A 
ATOM     19  N   UNL     1       8.085   4.456  16.970  0.00  0.00    +0.000 NA
ATOM     20  C   UNL     1       6.994   4.627  16.235  0.00  0.00    +0.000 A 
BRANCH  20  21
ATOM     21  C   UNL     1       6.949   4.541  14.772  0.00  0.00    +0.000 A 
ATOM     22  C   UNL     1       7.729   5.385  13.987  0.00  0.00    +0.000 A 
ATOM     23  C   UNL     1       7.677   5.253  12.602  0.00  0.00    +0.000 A 
ATOM     24  C   UNL     1       6.837   4.294  12.049  0.00  0.00    +0.000 A 
ATOM     25  C   UNL     1       6.081   3.514  12.907  0.00  0.00    +0.000 A 
ATOM     26  F   UNL     1       5.272   2.586  12.377  0.00  0.00    +0.000 F 
ATOM     27  N   UNL     1       6.115   3.609  14.250  0.00  0.00    +0.000 NA
ENDBRANCH  20  21
ENDBRANCH  15  16
ENDBRANCH   2  15
TORSDOF 6
ENDMDL
MODEL 8
REMARK VINA RESULT:      -7.5      1.803      3.343
REMARK  Name = 
REMARK  8 active torsions:
REMARK  status: ('A' for Active; 'I' for Inactive)
REMARK    1  A    between atoms: C_1  and  C_2
REMARK    2  A    between atoms: C_2  and  C_3
REMARK    3  A    between atoms: C_3  and  C_4
REMARK    4  A    between atoms: C_5  and  C_6
REMARK    5  A    between atoms: C_6  and  N_7
REMARK    6  A    between atoms: C_11  and  C_12
REMARK    7  A    between atoms: C_23  and  C_24
REMARK    8  A    between atoms: C_24  and  C_25
REMARK                            x       y       z     vdW  Elec       q    Type
REMARK                         _______ _______ _______ _____ _____    ______ ____
ROOT
ATOM      1  C   UNL     1       3.552   5.040  18.681  0.00  0.00    +0.000 A 
ATOM      2  C   UNL     1       4.164   5.088  17.462  0.00  0.00    +0.000 A 
ATOM      3  N   UNL     1       4.193   6.216  16.644  0.00  0.00    +0.000 NA
ATOM      4  C   UNL     1       3.577   7.285  17.041  0.00  0.00    +0.000 A 
ATOM      5  N   UNL     1       2.929   7.313  18.259  0.00  0.00    +0.000 N 
ATOM      6  C   UNL     1       2.238   8.342  18.841  0.00  0.00    +0.000 A 
ATOM      7  C   UNL     1       1.796   7.837  20.045  0.00  0.00    +0.000 A 
ATOM      8  N   UNL     1       2.212   6.530  20.200  0.00  0.00    +0.000 NA
ATOM      9  C   UNL     1       2.891   6.238  19.107  0.00  0.00    +0.000 A 
ENDROOT
BRANCH   7  10
ATOM     10  C   UNL     1       0.977   8.510  21.088  0.00  0.00    +0.000 C 
ATOM     11  C   UNL     1       0.042   9.558  20.508  0.00  0.00    +0.000 C 
ENDBRANCH   7  10
BRANCH   1  12
ATOM     12  C   UNL     1       3.520   3.787  19.546  0.00  0.00    +0.000 C 
BRANCH  12  14
ATOM     13  C   UNL     1       3.029   1.497  18.607  0.00  0.00    +0.000 C 
ATOM     14  C   UNL     1       2.430   2.801  19.113  0.00  0.00    +0.000 C 
ENDBRANCH  12  14
ENDBRANCH   1  12
BRANCH   2  15
ATOM     15  C   UNL     1       4.946   3.921  16.867  0.00  0.00    +0.000 C 
BRANCH  15  16
ATOM     16  N   UNL     1       5.797   4.285  15.733  0.00  0.00    +0.000 N 
ATOM     17  C   UNL     1       5.683   3.814  14.448  0.00  0.00    +0.000 A 
ATOM     18  C   UNL     1       6.640   4.483  13.730  0.00  0.00    +0.000 A 
ATOM     19  N   UNL     1       7.354   5.323  14.540  0.00  0.00    +0.000 NA
ATOM     20  C   UNL     1       6.867   5.166  15.765  0.00  0.00    +0.000 A 
BRANCH  20  21
ATOM     21  C   UNL     1       7.370   5.853  16.959  0.00  0.00    +0.000 A 
ATOM     22  C   UNL     1       7.610   5.147  18.134  0.00  0.00    +0.000 A 
ATOM     23  C   UNL     1       8.112   5.831  19.238  0.00  0.00    +0.000 A 
ATOM     24  C   UNL     1       8.342   7.197  19.134  0.00  0.00    +0.000 A 
ATOM     25  C   UNL     1       8.053   7.819  17.933  0.00  0.00    +0.000 A 
ATOM     26  F   UNL     1       8.277   9.137  17.828  0.00  0.00    +0.000 F 
ATOM     27  N   UNL     1       7.576   7.187  16.843  0.00  0.00    +0.000 NA
ENDBRANCH  20  21
ENDBRANCH  15  16
ENDBRANCH   2  15
TORSDOF 6
ENDMDL
MODEL 9
REMARK VINA RESULT:      -7.5      1.024      1.083
REMARK  Name = 
REMARK  8 active torsions:
REMARK  status: ('A' for Active; 'I' for Inactive)
REMARK    1  A    between atoms: C_1  and  C_2
REMARK    2  A    between atoms: C_2  and  C_3
REMARK    3  A    between atoms: C_3  and  C_4
REMARK    4  A    between atoms: C_5  and  C_6
REMARK    5  A    between atoms: C_6  and  N_7
REMARK    6  A    between atoms: C_11  and  C_12
REMARK    7  A    between atoms: C_23  and  C_24
REMARK    8  A    between atoms: C_24  and  C_25
REMARK                            x       y       z     vdW  Elec       q    Type
REMARK                         _______ _______ _______ _____ _____    ______ ____
ROOT
ATOM      1  C   UNL     1       2.851   6.505  19.156  0.00  0.00    +0.000 A 
ATOM      2  C   UNL     1       3.308   6.833  17.913  0.00  0.00    +0.000 A 
ATOM      3  N   UNL     1       3.031   8.038  17.269  0.00  0.00    +0.000 NA
ATOM      4  C   UNL     1       2.267   8.897  17.867  0.00  0.00    +0.000 A 
ATOM      5  N   UNL     1       1.761   8.636  19.124  0.00  0.00    +0.000 N 
ATOM      6  C   UNL     1       0.951   9.417  19.903  0.00  0.00    +0.000 A 
ATOM      7  C   UNL     1       0.747   8.682  21.052  0.00  0.00    +0.000 A 
ATOM      8  N   UNL     1       1.421   7.480  20.979  0.00  0.00    +0.000 NA
ATOM      9  C   UNL     1       2.021   7.476  19.804  0.00  0.00    +0.000 A 
ENDROOT
BRANCH   7  10
ATOM     10  C   UNL     1      -0.070   9.032  22.244  0.00  0.00    +0.000 C 
ATOM     11  C   UNL     1      -0.422  10.510  22.296  0.00  0.00    +0.000 C 
ENDBRANCH   7  10
BRANCH   1  12
ATOM     12  C   UNL     1       3.155   5.171  19.826  0.00  0.00    +0.000 C 
BRANCH  12  14
ATOM     13  C   UNL     1       1.141   3.875  20.621  0.00  0.00    +0.000 C 
ATOM     14  C   UNL     1       2.125   4.091  19.480  0.00  0.00    +0.000 C 
ENDBRANCH  12  14
ENDBRANCH   1  12
BRANCH   2  15
ATOM     15  C   UNL     1       4.232   5.938  17.091  0.00  0.00    +0.000 C 
BRANCH  15  16
ATOM     16  N   UNL     1       5.647   6.302  17.171  0.00  0.00    +0.000 N 
ATOM     17  C   UNL     1       6.232   7.082  18.138  0.00  0.00    +0.000 A 
ATOM     18  C   UNL     1       7.570   7.085  17.841  0.00  0.00    +0.000 A 
ATOM     19  N   UNL     1       7.816   6.358  16.709  0.00  0.00    +0.000 NA
ATOM     20  C   UNL     1       6.639   5.921  16.281  0.00  0.00    +0.000 A 
BRANCH  20  21
ATOM     21  C   UNL     1       6.433   5.126  15.065  0.00  0.00    +0.000 A 
ATOM     22  C   UNL     1       5.452   4.140  15.021  0.00  0.00    +0.000 A 
ATOM     23  C   UNL     1       5.271   3.425  13.839  0.00  0.00    +0.000 A 
ATOM     24  C   UNL     1       6.086   3.709  12.751  0.00  0.00    +0.000 A 
ATOM     25  C   UNL     1       7.051   4.691  12.894  0.00  0.00    +0.000 A 
ATOM     26  F   UNL     1       7.837   4.970  11.844  0.00  0.00    +0.000 F 
ATOM     27  N   UNL     1       7.246   5.408  14.018  0.00  0.00    +0.000 NA
ENDBRANCH  20  21
ENDBRANCH  15  16
ENDBRANCH   2  15
TORSDOF 6
ENDMDL
