MODEL 1
REMARK VINA RESULT:      -6.9      0.000      0.000
REMARK  Name = 
REMARK  10 active torsions:
REMARK  status: ('A' for Active; 'I' for Inactive)
REMARK    1  A    between atoms: C_1  and  O_2
REMARK    2  A    between atoms: O_2  and  C_3
REMARK    3  A    between atoms: C_3  and  C_4
REMARK    4  A    between atoms: C_4  and  O_6
REMARK    5  A    between atoms: O_6  and  C_7
REMARK    6  A    between atoms: C_7  and  C_8
REMARK    7  A    between atoms: N_10  and  C_11
REMARK    8  A    between atoms: C_13  and  C_14
REMARK    9  A    between atoms: C_15  and  C_16
REMARK   10  A    between atoms: C_18  and  N_19
REMARK                            x       y       z     vdW  Elec       q    Type
REMARK                         _______ _______ _______ _____ _____    ______ ____
ROOT
ATOM      1  C   UNL     1       7.557   7.555  17.990  0.00  0.00    +0.000 C 
ATOM      2  O   UNL     1       8.007   6.670  18.716  0.00  0.00    +0.000 OA
ATOM      3  N   UNL     1       6.414   7.463  17.205  0.00  0.00    +0.000 N 
ATOM      4  H   UNL     1       6.255   8.214  16.531  0.00  0.00    +0.000 HD
ENDROOT
BRANCH   3   5
ATOM      5  C   UNL     1       5.500   6.373  17.142  0.00  0.00    +0.000 A 
ATOM      6  C   UNL     1       4.250   6.453  17.772  0.00  0.00    +0.000 A 
ATOM      7  C   UNL     1       3.336   5.381  17.793  0.00  0.00    +0.000 A 
ATOM      8  C   UNL     1       2.041   5.566  18.537  0.00  0.00    +0.000 C 
ATOM      9  C   UNL     1       3.664   4.183  17.142  0.00  0.00    +0.000 A 
ATOM     10  C   UNL     1       2.768   2.973  17.151  0.00  0.00    +0.000 C 
ATOM     11  C   UNL     1       4.886   4.099  16.460  0.00  0.00    +0.000 A 
ATOM     12  C   UNL     1       5.793   5.179  16.450  0.00  0.00    +0.000 A 
BRANCH  12  13
ATOM     13  N   UNL     1       7.058   4.994  15.718  0.00  0.00    +0.000 N 
ATOM     14  O   UNL     1       7.146   5.470  14.573  0.00  0.00    +0.000 OA
ATOM     15  O   UNL     1       7.970   4.371  16.279  0.00  0.00    +0.000 OA
ENDBRANCH  12  13
ENDBRANCH   3   5
BRANCH   1  16
ATOM     16  C   UNL     1       8.287   8.900  17.858  0.00  0.00    +0.000 C 
BRANCH  16  17
ATOM     17  O   UNL     1       9.115   9.168  18.994  0.00  0.00    +0.000 OA
BRANCH  17  18
ATOM     18  C   UNL     1       9.230  10.500  19.268  0.00  0.00    +0.000 C 
ATOM     19  O   UNL     1       9.194  10.974  20.398  0.00  0.00    +0.000 OA
BRANCH  18  20
ATOM     20  C   UNL     1       9.430  11.296  17.978  0.00  0.00    +0.000 C 
BRANCH  20  22
ATOM     21  C   UNL     1      11.337  12.679  18.180  0.00  0.00    +0.000 C 
ATOM     22  O   UNL     1      10.784  11.507  17.589  0.00  0.00    +0.000 OA
ENDBRANCH  20  22
ENDBRANCH  18  20
ENDBRANCH  17  18
ENDBRANCH  16  17
ENDBRANCH   1  16
TORSDOF 7
ENDMDL
MODEL 2
REMARK VINA RESULT:      -6.8      4.047      7.564
REMARK  Name = 
REMARK  10 active torsions:
REMARK  status: ('A' for Active; 'I' for Inactive)
REMARK    1  A    between atoms: C_1  and  O_2
REMARK    2  A    between atoms: O_2  and  C_3
REMARK    3  A    between atoms: C_3  and  C_4
REMARK    4  A    between atoms: C_4  and  O_6
REMARK    5  A    between atoms: O_6  and  C_7
REMARK    6  A    between atoms: C_7  and  C_8
REMARK    7  A    between atoms: N_10  and  C_11
REMARK    8  A    between atoms: C_13  and  C_14
REMARK    9  A    between atoms: C_15  and  C_16
REMARK   10  A    between atoms: C_18  and  N_19
REMARK                            x       y       z     vdW  Elec       q    Type
REMARK                         _______ _______ _______ _____ _____    ______ ____
ROOT
ATOM      1  C   UNL     1       3.963   3.500  17.684  0.00  0.00    +0.000 C 
ATOM      2  O   UNL     1       3.175   4.319  17.215  0.00  0.00    +0.000 OA
ATOM      3  N   UNL     1       5.210   3.175  17.162  0.00  0.00    +0.000 N 
ATOM      4  H   UNL     1       5.680   2.362  17.563  0.00  0.00    +0.000 HD
ENDROOT
BRANCH   3   5
ATOM      5  C   UNL     1       5.853   3.771  16.040  0.00  0.00    +0.000 A 
ATOM      6  C   UNL     1       5.491   3.411  14.736  0.00  0.00    +0.000 A 
ATOM      7  C   UNL     1       6.137   3.924  13.594  0.00  0.00    +0.000 A 
ATOM      8  C   UNL     1       5.693   3.431  12.243  0.00  0.00    +0.000 C 
ATOM      9  C   UNL     1       7.176   4.854  13.750  0.00  0.00    +0.000 A 
ATOM     10  C   UNL     1       7.951   5.419  12.590  0.00  0.00    +0.000 C 
ATOM     11  C   UNL     1       7.520   5.270  15.044  0.00  0.00    +0.000 A 
ATOM     12  C   UNL     1       6.865   4.745  16.179  0.00  0.00    +0.000 A 
BRANCH  12  13
ATOM     13  N   UNL     1       7.302   5.232  17.498  0.00  0.00    +0.000 N 
ATOM     14  O   UNL     1       7.590   4.392  18.366  0.00  0.00    +0.000 OA
ATOM     15  O   UNL     1       7.360   6.457  17.676  0.00  0.00    +0.000 OA
ENDBRANCH  12  13
ENDBRANCH   3   5
BRANCH   1  16
ATOM     16  C   UNL     1       3.595   2.697  18.941  0.00  0.00    +0.000 C 
BRANCH  16  17
ATOM     17  O   UNL     1       2.493   1.816  18.703  0.00  0.00    +0.000 OA
BRANCH  17  18
ATOM     18  C   UNL     1       1.308   2.307  19.172  0.00  0.00    +0.000 C 
ATOM     19  O   UNL     1       0.214   2.030  18.694  0.00  0.00    +0.000 OA
BRANCH  18  20
ATOM     20  C   UNL     1       1.545   3.220  20.375  0.00  0.00    +0.000 C 
BRANCH  20  22
ATOM     21  C   UNL     1       1.687   5.563  20.652  0.00  0.00    +0.000 C 
ATOM     22  O   UNL     1       0.840   4.457  20.357  0.00  0.00    +0.000 OA
ENDBRANCH  20  22
ENDBRANCH  18  20
ENDBRANCH  17  18
ENDBRANCH  16  17
ENDBRANCH   1  16
TORSDOF 7
ENDMDL
MODEL 3
REMARK VINA RESULT:      -6.8      0.979      1.308
REMARK  Name = 
REMARK  10 active torsions:
REMARK  status: ('A' for Active; 'I' for Inactive)
REMARK    1  A    between atoms: C_1  and  O_2
REMARK    2  A    between atoms: O_2  and  C_3
REMARK    3  A    between atoms: C_3  and  C_4
REMARK    4  A    between atoms: C_4  and  O_6
REMARK    5  A    between atoms: O_6  and  C_7
REMARK    6  A    between atoms: C_7  and  C_8
REMARK    7  A    between atoms: N_10  and  C_11
REMARK    8  A    between atoms: C_13  and  C_14
REMARK    9  A    between atoms: C_15  and  C_16
REMARK   10  A    between atoms: C_18  and  N_19
REMARK                            x       y       z     vdW  Elec       q    Type
REMARK                         _______ _______ _______ _____ _____    ______ ____
ROOT
ATOM      1  C   UNL     1       7.612   7.672  17.914  0.00  0.00    +0.000 C 
ATOM      2  O   UNL     1       8.046   6.869  18.739  0.00  0.00    +0.000 OA
ATOM      3  N   UNL     1       6.499   7.486  17.102  0.00  0.00    +0.000 N 
ATOM      4  H   UNL     1       6.357   8.165  16.353  0.00  0.00    +0.000 HD
ENDROOT
BRANCH   3   5
ATOM      5  C   UNL     1       5.602   6.381  17.114  0.00  0.00    +0.000 A 
ATOM      6  C   UNL     1       4.294   6.529  17.595  0.00  0.00    +0.000 A 
ATOM      7  C   UNL     1       3.387   5.455  17.685  0.00  0.00    +0.000 A 
ATOM      8  C   UNL     1       2.021   5.723  18.259  0.00  0.00    +0.000 C 
ATOM      9  C   UNL     1       3.786   4.179  17.261  0.00  0.00    +0.000 A 
ATOM     10  C   UNL     1       2.900   2.966  17.364  0.00  0.00    +0.000 C 
ATOM     11  C   UNL     1       5.073   4.017  16.727  0.00  0.00    +0.000 A 
ATOM     12  C   UNL     1       5.971   5.103  16.644  0.00  0.00    +0.000 A 
BRANCH  12  13
ATOM     13  N   UNL     1       7.305   4.835  16.080  0.00  0.00    +0.000 N 
ATOM     14  O   UNL     1       8.104   4.168  16.759  0.00  0.00    +0.000 OA
ATOM     15  O   UNL     1       7.564   5.289  14.958  0.00  0.00    +0.000 OA
ENDBRANCH  12  13
ENDBRANCH   3   5
BRANCH   1  16
ATOM     16  C   UNL     1       8.329   9.010  17.677  0.00  0.00    +0.000 C 
BRANCH  16  17
ATOM     17  O   UNL     1       8.882   9.536  18.888  0.00  0.00    +0.000 OA
BRANCH  17  18
ATOM     18  C   UNL     1       9.260  10.843  18.777  0.00  0.00    +0.000 C 
ATOM     19  O   UNL     1       8.941  11.573  17.846  0.00  0.00    +0.000 OA
BRANCH  18  20
ATOM     20  C   UNL     1      10.108  11.258  19.980  0.00  0.00    +0.000 C 
BRANCH  20  22
ATOM     21  C   UNL     1      10.585  13.471  20.661  0.00  0.00    +0.000 C 
ATOM     22  O   UNL     1      10.933  12.403  19.786  0.00  0.00    +0.000 OA
ENDBRANCH  20  22
ENDBRANCH  18  20
ENDBRANCH  17  18
ENDBRANCH  16  17
ENDBRANCH   1  16
TORSDOF 7
ENDMDL
MODEL 4
REMARK VINA RESULT:      -6.8      4.096      7.136
REMARK  Name = 
REMARK  10 active torsions:
REMARK  status: ('A' for Active; 'I' for Inactive)
REMARK    1  A    between atoms: C_1  and  O_2
REMARK    2  A    between atoms: O_2  and  C_3
REMARK    3  A    between atoms: C_3  and  C_4
REMARK    4  A    between atoms: C_4  and  O_6
REMARK    5  A    between atoms: O_6  and  C_7
REMARK    6  A    between atoms: C_7  and  C_8
REMARK    7  A    between atoms: N_10  and  C_11
REMARK    8  A    between atoms: C_13  and  C_14
REMARK    9  A    between atoms: C_15  and  C_16
REMARK   10  A    between atoms: C_18  and  N_19
REMARK                            x       y       z     vdW  Elec       q    Type
REMARK                         _______ _______ _______ _____ _____    ______ ____
ROOT
ATOM      1  C   UNL     1       6.054   4.507  14.804  0.00  0.00    +0.000 C 
ATOM      2  O   UNL     1       5.807   5.708  14.710  0.00  0.00    +0.000 OA
ATOM      3  N   UNL     1       5.714   3.685  15.873  0.00  0.00    +0.000 N 
ATOM      4  H   UNL     1       6.128   2.752  15.887  0.00  0.00    +0.000 HD
ENDROOT
BRANCH   3   5
ATOM      5  C   UNL     1       4.953   4.041  17.022  0.00  0.00    +0.000 A 
ATOM      6  C   UNL     1       3.613   3.650  17.139  0.00  0.00    +0.000 A 
ATOM      7  C   UNL     1       2.798   4.028  18.226  0.00  0.00    +0.000 A 
ATOM      8  C   UNL     1       1.360   3.585  18.224  0.00  0.00    +0.000 C 
ATOM      9  C   UNL     1       3.342   4.812  19.254  0.00  0.00    +0.000 A 
ATOM     10  C   UNL     1       2.535   5.299  20.427  0.00  0.00    +0.000 C 
ATOM     11  C   UNL     1       4.696   5.171  19.184  0.00  0.00    +0.000 A 
ATOM     12  C   UNL     1       5.498   4.787  18.089  0.00  0.00    +0.000 A 
BRANCH  12  13
ATOM     13  N   UNL     1       6.906   5.221  18.097  0.00  0.00    +0.000 N 
ATOM     14  O   UNL     1       7.142   6.440  18.140  0.00  0.00    +0.000 OA
ATOM     15  O   UNL     1       7.784   4.349  18.058  0.00  0.00    +0.000 OA
ENDBRANCH  12  13
ENDBRANCH   3   5
BRANCH   1  16
ATOM     16  C   UNL     1       6.837   3.783  13.698  0.00  0.00    +0.000 C 
BRANCH  16  17
ATOM     17  O   UNL     1       6.314   4.080  12.399  0.00  0.00    +0.000 OA
BRANCH  17  18
ATOM     18  C   UNL     1       5.578   3.057  11.874  0.00  0.00    +0.000 C 
ATOM     19  O   UNL     1       6.040   1.963  11.576  0.00  0.00    +0.000 OA
BRANCH  18  20
ATOM     20  C   UNL     1       4.111   3.469  11.740  0.00  0.00    +0.000 C 
BRANCH  20  22
ATOM     21  C   UNL     1       3.047   4.096   9.724  0.00  0.00    +0.000 C 
ATOM     22  O   UNL     1       3.451   3.017  10.561  0.00  0.00    +0.000 OA
ENDBRANCH  20  22
ENDBRANCH  18  20
ENDBRANCH  17  18
ENDBRANCH  16  17
ENDBRANCH   1  16
TORSDOF 7
ENDMDL
MODEL 5
REMARK VINA RESULT:      -6.7      0.887      1.576
REMARK  Name = 
REMARK  10 active torsions:
REMARK  status: ('A' for Active; 'I' for Inactive)
REMARK    1  A    between atoms: C_1  and  O_2
REMARK    2  A    between atoms: O_2  and  C_3
REMARK    3  A    between atoms: C_3  and  C_4
REMARK    4  A    between atoms: C_4  and  O_6
REMARK    5  A    between atoms: O_6  and  C_7
REMARK    6  A    between atoms: C_7  and  C_8
REMARK    7  A    between atoms: N_10  and  C_11
REMARK    8  A    between atoms: C_13  and  C_14
REMARK    9  A    between atoms: C_15  and  C_16
REMARK   10  A    between atoms: C_18  and  N_19
REMARK                            x       y       z     vdW  Elec       q    Type
REMARK                         _______ _______ _______ _____ _____    ______ ____
ROOT
ATOM      1  C   UNL     1       7.649   7.674  17.864  0.00  0.00    +0.000 C 
ATOM      2  O   UNL     1       8.075   6.877  18.698  0.00  0.00    +0.000 OA
ATOM      3  N   UNL     1       6.532   7.490  17.056  0.00  0.00    +0.000 N 
ATOM      4  H   UNL     1       6.396   8.161  16.299  0.00  0.00    +0.000 HD
ENDROOT
BRANCH   3   5
ATOM      5  C   UNL     1       5.623   6.395  17.083  0.00  0.00    +0.000 A 
ATOM      6  C   UNL     1       4.323   6.559  17.578  0.00  0.00    +0.000 A 
ATOM      7  C   UNL     1       3.405   5.495  17.684  0.00  0.00    +0.000 A 
ATOM      8  C   UNL     1       2.050   5.780  18.272  0.00  0.00    +0.000 C 
ATOM      9  C   UNL     1       3.786   4.213  17.261  0.00  0.00    +0.000 A 
ATOM     10  C   UNL     1       2.888   3.011  17.379  0.00  0.00    +0.000 C 
ATOM     11  C   UNL     1       5.064   4.035  16.712  0.00  0.00    +0.000 A 
ATOM     12  C   UNL     1       5.973   5.111  16.615  0.00  0.00    +0.000 A 
BRANCH  12  13
ATOM     13  N   UNL     1       7.297   4.826  16.036  0.00  0.00    +0.000 N 
ATOM     14  O   UNL     1       7.552   5.278  14.907  0.00  0.00    +0.000 OA
ATOM     15  O   UNL     1       8.091   4.148  16.703  0.00  0.00    +0.000 OA
ENDBRANCH  12  13
ENDBRANCH   3   5
BRANCH   1  16
ATOM     16  C   UNL     1       8.380   9.001  17.609  0.00  0.00    +0.000 C 
BRANCH  16  17
ATOM     17  O   UNL     1       8.430   9.813  18.787  0.00  0.00    +0.000 OA
BRANCH  17  18
ATOM     18  C   UNL     1       9.467  10.701  18.779  0.00  0.00    +0.000 C 
ATOM     19  O   UNL     1       9.984  11.142  17.759  0.00  0.00    +0.000 OA
BRANCH  18  20
ATOM     20  C   UNL     1       9.864  11.072  20.208  0.00  0.00    +0.000 C 
BRANCH  20  22
ATOM     21  C   UNL     1       8.578  11.817  22.046  0.00  0.00    +0.000 C 
ATOM     22  O   UNL     1       9.143  12.157  20.784  0.00  0.00    +0.000 OA
ENDBRANCH  20  22
ENDBRANCH  18  20
ENDBRANCH  17  18
ENDBRANCH  16  17
ENDBRANCH   1  16
TORSDOF 7
ENDMDL
MODEL 6
REMARK VINA RESULT:      -6.6      4.010      7.001
REMARK  Name = 
REMARK  10 active torsions:
REMARK  status: ('A' for Active; 'I' for Inactive)
REMARK    1  A    between atoms: C_1  and  O_2
REMARK    2  A    between atoms: O_2  and  C_3
REMARK    3  A    between atoms: C_3  and  C_4
REMARK    4  A    between atoms: C_4  and  O_6
REMARK    5  A    between atoms: O_6  and  C_7
REMARK    6  A    between atoms: C_7  and  C_8
REMARK    7  A    between atoms: N_10  and  C_11
REMARK    8  A    between atoms: C_13  and  C_14
REMARK    9  A    between atoms: C_15  and  C_16
REMARK   10  A    between atoms: C_18  and  N_19
REMARK                            x       y       z     vdW  Elec       q    Type
REMARK                         _______ _______ _______ _____ _____    ______ ____
ROOT
ATOM      1  C   UNL     1       4.357   4.059  18.235  0.00  0.00    +0.000 C 
ATOM      2  O   UNL     1       3.877   5.173  18.037  0.00  0.00    +0.000 OA
ATOM      3  N   UNL     1       5.259   3.400  17.408  0.00  0.00    +0.000 N 
ATOM      4  H   UNL     1       5.442   2.417  17.614  0.00  0.00    +0.000 HD
ENDROOT
BRANCH   3   5
ATOM      5  C   UNL     1       5.863   3.905  16.221  0.00  0.00    +0.000 A 
ATOM      6  C   UNL     1       5.386   3.524  14.960  0.00  0.00    +0.000 A 
ATOM      7  C   UNL     1       5.987   3.945  13.757  0.00  0.00    +0.000 A 
ATOM      8  C   UNL     1       5.415   3.438  12.461  0.00  0.00    +0.000 C 
ATOM      9  C   UNL     1       7.098   4.800  13.804  0.00  0.00    +0.000 A 
ATOM     10  C   UNL     1       7.828   5.263  12.572  0.00  0.00    +0.000 C 
ATOM     11  C   UNL     1       7.560   5.237  15.054  0.00  0.00    +0.000 A 
ATOM     12  C   UNL     1       6.950   4.805  16.251  0.00  0.00    +0.000 A 
BRANCH  12  13
ATOM     13  N   UNL     1       7.512   5.307  17.516  0.00  0.00    +0.000 N 
ATOM     14  O   UNL     1       7.506   6.534  17.713  0.00  0.00    +0.000 OA
ATOM     15  O   UNL     1       7.965   4.481  18.320  0.00  0.00    +0.000 OA
ENDBRANCH  12  13
ENDBRANCH   3   5
BRANCH   1  16
ATOM     16  C   UNL     1       3.946   3.242  19.469  0.00  0.00    +0.000 C 
BRANCH  16  17
ATOM     17  O   UNL     1       2.619   2.721  19.342  0.00  0.00    +0.000 OA
BRANCH  17  18
ATOM     18  C   UNL     1       1.816   3.044  20.398  0.00  0.00    +0.000 C 
ATOM     19  O   UNL     1       1.613   2.307  21.356  0.00  0.00    +0.000 OA
BRANCH  18  20
ATOM     20  C   UNL     1       1.236   4.448  20.219  0.00  0.00    +0.000 C 
BRANCH  20  22
ATOM     21  C   UNL     1       1.853   6.726  20.349  0.00  0.00    +0.000 C 
ATOM     22  O   UNL     1       1.835   5.466  21.013  0.00  0.00    +0.000 OA
ENDBRANCH  20  22
ENDBRANCH  18  20
ENDBRANCH  17  18
ENDBRANCH  16  17
ENDBRANCH   1  16
TORSDOF 7
ENDMDL
MODEL 7
REMARK VINA RESULT:      -6.6      3.770      6.298
REMARK  Name = 
REMARK  10 active torsions:
REMARK  status: ('A' for Active; 'I' for Inactive)
REMARK    1  A    between atoms: C_1  and  O_2
REMARK    2  A    between atoms: O_2  and  C_3
REMARK    3  A    between atoms: C_3  and  C_4
REMARK    4  A    between atoms: C_4  and  O_6
REMARK    5  A    between atoms: O_6  and  C_7
REMARK    6  A    between atoms: C_7  and  C_8
REMARK    7  A    between atoms: N_10  and  C_11
REMARK    8  A    between atoms: C_13  and  C_14
REMARK    9  A    between atoms: C_15  and  C_16
REMARK   10  A    between atoms: C_18  and  N_19
REMARK                            x       y       z     vdW  Elec       q    Type
REMARK                         _______ _______ _______ _____ _____    ______ ____
ROOT
ATOM      1  C   UNL     1       6.557   5.859  16.503  0.00  0.00    +0.000 C 
ATOM      2  O   UNL     1       7.094   6.819  17.051  0.00  0.00    +0.000 OA
ATOM      3  N   UNL     1       5.284   5.371  16.776  0.00  0.00    +0.000 N 
ATOM      4  H   UNL     1       5.036   4.471  16.361  0.00  0.00    +0.000 HD
ENDROOT
BRANCH   3   5
ATOM      5  C   UNL     1       4.328   5.922  17.675  0.00  0.00    +0.000 A 
ATOM      6  C   UNL     1       3.629   7.091  17.346  0.00  0.00    +0.000 A 
ATOM      7  C   UNL     1       2.719   7.711  18.225  0.00  0.00    +0.000 A 
ATOM      8  C   UNL     1       2.059   8.988  17.781  0.00  0.00    +0.000 C 
ATOM      9  C   UNL     1       2.472   7.135  19.480  0.00  0.00    +0.000 A 
ATOM     10  C   UNL     1       1.552   7.752  20.498  0.00  0.00    +0.000 C 
ATOM     11  C   UNL     1       3.120   5.936  19.810  0.00  0.00    +0.000 A 
ATOM     12  C   UNL     1       4.031   5.328  18.920  0.00  0.00    +0.000 A 
BRANCH  12  13
ATOM     13  N   UNL     1       4.672   4.077  19.359  0.00  0.00    +0.000 N 
ATOM     14  O   UNL     1       5.913   4.042  19.412  0.00  0.00    +0.000 OA
ATOM     15  O   UNL     1       3.942   3.120  19.653  0.00  0.00    +0.000 OA
ENDBRANCH  12  13
ENDBRANCH   3   5
BRANCH   1  16
ATOM     16  C   UNL     1       7.307   5.052  15.432  0.00  0.00    +0.000 C 
BRANCH  16  17
ATOM     17  O   UNL     1       6.463   4.731  14.322  0.00  0.00    +0.000 OA
BRANCH  17  18
ATOM     18  C   UNL     1       7.117   4.774  13.125  0.00  0.00    +0.000 C 
ATOM     19  O   UNL     1       8.037   5.542  12.873  0.00  0.00    +0.000 OA
BRANCH  18  20
ATOM     20  C   UNL     1       6.553   3.721  12.170  0.00  0.00    +0.000 C 
BRANCH  20  22
ATOM     21  C   UNL     1       4.408   3.177  11.337  0.00  0.00    +0.000 C 
ATOM     22  O   UNL     1       5.250   3.240  12.485  0.00  0.00    +0.000 OA
ENDBRANCH  20  22
ENDBRANCH  18  20
ENDBRANCH  17  18
ENDBRANCH  16  17
ENDBRANCH   1  16
TORSDOF 7
ENDMDL
MODEL 8
REMARK VINA RESULT:      -6.6      4.399      6.232
REMARK  Name = 
REMARK  10 active torsions:
REMARK  status: ('A' for Active; 'I' for Inactive)
REMARK    1  A    between atoms: C_1  and  O_2
REMARK    2  A    between atoms: O_2  and  C_3
REMARK    3  A    between atoms: C_3  and  C_4
REMARK    4  A    between atoms: C_4  and  O_6
REMARK    5  A    between atoms: O_6  and  C_7
REMARK    6  A    between atoms: C_7  and  C_8
REMARK    7  A    between atoms: N_10  and  C_11
REMARK    8  A    between atoms: C_13  and  C_14
REMARK    9  A    between atoms: C_15  and  C_16
REMARK   10  A    between atoms: C_18  and  N_19
REMARK                            x       y       z     vdW  Elec       q    Type
REMARK                         _______ _______ _______ _____ _____    ______ ____
ROOT
ATOM      1  C   UNL     1       6.443   4.538  17.132  0.00  0.00    +0.000 C 
ATOM      2  O   UNL     1       7.023   4.647  18.211  0.00  0.00    +0.000 OA
ATOM      3  N   UNL     1       5.083   4.726  16.915  0.00  0.00    +0.000 N 
ATOM      4  H   UNL     1       4.717   4.441  16.005  0.00  0.00    +0.000 HD
ENDROOT
BRANCH   3   5
ATOM      5  C   UNL     1       4.112   5.153  17.864  0.00  0.00    +0.000 A 
ATOM      6  C   UNL     1       3.568   6.442  17.798  0.00  0.00    +0.000 A 
ATOM      7  C   UNL     1       2.651   6.935  18.748  0.00  0.00    +0.000 A 
ATOM      8  C   UNL     1       2.166   8.352  18.600  0.00  0.00    +0.000 C 
ATOM      9  C   UNL     1       2.238   6.106  19.801  0.00  0.00    +0.000 A 
ATOM     10  C   UNL     1       1.298   6.563  20.884  0.00  0.00    +0.000 C 
ATOM     11  C   UNL     1       2.728   4.793  19.858  0.00  0.00    +0.000 A 
ATOM     12  C   UNL     1       3.648   4.314  18.900  0.00  0.00    +0.000 A 
BRANCH  12  13
ATOM     13  N   UNL     1       4.117   2.926  19.049  0.00  0.00    +0.000 N 
ATOM     14  O   UNL     1       3.726   2.085  18.222  0.00  0.00    +0.000 OA
ATOM     15  O   UNL     1       4.877   2.666  19.991  0.00  0.00    +0.000 OA
ENDBRANCH  12  13
ENDBRANCH   3   5
BRANCH   1  16
ATOM     16  C   UNL     1       7.216   4.127  15.870  0.00  0.00    +0.000 C 
BRANCH  16  17
ATOM     17  O   UNL     1       6.413   4.253  14.693  0.00  0.00    +0.000 OA
BRANCH  17  18
ATOM     18  C   UNL     1       7.112   4.725  13.619  0.00  0.00    +0.000 C 
ATOM     19  O   UNL     1       7.944   5.622  13.682  0.00  0.00    +0.000 OA
BRANCH  18  20
ATOM     20  C   UNL     1       6.723   3.963  12.351  0.00  0.00    +0.000 C 
BRANCH  20  22
ATOM     21  C   UNL     1       4.593   3.265  11.601  0.00  0.00    +0.000 C 
ATOM     22  O   UNL     1       5.668   3.018  12.501  0.00  0.00    +0.000 OA
ENDBRANCH  20  22
ENDBRANCH  18  20
ENDBRANCH  17  18
ENDBRANCH  16  17
ENDBRANCH   1  16
TORSDOF 7
ENDMDL
MODEL 9
REMARK VINA RESULT:      -6.5      4.061      7.259
REMARK  Name = 
REMARK  10 active torsions:
REMARK  status: ('A' for Active; 'I' for Inactive)
REMARK    1  A    between atoms: C_1  and  O_2
REMARK    2  A    between atoms: O_2  and  C_3
REMARK    3  A    between atoms: C_3  and  C_4
REMARK    4  A    between atoms: C_4  and  O_6
REMARK    5  A    between atoms: O_6  and  C_7
REMARK    6  A    between atoms: C_7  and  C_8
REMARK    7  A    between atoms: N_10  and  C_11
REMARK    8  A    between atoms: C_13  and  C_14
REMARK    9  A    between atoms: C_15  and  C_16
REMARK   10  A    between atoms: C_18  and  N_19
REMARK                            x       y       z     vdW  Elec       q    Type
REMARK                         _______ _______ _______ _____ _____    ______ ____
ROOT
ATOM      1  C   UNL     1       4.229   4.307  18.028  0.00  0.00    +0.000 C 
ATOM      2  O   UNL     1       3.791   5.426  17.768  0.00  0.00    +0.000 OA
ATOM      3  N   UNL     1       5.108   3.572  17.241  0.00  0.00    +0.000 N 
ATOM      4  H   UNL     1       5.254   2.595  17.501  0.00  0.00    +0.000 HD
ENDROOT
BRANCH   3   5
ATOM      5  C   UNL     1       5.733   3.990  16.031  0.00  0.00    +0.000 A 
ATOM      6  C   UNL     1       5.197   3.625  14.789  0.00  0.00    +0.000 A 
ATOM      7  C   UNL     1       5.810   3.960  13.565  0.00  0.00    +0.000 A 
ATOM      8  C   UNL     1       5.167   3.477  12.292  0.00  0.00    +0.000 C 
ATOM      9  C   UNL     1       6.996   4.708  13.570  0.00  0.00    +0.000 A 
ATOM     10  C   UNL     1       7.741   5.071  12.314  0.00  0.00    +0.000 C 
ATOM     11  C   UNL     1       7.522   5.130  14.800  0.00  0.00    +0.000 A 
ATOM     12  C   UNL     1       6.898   4.785  16.018  0.00  0.00    +0.000 A 
BRANCH  12  13
ATOM     13  N   UNL     1       7.530   5.262  17.260  0.00  0.00    +0.000 N 
ATOM     14  O   UNL     1       7.862   4.419  18.109  0.00  0.00    +0.000 OA
ATOM     15  O   UNL     1       7.697   6.482  17.396  0.00  0.00    +0.000 OA
ENDBRANCH  12  13
ENDBRANCH   3   5
BRANCH   1  16
ATOM     16  C   UNL     1       3.786   3.573  19.303  0.00  0.00    +0.000 C 
BRANCH  16  17
ATOM     17  O   UNL     1       4.828   2.743  19.825  0.00  0.00    +0.000 OA
BRANCH  17  18
ATOM     18  C   UNL     1       4.420   1.974  20.877  0.00  0.00    +0.000 C 
ATOM     19  O   UNL     1       3.449   2.231  21.578  0.00  0.00    +0.000 OA
BRANCH  18  20
ATOM     20  C   UNL     1       5.328   0.754  21.031  0.00  0.00    +0.000 C 
BRANCH  20  22
ATOM     21  C   UNL     1       6.749  -0.554  22.395  0.00  0.00    +0.000 C 
ATOM     22  O   UNL     1       6.074   0.691  22.243  0.00  0.00    +0.000 OA
ENDBRANCH  20  22
ENDBRANCH  18  20
ENDBRANCH  17  18
ENDBRANCH  16  17
ENDBRANCH   1  16
TORSDOF 7
ENDMDL
