MODEL 1
REMARK VINA RESULT:      -9.0      0.000      0.000
REMARK  Name = 
REMARK  7 active torsions:
REMARK  status: ('A' for Active; 'I' for Inactive)
REMARK    1  A    between atoms: C_2  and  O_3
REMARK    2  A    between atoms: C_2  and  C_17
REMARK    3  A    between atoms: O_3  and  C_4
REMARK    4  A    between atoms: C_4  and  C_5
REMARK    5  A    between atoms: C_4  and  C_11
REMARK    6  A    between atoms: C_5  and  N_6
REMARK    7  A    between atoms: C_20  and  C_21
REMARK                            x       y       z     vdW  Elec       q    Type
REMARK                         _______ _______ _______ _____ _____    ______ ____
ROOT
ATOM      1  O   UNL     1       4.165   7.500  16.778  0.00  0.00    +0.000 OA
ATOM      2  C   UNL     1       3.656   6.948  17.740  0.00  0.00    +0.000 C 
ENDROOT
BRANCH   2   3
ATOM      3  C   UNL     1       2.634   7.687  18.537  0.00  0.00    +0.000 A 
ATOM      4  C   UNL     1       2.050   8.873  18.046  0.00  0.00    +0.000 A 
ATOM      5  C   UNL     1       1.146   9.606  18.826  0.00  0.00    +0.000 A 
ATOM      6  C   UNL     1       0.814   9.182  20.127  0.00  0.00    +0.000 A 
ATOM      7  C   UNL     1       1.348   7.958  20.582  0.00  0.00    +0.000 A 
ATOM      8  C   UNL     1       2.239   7.220  19.798  0.00  0.00    +0.000 A 
BRANCH   6   9
ATOM      9  C   UNL     1       0.018  10.071  21.042  0.00  0.00    +0.000 A 
ATOM     10  C   UNL     1      -0.302  11.412  20.723  0.00  0.00    +0.000 A 
ATOM     11  C   UNL     1      -0.937  12.236  21.667  0.00  0.00    +0.000 A 
ATOM     12  C   UNL     1      -1.242  11.745  22.938  0.00  0.00    +0.000 A 
ATOM     13  C   UNL     1      -0.943  10.425  23.262  0.00  0.00    +0.000 A 
ATOM     14  C   UNL     1      -0.330   9.594  22.324  0.00  0.00    +0.000 A 
ENDBRANCH   6   9
ENDBRANCH   2   3
BRANCH   2  15
ATOM     15  O   UNL     1       4.075   5.702  18.123  0.00  0.00    +0.000 OA
BRANCH  15  16
ATOM     16  C   UNL     1       3.503   4.485  17.751  0.00  0.00    +0.000 C 
BRANCH  16  17
ATOM     17  C   UNL     1       2.720   3.854  18.898  0.00  0.00    +0.000 A 
ATOM     18  C   UNL     1       1.317   3.688  18.859  0.00  0.00    +0.000 A 
ATOM     19  C   UNL     1       0.639   3.126  19.950  0.00  0.00    +0.000 A 
ATOM     20  C   UNL     1       1.345   2.722  21.086  0.00  0.00    +0.000 A 
ATOM     21  C   UNL     1       2.731   2.872  21.136  0.00  0.00    +0.000 A 
ATOM     22  C   UNL     1       3.412   3.430  20.051  0.00  0.00    +0.000 A 
ENDBRANCH  16  17
BRANCH  16  23
ATOM     23  C   UNL     1       4.508   3.465  17.140  0.00  0.00    +0.000 C 
BRANCH  23  24
ATOM     24  N   UNL     1       5.606   4.068  16.368  0.00  0.00    +0.000 N 
ATOM     25  C   UNL     1       5.625   4.257  15.037  0.00  0.00    +0.000 A 
ATOM     26  C   UNL     1       6.854   4.779  14.700  0.00  0.00    +0.000 A 
ATOM     27  N   UNL     1       7.600   4.918  15.815  0.00  0.00    +0.000 NA
ATOM     28  C   UNL     1       6.811   4.473  16.814  0.00  0.00    +0.000 A 
ENDBRANCH  23  24
ENDBRANCH  16  23
ENDBRANCH  15  16
ENDBRANCH   2  15
TORSDOF 7
ENDMDL
MODEL 2
REMARK VINA RESULT:      -8.5      1.024      1.881
REMARK  Name = 
REMARK  7 active torsions:
REMARK  status: ('A' for Active; 'I' for Inactive)
REMARK    1  A    between atoms: C_2  and  O_3
REMARK    2  A    between atoms: C_2  and  C_17
REMARK    3  A    between atoms: O_3  and  C_4
REMARK    4  A    between atoms: C_4  and  C_5
REMARK    5  A    between atoms: C_4  and  C_11
REMARK    6  A    between atoms: C_5  and  N_6
REMARK    7  A    between atoms: C_20  and  C_21
REMARK                            x       y       z     vdW  Elec       q    Type
REMARK                         _______ _______ _______ _____ _____    ______ ____
ROOT
ATOM      1  O   UNL     1       4.801   6.298  18.762  0.00  0.00    +0.000 OA
ATOM      2  C   UNL     1       3.743   6.389  18.161  0.00  0.00    +0.000 C 
ENDROOT
BRANCH   2   3
ATOM      3  C   UNL     1       2.790   7.472  18.539  0.00  0.00    +0.000 A 
ATOM      4  C   UNL     1       2.171   7.483  19.806  0.00  0.00    +0.000 A 
ATOM      5  C   UNL     1       1.220   8.458  20.134  0.00  0.00    +0.000 A 
ATOM      6  C   UNL     1       0.849   9.441  19.196  0.00  0.00    +0.000 A 
ATOM      7  C   UNL     1       1.525   9.465  17.957  0.00  0.00    +0.000 A 
ATOM      8  C   UNL     1       2.483   8.499  17.637  0.00  0.00    +0.000 A 
BRANCH   6   9
ATOM      9  C   UNL     1      -0.317  10.352  19.463  0.00  0.00    +0.000 A 
ATOM     10  C   UNL     1      -1.283  10.671  18.480  0.00  0.00    +0.000 A 
ATOM     11  C   UNL     1      -2.279  11.627  18.745  0.00  0.00    +0.000 A 
ATOM     12  C   UNL     1      -2.313  12.285  19.975  0.00  0.00    +0.000 A 
ATOM     13  C   UNL     1      -1.375  11.974  20.955  0.00  0.00    +0.000 A 
ATOM     14  C   UNL     1      -0.395  11.013  20.708  0.00  0.00    +0.000 A 
ENDBRANCH   6   9
ENDBRANCH   2   3
BRANCH   2  15
ATOM     15  O   UNL     1       3.408   5.463  17.209  0.00  0.00    +0.000 OA
BRANCH  15  16
ATOM     16  C   UNL     1       3.372   4.078  17.377  0.00  0.00    +0.000 C 
BRANCH  16  17
ATOM     17  C   UNL     1       2.761   3.689  18.720  0.00  0.00    +0.000 A 
ATOM     18  C   UNL     1       3.526   3.125  19.766  0.00  0.00    +0.000 A 
ATOM     19  C   UNL     1       2.914   2.759  20.974  0.00  0.00    +0.000 A 
ATOM     20  C   UNL     1       1.542   2.952  21.155  0.00  0.00    +0.000 A 
ATOM     21  C   UNL     1       0.776   3.515  20.134  0.00  0.00    +0.000 A 
ATOM     22  C   UNL     1       1.381   3.882  18.930  0.00  0.00    +0.000 A 
ENDBRANCH  16  17
BRANCH  16  23
ATOM     23  C   UNL     1       4.742   3.372  17.165  0.00  0.00    +0.000 C 
BRANCH  23  24
ATOM     24  N   UNL     1       5.670   4.080  16.271  0.00  0.00    +0.000 N 
ATOM     25  C   UNL     1       5.539   4.212  14.940  0.00  0.00    +0.000 A 
ATOM     26  C   UNL     1       6.649   4.878  14.467  0.00  0.00    +0.000 A 
ATOM     27  N   UNL     1       7.470   5.163  15.498  0.00  0.00    +0.000 NA
ATOM     28  C   UNL     1       6.845   4.661  16.584  0.00  0.00    +0.000 A 
ENDBRANCH  23  24
ENDBRANCH  16  23
ENDBRANCH  15  16
ENDBRANCH   2  15
TORSDOF 7
ENDMDL
MODEL 3
REMARK VINA RESULT:      -8.5      0.784      1.408
REMARK  Name = 
REMARK  7 active torsions:
REMARK  status: ('A' for Active; 'I' for Inactive)
REMARK    1  A    between atoms: C_2  and  O_3
REMARK    2  A    between atoms: C_2  and  C_17
REMARK    3  A    between atoms: O_3  and  C_4
REMARK    4  A    between atoms: C_4  and  C_5
REMARK    5  A    between atoms: C_4  and  C_11
REMARK    6  A    between atoms: C_5  and  N_6
REMARK    7  A    between atoms: C_20  and  C_21
REMARK                            x       y       z     vdW  Elec       q    Type
REMARK                         _______ _______ _______ _____ _____    ______ ____
ROOT
ATOM      1  O   UNL     1       3.835   7.946  16.772  0.00  0.00    +0.000 OA
ATOM      2  C   UNL     1       3.307   7.373  17.711  0.00  0.00    +0.000 C 
ENDROOT
BRANCH   2   3
ATOM      3  C   UNL     1       2.286   8.101  18.518  0.00  0.00    +0.000 A 
ATOM      4  C   UNL     1       1.539   9.159  17.957  0.00  0.00    +0.000 A 
ATOM      5  C   UNL     1       0.633   9.891  18.736  0.00  0.00    +0.000 A 
ATOM      6  C   UNL     1       0.461   9.598  20.103  0.00  0.00    +0.000 A 
ATOM      7  C   UNL     1       1.160   8.494  20.636  0.00  0.00    +0.000 A 
ATOM      8  C   UNL     1       2.053   7.755  19.855  0.00  0.00    +0.000 A 
BRANCH   6   9
ATOM      9  C   UNL     1      -0.342  10.511  20.987  0.00  0.00    +0.000 A 
ATOM     10  C   UNL     1      -0.463  10.318  22.382  0.00  0.00    +0.000 A 
ATOM     11  C   UNL     1      -1.329  11.125  23.140  0.00  0.00    +0.000 A 
ATOM     12  C   UNL     1      -2.093  12.114  22.519  0.00  0.00    +0.000 A 
ATOM     13  C   UNL     1      -1.977  12.321  21.147  0.00  0.00    +0.000 A 
ATOM     14  C   UNL     1      -1.105  11.538  20.391  0.00  0.00    +0.000 A 
ENDBRANCH   6   9
ENDBRANCH   2   3
BRANCH   2  15
ATOM     15  O   UNL     1       3.706   6.111  18.063  0.00  0.00    +0.000 OA
BRANCH  15  16
ATOM     16  C   UNL     1       3.112   4.913  17.663  0.00  0.00    +0.000 C 
BRANCH  16  17
ATOM     17  C   UNL     1       2.420   4.211  18.826  0.00  0.00    +0.000 A 
ATOM     18  C   UNL     1       1.341   3.318  18.640  0.00  0.00    +0.000 A 
ATOM     19  C   UNL     1       0.720   2.715  19.745  0.00  0.00    +0.000 A 
ATOM     20  C   UNL     1       1.166   2.992  21.040  0.00  0.00    +0.000 A 
ATOM     21  C   UNL     1       2.234   3.865  21.238  0.00  0.00    +0.000 A 
ATOM     22  C   UNL     1       2.858   4.466  20.142  0.00  0.00    +0.000 A 
ENDBRANCH  16  17
BRANCH  16  23
ATOM     23  C   UNL     1       4.072   3.939  16.920  0.00  0.00    +0.000 C 
BRANCH  23  24
ATOM     24  N   UNL     1       5.500   4.271  17.036  0.00  0.00    +0.000 N 
ATOM     25  C   UNL     1       6.172   4.482  18.182  0.00  0.00    +0.000 A 
ATOM     26  C   UNL     1       7.464   4.835  17.859  0.00  0.00    +0.000 A 
ATOM     27  N   UNL     1       7.600   4.843  16.517  0.00  0.00    +0.000 NA
ATOM     28  C   UNL     1       6.385   4.498  16.046  0.00  0.00    +0.000 A 
ENDBRANCH  23  24
ENDBRANCH  16  23
ENDBRANCH  15  16
ENDBRANCH   2  15
TORSDOF 7
ENDMDL
MODEL 4
REMARK VINA RESULT:      -8.4      0.678      1.252
REMARK  Name = 
REMARK  7 active torsions:
REMARK  status: ('A' for Active; 'I' for Inactive)
REMARK    1  A    between atoms: C_2  and  O_3
REMARK    2  A    between atoms: C_2  and  C_17
REMARK    3  A    between atoms: O_3  and  C_4
REMARK    4  A    between atoms: C_4  and  C_5
REMARK    5  A    between atoms: C_4  and  C_11
REMARK    6  A    between atoms: C_5  and  N_6
REMARK    7  A    between atoms: C_20  and  C_21
REMARK                            x       y       z     vdW  Elec       q    Type
REMARK                         _______ _______ _______ _____ _____    ______ ____
ROOT
ATOM      1  O   UNL     1       4.222   7.085  17.116  0.00  0.00    +0.000 OA
ATOM      2  C   UNL     1       3.194   6.695  17.646  0.00  0.00    +0.000 C 
ENDROOT
BRANCH   2   3
ATOM      3  C   UNL     1       2.461   7.616  18.562  0.00  0.00    +0.000 A 
ATOM      4  C   UNL     1       2.220   7.262  19.906  0.00  0.00    +0.000 A 
ATOM      5  C   UNL     1       1.468   8.094  20.745  0.00  0.00    +0.000 A 
ATOM      6  C   UNL     1       0.920   9.297  20.259  0.00  0.00    +0.000 A 
ATOM      7  C   UNL     1       1.225   9.676  18.934  0.00  0.00    +0.000 A 
ATOM      8  C   UNL     1       1.988   8.852  18.102  0.00  0.00    +0.000 A 
BRANCH   6   9
ATOM      9  C   UNL     1      -0.060  10.082  21.087  0.00  0.00    +0.000 A 
ATOM     10  C   UNL     1      -0.695  11.255  20.617  0.00  0.00    +0.000 A 
ATOM     11  C   UNL     1      -1.503  12.019  21.476  0.00  0.00    +0.000 A 
ATOM     12  C   UNL     1      -1.672  11.637  22.808  0.00  0.00    +0.000 A 
ATOM     13  C   UNL     1      -1.061  10.479  23.281  0.00  0.00    +0.000 A 
ATOM     14  C   UNL     1      -0.273   9.704  22.430  0.00  0.00    +0.000 A 
ENDBRANCH   6   9
ENDBRANCH   2   3
BRANCH   2  15
ATOM     15  O   UNL     1       2.767   5.408  17.460  0.00  0.00    +0.000 OA
BRANCH  15  16
ATOM     16  C   UNL     1       3.390   4.252  17.932  0.00  0.00    +0.000 C 
BRANCH  16  17
ATOM     17  C   UNL     1       2.689   3.698  19.168  0.00  0.00    +0.000 A 
ATOM     18  C   UNL     1       1.292   3.793  19.356  0.00  0.00    +0.000 A 
ATOM     19  C   UNL     1       0.696   3.290  20.522  0.00  0.00    +0.000 A 
ATOM     20  C   UNL     1       1.481   2.689  21.509  0.00  0.00    +0.000 A 
ATOM     21  C   UNL     1       2.860   2.581  21.335  0.00  0.00    +0.000 A 
ATOM     22  C   UNL     1       3.458   3.078  20.175  0.00  0.00    +0.000 A 
ENDBRANCH  16  17
BRANCH  16  23
ATOM     23  C   UNL     1       4.918   4.406  18.184  0.00  0.00    +0.000 C 
BRANCH  23  24
ATOM     24  N   UNL     1       5.752   4.352  16.973  0.00  0.00    +0.000 N 
ATOM     25  C   UNL     1       6.949   4.940  16.811  0.00  0.00    +0.000 A 
ATOM     26  C   UNL     1       7.365   4.711  15.518  0.00  0.00    +0.000 A 
ATOM     27  N   UNL     1       6.432   3.981  14.873  0.00  0.00    +0.000 NA
ATOM     28  C   UNL     1       5.460   3.781  15.788  0.00  0.00    +0.000 A 
ENDBRANCH  23  24
ENDBRANCH  16  23
ENDBRANCH  15  16
ENDBRANCH   2  15
TORSDOF 7
ENDMDL
MODEL 5
REMARK VINA RESULT:      -8.4      0.871      1.290
REMARK  Name = 
REMARK  7 active torsions:
REMARK  status: ('A' for Active; 'I' for Inactive)
REMARK    1  A    between atoms: C_2  and  O_3
REMARK    2  A    between atoms: C_2  and  C_17
REMARK    3  A    between atoms: O_3  and  C_4
REMARK    4  A    between atoms: C_4  and  C_5
REMARK    5  A    between atoms: C_4  and  C_11
REMARK    6  A    between atoms: C_5  and  N_6
REMARK    7  A    between atoms: C_20  and  C_21
REMARK                            x       y       z     vdW  Elec       q    Type
REMARK                         _______ _______ _______ _____ _____    ______ ____
ROOT
ATOM      1  O   UNL     1       3.330   7.780  16.602  0.00  0.00    +0.000 OA
ATOM      2  C   UNL     1       3.156   7.476  17.771  0.00  0.00    +0.000 C 
ENDROOT
BRANCH   2   3
ATOM      3  C   UNL     1       2.313   8.360  18.628  0.00  0.00    +0.000 A 
ATOM      4  C   UNL     1       1.956   7.974  19.937  0.00  0.00    +0.000 A 
ATOM      5  C   UNL     1       1.103   8.770  20.713  0.00  0.00    +0.000 A 
ATOM      6  C   UNL     1       0.570   9.966  20.196  0.00  0.00    +0.000 A 
ATOM      7  C   UNL     1       0.989  10.378  18.912  0.00  0.00    +0.000 A 
ATOM      8  C   UNL     1       1.850   9.590  18.144  0.00  0.00    +0.000 A 
BRANCH   6   9
ATOM      9  C   UNL     1      -0.507  10.708  20.938  0.00  0.00    +0.000 A 
ATOM     10  C   UNL     1      -1.340  11.671  20.323  0.00  0.00    +0.000 A 
ATOM     11  C   UNL     1      -2.243  12.426  21.090  0.00  0.00    +0.000 A 
ATOM     12  C   UNL     1      -2.313  12.246  22.473  0.00  0.00    +0.000 A 
ATOM     13  C   UNL     1      -1.506  11.295  23.090  0.00  0.00    +0.000 A 
ATOM     14  C   UNL     1      -0.621  10.527  22.333  0.00  0.00    +0.000 A 
ENDBRANCH   6   9
ENDBRANCH   2   3
BRANCH   2  15
ATOM     15  O   UNL     1       3.789   6.384  18.303  0.00  0.00    +0.000 OA
BRANCH  15  16
ATOM     16  C   UNL     1       3.656   5.062  17.878  0.00  0.00    +0.000 C 
BRANCH  16  17
ATOM     17  C   UNL     1       2.664   4.289  18.742  0.00  0.00    +0.000 A 
ATOM     18  C   UNL     1       1.732   3.378  18.197  0.00  0.00    +0.000 A 
ATOM     19  C   UNL     1       0.822   2.710  19.031  0.00  0.00    +0.000 A 
ATOM     20  C   UNL     1       0.833   2.938  20.409  0.00  0.00    +0.000 A 
ATOM     21  C   UNL     1       1.753   3.828  20.962  0.00  0.00    +0.000 A 
ATOM     22  C   UNL     1       2.662   4.495  20.137  0.00  0.00    +0.000 A 
ENDBRANCH  16  17
BRANCH  16  23
ATOM     23  C   UNL     1       5.002   4.290  17.755  0.00  0.00    +0.000 C 
BRANCH  23  24
ATOM     24  N   UNL     1       5.801   4.628  16.567  0.00  0.00    +0.000 N 
ATOM     25  C   UNL     1       5.458   4.390  15.289  0.00  0.00    +0.000 A 
ATOM     26  C   UNL     1       6.503   4.790  14.486  0.00  0.00    +0.000 A 
ATOM     27  N   UNL     1       7.495   5.279  15.258  0.00  0.00    +0.000 NA
ATOM     28  C   UNL     1       7.036   5.164  16.521  0.00  0.00    +0.000 A 
ENDBRANCH  23  24
ENDBRANCH  16  23
ENDBRANCH  15  16
ENDBRANCH   2  15
TORSDOF 7
ENDMDL
MODEL 6
REMARK VINA RESULT:      -8.3      0.746      1.592
REMARK  Name = 
REMARK  7 active torsions:
REMARK  status: ('A' for Active; 'I' for Inactive)
REMARK    1  A    between atoms: C_2  and  O_3
REMARK    2  A    between atoms: C_2  and  C_17
REMARK    3  A    between atoms: O_3  and  C_4
REMARK    4  A    between atoms: C_4  and  C_5
REMARK    5  A    between atoms: C_4  and  C_11
REMARK    6  A    between atoms: C_5  and  N_6
REMARK    7  A    between atoms: C_20  and  C_21
REMARK                            x       y       z     vdW  Elec       q    Type
REMARK                         _______ _______ _______ _____ _____    ______ ____
ROOT
ATOM      1  O   UNL     1       4.833   6.252  18.661  0.00  0.00    +0.000 OA
ATOM      2  C   UNL     1       3.671   6.249  18.286  0.00  0.00    +0.000 C 
ENDROOT
BRANCH   2   3
ATOM      3  C   UNL     1       2.691   7.141  18.969  0.00  0.00    +0.000 A 
ATOM      4  C   UNL     1       2.219   8.313  18.344  0.00  0.00    +0.000 A 
ATOM      5  C   UNL     1       1.356   9.190  19.015  0.00  0.00    +0.000 A 
ATOM      6  C   UNL     1       0.955   8.927  20.340  0.00  0.00    +0.000 A 
ATOM      7  C   UNL     1       1.377   7.717  20.932  0.00  0.00    +0.000 A 
ATOM      8  C   UNL     1       2.226   6.837  20.256  0.00  0.00    +0.000 A 
BRANCH   6   9
ATOM      9  C   UNL     1       0.209   9.963  21.133  0.00  0.00    +0.000 A 
ATOM     10  C   UNL     1      -0.260   9.733  22.448  0.00  0.00    +0.000 A 
ATOM     11  C   UNL     1      -1.061  10.688  23.095  0.00  0.00    +0.000 A 
ATOM     12  C   UNL     1      -1.418  11.868  22.440  0.00  0.00    +0.000 A 
ATOM     13  C   UNL     1      -0.955  12.112  21.150  0.00  0.00    +0.000 A 
ATOM     14  C   UNL     1      -0.143  11.178  20.507  0.00  0.00    +0.000 A 
ENDBRANCH   6   9
ENDBRANCH   2   3
BRANCH   2  15
ATOM     15  O   UNL     1       3.264   5.383  17.307  0.00  0.00    +0.000 OA
BRANCH  15  16
ATOM     16  C   UNL     1       3.166   3.995  17.417  0.00  0.00    +0.000 C 
BRANCH  16  17
ATOM     17  C   UNL     1       2.609   3.574  18.773  0.00  0.00    +0.000 A 
ATOM     18  C   UNL     1       3.434   3.117  19.824  0.00  0.00    +0.000 A 
ATOM     19  C   UNL     1       2.872   2.717  21.046  0.00  0.00    +0.000 A 
ATOM     20  C   UNL     1       1.489   2.770  21.234  0.00  0.00    +0.000 A 
ATOM     21  C   UNL     1       0.662   3.227  20.208  0.00  0.00    +0.000 A 
ATOM     22  C   UNL     1       1.217   3.628  18.990  0.00  0.00    +0.000 A 
ENDBRANCH  16  17
BRANCH  16  23
ATOM     23  C   UNL     1       4.486   3.233  17.100  0.00  0.00    +0.000 C 
BRANCH  23  24
ATOM     24  N   UNL     1       5.458   3.990  16.297  0.00  0.00    +0.000 N 
ATOM     25  C   UNL     1       6.612   4.516  16.742  0.00  0.00    +0.000 A 
ATOM     26  C   UNL     1       7.196   5.204  15.702  0.00  0.00    +0.000 A 
ATOM     27  N   UNL     1       6.412   5.108  14.609  0.00  0.00    +0.000 NA
ATOM     28  C   UNL     1       5.359   4.363  15.006  0.00  0.00    +0.000 A 
ENDBRANCH  23  24
ENDBRANCH  16  23
ENDBRANCH  15  16
ENDBRANCH   2  15
TORSDOF 7
ENDMDL
MODEL 7
REMARK VINA RESULT:      -8.3      1.289      1.921
REMARK  Name = 
REMARK  7 active torsions:
REMARK  status: ('A' for Active; 'I' for Inactive)
REMARK    1  A    between atoms: C_2  and  O_3
REMARK    2  A    between atoms: C_2  and  C_17
REMARK    3  A    between atoms: O_3  and  C_4
REMARK    4  A    between atoms: C_4  and  C_5
REMARK    5  A    between atoms: C_4  and  C_11
REMARK    6  A    between atoms: C_5  and  N_6
REMARK    7  A    between atoms: C_20  and  C_21
REMARK                            x       y       z     vdW  Elec       q    Type
REMARK                         _______ _______ _______ _____ _____    ______ ____
ROOT
ATOM      1  O   UNL     1       2.892   8.299  17.085  0.00  0.00    +0.000 OA
ATOM      2  C   UNL     1       2.602   8.011  18.235  0.00  0.00    +0.000 C 
ENDROOT
BRANCH   2   3
ATOM      3  C   UNL     1       1.551   8.805  18.934  0.00  0.00    +0.000 A 
ATOM      4  C   UNL     1       0.789   9.768  18.241  0.00  0.00    +0.000 A 
ATOM      5  C   UNL     1      -0.146  10.566  18.913  0.00  0.00    +0.000 A 
ATOM      6  C   UNL     1      -0.332  10.435  20.303  0.00  0.00    +0.000 A 
ATOM      7  C   UNL     1       0.384   9.422  20.976  0.00  0.00    +0.000 A 
ATOM      8  C   UNL     1       1.306   8.617  20.301  0.00  0.00    +0.000 A 
BRANCH   6   9
ATOM      9  C   UNL     1      -1.171  11.428  21.060  0.00  0.00    +0.000 A 
ATOM     10  C   UNL     1      -1.223  11.470  22.472  0.00  0.00    +0.000 A 
ATOM     11  C   UNL     1      -2.120  12.332  23.126  0.00  0.00    +0.000 A 
ATOM     12  C   UNL     1      -2.982  13.143  22.386  0.00  0.00    +0.000 A 
ATOM     13  C   UNL     1      -2.935  13.118  20.995  0.00  0.00    +0.000 A 
ATOM     14  C   UNL     1      -2.034  12.280  20.338  0.00  0.00    +0.000 A 
ENDBRANCH   6   9
ENDBRANCH   2   3
BRANCH   2  15
ATOM     15  O   UNL     1       3.288   7.025  18.894  0.00  0.00    +0.000 OA
BRANCH  15  16
ATOM     16  C   UNL     1       3.638   5.775  18.380  0.00  0.00    +0.000 C 
BRANCH  16  17
ATOM     17  C   UNL     1       2.638   4.698  18.785  0.00  0.00    +0.000 A 
ATOM     18  C   UNL     1       2.387   3.557  17.990  0.00  0.00    +0.000 A 
ATOM     19  C   UNL     1       1.437   2.606  18.392  0.00  0.00    +0.000 A 
ATOM     20  C   UNL     1       0.733   2.777  19.586  0.00  0.00    +0.000 A 
ATOM     21  C   UNL     1       0.975   3.894  20.386  0.00  0.00    +0.000 A 
ATOM     22  C   UNL     1       1.921   4.844  19.991  0.00  0.00    +0.000 A 
ENDBRANCH  16  17
BRANCH  16  23
ATOM     23  C   UNL     1       5.093   5.333  18.711  0.00  0.00    +0.000 C 
BRANCH  23  24
ATOM     24  N   UNL     1       5.939   5.065  17.538  0.00  0.00    +0.000 N 
ATOM     25  C   UNL     1       5.515   4.943  16.269  0.00  0.00    +0.000 A 
ATOM     26  C   UNL     1       6.603   4.625  15.485  0.00  0.00    +0.000 A 
ATOM     27  N   UNL     1       7.703   4.551  16.261  0.00  0.00    +0.000 NA
ATOM     28  C   UNL     1       7.264   4.822  17.507  0.00  0.00    +0.000 A 
ENDBRANCH  23  24
ENDBRANCH  16  23
ENDBRANCH  15  16
ENDBRANCH   2  15
TORSDOF 7
ENDMDL
MODEL 8
REMARK VINA RESULT:      -8.3      1.578      2.423
REMARK  Name = 
REMARK  7 active torsions:
REMARK  status: ('A' for Active; 'I' for Inactive)
REMARK    1  A    between atoms: C_2  and  O_3
REMARK    2  A    between atoms: C_2  and  C_17
REMARK    3  A    between atoms: O_3  and  C_4
REMARK    4  A    between atoms: C_4  and  C_5
REMARK    5  A    between atoms: C_4  and  C_11
REMARK    6  A    between atoms: C_5  and  N_6
REMARK    7  A    between atoms: C_20  and  C_21
REMARK                            x       y       z     vdW  Elec       q    Type
REMARK                         _______ _______ _______ _____ _____    ______ ____
ROOT
ATOM      1  O   UNL     1       2.878   8.386  16.901  0.00  0.00    +0.000 OA
ATOM      2  C   UNL     1       2.594   8.004  18.025  0.00  0.00    +0.000 C 
ENDROOT
BRANCH   2   3
ATOM      3  C   UNL     1       1.791   8.899  18.908  0.00  0.00    +0.000 A 
ATOM      4  C   UNL     1       1.453   8.510  20.221  0.00  0.00    +0.000 A 
ATOM      5  C   UNL     1       0.636   9.317  21.023  0.00  0.00    +0.000 A 
ATOM      6  C   UNL     1       0.120  10.531  20.528  0.00  0.00    +0.000 A 
ATOM      7  C   UNL     1       0.520  10.945  19.240  0.00  0.00    +0.000 A 
ATOM      8  C   UNL     1       1.346  10.145  18.445  0.00  0.00    +0.000 A 
BRANCH   6   9
ATOM      9  C   UNL     1      -0.923  11.291  21.301  0.00  0.00    +0.000 A 
ATOM     10  C   UNL     1      -1.140  11.104  22.685  0.00  0.00    +0.000 A 
ATOM     11  C   UNL     1      -2.211  11.746  23.331  0.00  0.00    +0.000 A 
ATOM     12  C   UNL     1      -3.082  12.560  22.606  0.00  0.00    +0.000 A 
ATOM     13  C   UNL     1      -2.875  12.761  21.245  0.00  0.00    +0.000 A 
ATOM     14  C   UNL     1      -1.803  12.144  20.600  0.00  0.00    +0.000 A 
ENDBRANCH   6   9
ENDBRANCH   2   3
BRANCH   2  15
ATOM     15  O   UNL     1       3.072   6.809  18.490  0.00  0.00    +0.000 OA
BRANCH  15  16
ATOM     16  C   UNL     1       2.927   5.564  17.876  0.00  0.00    +0.000 C 
BRANCH  16  17
ATOM     17  C   UNL     1       2.234   4.560  18.792  0.00  0.00    +0.000 A 
ATOM     18  C   UNL     1       2.038   4.799  20.171  0.00  0.00    +0.000 A 
ATOM     19  C   UNL     1       1.417   3.834  20.977  0.00  0.00    +0.000 A 
ATOM     20  C   UNL     1       0.983   2.627  20.422  0.00  0.00    +0.000 A 
ATOM     21  C   UNL     1       1.162   2.380  19.062  0.00  0.00    +0.000 A 
ATOM     22  C   UNL     1       1.779   3.339  18.253  0.00  0.00    +0.000 A 
ENDBRANCH  16  17
BRANCH  16  23
ATOM     23  C   UNL     1       4.250   4.973  17.308  0.00  0.00    +0.000 C 
BRANCH  23  24
ATOM     24  N   UNL     1       5.462   5.339  18.057  0.00  0.00    +0.000 N 
ATOM     25  C   UNL     1       6.517   6.017  17.572  0.00  0.00    +0.000 A 
ATOM     26  C   UNL     1       7.468   6.092  18.566  0.00  0.00    +0.000 A 
ATOM     27  N   UNL     1       7.010   5.466  19.669  0.00  0.00    +0.000 NA
ATOM     28  C   UNL     1       5.785   5.017  19.325  0.00  0.00    +0.000 A 
ENDBRANCH  23  24
ENDBRANCH  16  23
ENDBRANCH  15  16
ENDBRANCH   2  15
TORSDOF 7
ENDMDL
MODEL 9
REMARK VINA RESULT:      -8.3      0.894      1.497
REMARK  Name = 
REMARK  7 active torsions:
REMARK  status: ('A' for Active; 'I' for Inactive)
REMARK    1  A    between atoms: C_2  and  O_3
REMARK    2  A    between atoms: C_2  and  C_17
REMARK    3  A    between atoms: O_3  and  C_4
REMARK    4  A    between atoms: C_4  and  C_5
REMARK    5  A    between atoms: C_4  and  C_11
REMARK    6  A    between atoms: C_5  and  N_6
REMARK    7  A    between atoms: C_20  and  C_21
REMARK                            x       y       z     vdW  Elec       q    Type
REMARK                         _______ _______ _______ _____ _____    ______ ____
ROOT
ATOM      1  O   UNL     1       4.627   6.198  19.063  0.00  0.00    +0.000 OA
ATOM      2  C   UNL     1       3.636   6.303  18.358  0.00  0.00    +0.000 C 
ENDROOT
BRANCH   2   3
ATOM      3  C   UNL     1       2.636   7.363  18.674  0.00  0.00    +0.000 A 
ATOM      4  C   UNL     1       2.253   8.311  17.703  0.00  0.00    +0.000 A 
ATOM      5  C   UNL     1       1.370   9.352  18.022  0.00  0.00    +0.000 A 
ATOM      6  C   UNL     1       0.859   9.483  19.328  0.00  0.00    +0.000 A 
ATOM      7  C   UNL     1       1.192   8.490  20.273  0.00  0.00    +0.000 A 
ATOM      8  C   UNL     1       2.062   7.444  19.950  0.00  0.00    +0.000 A 
BRANCH   6   9
ATOM      9  C   UNL     1       0.088  10.710  19.728  0.00  0.00    +0.000 A 
ATOM     10  C   UNL     1      -0.072  11.828  18.877  0.00  0.00    +0.000 A 
ATOM     11  C   UNL     1      -0.692  12.998  19.347  0.00  0.00    +0.000 A 
ATOM     12  C   UNL     1      -1.139  13.075  20.667  0.00  0.00    +0.000 A 
ATOM     13  C   UNL     1      -0.997  11.980  21.513  0.00  0.00    +0.000 A 
ATOM     14  C   UNL     1      -0.401  10.807  21.049  0.00  0.00    +0.000 A 
ENDBRANCH   6   9
ENDBRANCH   2   3
BRANCH   2  15
ATOM     15  O   UNL     1       3.413   5.411  17.343  0.00  0.00    +0.000 OA
BRANCH  15  16
ATOM     16  C   UNL     1       3.272   4.028  17.472  0.00  0.00    +0.000 C 
BRANCH  16  17
ATOM     17  C   UNL     1       2.671   3.646  18.821  0.00  0.00    +0.000 A 
ATOM     18  C   UNL     1       3.437   3.061  19.854  0.00  0.00    +0.000 A 
ATOM     19  C   UNL     1       2.834   2.703  21.069  0.00  0.00    +0.000 A 
ATOM     20  C   UNL     1       1.469   2.925  21.269  0.00  0.00    +0.000 A 
ATOM     21  C   UNL     1       0.702   3.508  20.261  0.00  0.00    +0.000 A 
ATOM     22  C   UNL     1       1.298   3.868  19.050  0.00  0.00    +0.000 A 
ENDBRANCH  16  17
BRANCH  16  23
ATOM     23  C   UNL     1       4.575   3.223  17.197  0.00  0.00    +0.000 C 
BRANCH  23  24
ATOM     24  N   UNL     1       5.608   3.957  16.450  0.00  0.00    +0.000 N 
ATOM     25  C   UNL     1       5.660   4.108  15.116  0.00  0.00    +0.000 A 
ATOM     26  C   UNL     1       6.815   4.795  14.810  0.00  0.00    +0.000 A 
ATOM     27  N   UNL     1       7.481   5.074  15.949  0.00  0.00    +0.000 NA
ATOM     28  C   UNL     1       6.720   4.547  16.930  0.00  0.00    +0.000 A 
ENDBRANCH  23  24
ENDBRANCH  16  23
ENDBRANCH  15  16
ENDBRANCH   2  15
TORSDOF 7
ENDMDL
