MODEL 1
REMARK VINA RESULT:      -7.5      0.000      0.000
REMARK  Name = 
REMARK  3 active torsions:
REMARK  status: ('A' for Active; 'I' for Inactive)
REMARK    1  A    between atoms: C_2  and  C_3
REMARK    2  A    between atoms: C_2  and  C_17
REMARK    3  A    between atoms: C_3  and  N_4
REMARK                            x       y       z     vdW  Elec       q    Type
REMARK                         _______ _______ _______ _____ _____    ______ ____
ROOT
ATOM      1  N   UNL     1       2.853   4.002  18.514  0.00  0.00    +0.000 N 
ATOM      2  C   UNL     1       2.344   2.955  19.277  0.00  0.00    +0.000 C 
ATOM      3  O   UNL     1       2.448   1.760  19.101  0.00  0.00    +0.000 OA
ATOM      4  C   UNL     1       1.630   3.619  20.467  0.00  0.00    +0.000 C 
ATOM      5  O   UNL     1       1.089   3.073  21.399  0.00  0.00    +0.000 OA
ATOM      6  C   UNL     1       1.777   5.057  20.257  0.00  0.00    +0.000 A 
ATOM      7  C   UNL     1       1.309   6.067  21.080  0.00  0.00    +0.000 A 
ATOM      8  C   UNL     1       1.580   7.368  20.681  0.00  0.00    +0.000 A 
ATOM      9 BR   UNL     1       0.993   8.814  21.748  0.00  0.00    +0.000 Br
ATOM     10  C   UNL     1       2.288   7.623  19.496  0.00  0.00    +0.000 A 
ATOM     11  C   UNL     1       2.750   6.571  18.679  0.00  0.00    +0.000 A 
ATOM     12 BR   UNL     1       3.675   7.083  17.109  0.00  0.00    +0.000 Br
ATOM     13  C   UNL     1       2.501   5.258  19.070  0.00  0.00    +0.000 A 
ENDROOT
BRANCH   1  14
ATOM     14  C   UNL     1       3.562   3.733  17.283  0.00  0.00    +0.000 C 
BRANCH  14  16
ATOM     15  O   UNL     1       5.649   3.850  18.506  0.00  0.00    +0.000 OA
ATOM     16  C   UNL     1       5.071   3.939  17.423  0.00  0.00    +0.000 C 
BRANCH  16  17
ATOM     17  C   UNL     1       5.867   4.260  16.193  0.00  0.00    +0.000 A 
ATOM     18  C   UNL     1       6.989   5.098  16.218  0.00  0.00    +0.000 A 
ATOM     19  C   UNL     1       7.694   5.372  15.040  0.00  0.00    +0.000 A 
ATOM     20  C   UNL     1       7.283   4.811  13.831  0.00  0.00    +0.000 A 
ATOM     21  C   UNL     1       6.172   3.975  13.803  0.00  0.00    +0.000 A 
ATOM     22 BR   UNL     1       5.617   3.213  12.164  0.00  0.00    +0.000 Br
ATOM     23  C   UNL     1       5.462   3.696  14.974  0.00  0.00    +0.000 A 
ENDBRANCH  16  17
ENDBRANCH  14  16
ENDBRANCH   1  14
TORSDOF 3
ENDMDL
MODEL 2
REMARK VINA RESULT:      -7.1      1.094      1.146
REMARK  Name = 
REMARK  3 active torsions:
REMARK  status: ('A' for Active; 'I' for Inactive)
REMARK    1  A    between atoms: C_2  and  C_3
REMARK    2  A    between atoms: C_2  and  C_17
REMARK    3  A    between atoms: C_3  and  N_4
REMARK                            x       y       z     vdW  Elec       q    Type
REMARK                         _______ _______ _______ _____ _____    ______ ____
ROOT
ATOM      1  N   UNL     1       4.118   4.235  19.322  0.00  0.00    +0.000 N 
ATOM      2  C   UNL     1       3.772   3.173  20.151  0.00  0.00    +0.000 C 
ATOM      3  O   UNL     1       4.267   2.069  20.225  0.00  0.00    +0.000 OA
ATOM      4  C   UNL     1       2.621   3.692  21.029  0.00  0.00    +0.000 C 
ATOM      5  O   UNL     1       2.053   3.106  21.921  0.00  0.00    +0.000 OA
ATOM      6  C   UNL     1       2.380   5.062  20.587  0.00  0.00    +0.000 A 
ATOM      7  C   UNL     1       1.443   5.945  21.097  0.00  0.00    +0.000 A 
ATOM      8  C   UNL     1       1.404   7.208  20.524  0.00  0.00    +0.000 A 
ATOM      9 BR   UNL     1       0.168   8.487  21.164  0.00  0.00    +0.000 Br
ATOM     10  C   UNL     1       2.275   7.548  19.477  0.00  0.00    +0.000 A 
ATOM     11  C   UNL     1       3.216   6.624  18.979  0.00  0.00    +0.000 A 
ATOM     12 BR   UNL     1       4.306   7.235  17.557  0.00  0.00    +0.000 Br
ATOM     13  C   UNL     1       3.281   5.357  19.552  0.00  0.00    +0.000 A 
ENDROOT
BRANCH   1  14
ATOM     14  C   UNL     1       5.157   4.081  18.328  0.00  0.00    +0.000 C 
BRANCH  14  16
ATOM     15  O   UNL     1       3.442   3.470  16.732  0.00  0.00    +0.000 OA
ATOM     16  C   UNL     1       4.594   3.858  16.924  0.00  0.00    +0.000 C 
BRANCH  16  17
ATOM     17  C   UNL     1       5.483   4.125  15.746  0.00  0.00    +0.000 A 
ATOM     18  C   UNL     1       6.634   4.920  15.834  0.00  0.00    +0.000 A 
ATOM     19  C   UNL     1       7.426   5.145  14.702  0.00  0.00    +0.000 A 
ATOM     20  C   UNL     1       7.076   4.578  13.478  0.00  0.00    +0.000 A 
ATOM     21  C   UNL     1       5.936   3.786  13.387  0.00  0.00    +0.000 A 
ATOM     22 BR   UNL     1       5.463   3.016  11.727  0.00  0.00    +0.000 Br
ATOM     23  C   UNL     1       5.139   3.556  14.511  0.00  0.00    +0.000 A 
ENDBRANCH  16  17
ENDBRANCH  14  16
ENDBRANCH   1  14
TORSDOF 3
ENDMDL
MODEL 3
REMARK VINA RESULT:      -6.4      4.575      6.347
REMARK  Name = 
REMARK  3 active torsions:
REMARK  status: ('A' for Active; 'I' for Inactive)
REMARK    1  A    between atoms: C_2  and  C_3
REMARK    2  A    between atoms: C_2  and  C_17
REMARK    3  A    between atoms: C_3  and  N_4
REMARK                            x       y       z     vdW  Elec       q    Type
REMARK                         _______ _______ _______ _____ _____    ______ ____
ROOT
ATOM      1  N   UNL     1       0.167   9.657  20.162  0.00  0.00    +0.000 N 
ATOM      2  C   UNL     1       0.717   8.993  21.255  0.00  0.00    +0.000 C 
ATOM      3  O   UNL     1       1.380   7.979  21.278  0.00  0.00    +0.000 OA
ATOM      4  C   UNL     1       0.350   9.843  22.483  0.00  0.00    +0.000 C 
ATOM      5  O   UNL     1       0.670   9.653  23.632  0.00  0.00    +0.000 OA
ATOM      6  C   UNL     1      -0.437  10.959  21.965  0.00  0.00    +0.000 A 
ATOM      7  C   UNL     1      -0.980  12.002  22.696  0.00  0.00    +0.000 A 
ATOM      8  C   UNL     1      -1.683  12.961  21.982  0.00  0.00    +0.000 A 
ATOM      9 BR   UNL     1      -2.448  14.430  22.893  0.00  0.00    +0.000 Br
ATOM     10  C   UNL     1      -1.831  12.854  20.590  0.00  0.00    +0.000 A 
ATOM     11  C   UNL     1      -1.267  11.778  19.875  0.00  0.00    +0.000 A 
ATOM     12 BR   UNL     1      -1.569  11.775  18.007  0.00  0.00    +0.000 Br
ATOM     13  C   UNL     1      -0.545  10.814  20.572  0.00  0.00    +0.000 A 
ENDROOT
BRANCH   1  14
ATOM     14  C   UNL     1       0.292   9.106  18.831  0.00  0.00    +0.000 C 
BRANCH  14  16
ATOM     15  O   UNL     1       2.257  10.303  18.075  0.00  0.00    +0.000 OA
ATOM     16  C   UNL     1       1.717   9.217  18.285  0.00  0.00    +0.000 C 
BRANCH  16  17
ATOM     17  C   UNL     1       2.474   7.956  18.000  0.00  0.00    +0.000 A 
ATOM     18  C   UNL     1       3.786   7.958  17.507  0.00  0.00    +0.000 A 
ATOM     19  C   UNL     1       4.447   6.752  17.249  0.00  0.00    +0.000 A 
ATOM     20  C   UNL     1       3.804   5.537  17.482  0.00  0.00    +0.000 A 
ATOM     21  C   UNL     1       2.503   5.530  17.974  0.00  0.00    +0.000 A 
ATOM     22 BR   UNL     1       1.633   3.882  18.292  0.00  0.00    +0.000 Br
ATOM     23  C   UNL     1       1.835   6.729  18.234  0.00  0.00    +0.000 A 
ENDBRANCH  16  17
ENDBRANCH  14  16
ENDBRANCH   1  14
TORSDOF 3
ENDMDL
MODEL 4
REMARK VINA RESULT:      -6.3      5.177      7.774
REMARK  Name = 
REMARK  3 active torsions:
REMARK  status: ('A' for Active; 'I' for Inactive)
REMARK    1  A    between atoms: C_2  and  C_3
REMARK    2  A    between atoms: C_2  and  C_17
REMARK    3  A    between atoms: C_3  and  N_4
REMARK                            x       y       z     vdW  Elec       q    Type
REMARK                         _______ _______ _______ _____ _____    ______ ____
ROOT
ATOM      1  N   UNL     1       0.676  10.803  19.884  0.00  0.00    +0.000 N 
ATOM      2  C   UNL     1       1.488  11.038  18.778  0.00  0.00    +0.000 C 
ATOM      3  O   UNL     1       1.853  10.264  17.920  0.00  0.00    +0.000 OA
ATOM      4  C   UNL     1       1.819  12.540  18.821  0.00  0.00    +0.000 C 
ATOM      5  O   UNL     1       2.463  13.174  18.019  0.00  0.00    +0.000 OA
ATOM      6  C   UNL     1       1.158  13.052  20.017  0.00  0.00    +0.000 A 
ATOM      7  C   UNL     1       1.157  14.361  20.468  0.00  0.00    +0.000 A 
ATOM      8  C   UNL     1       0.444  14.617  21.630  0.00  0.00    +0.000 A 
ATOM      9 BR   UNL     1       0.372  16.377  22.315  0.00  0.00    +0.000 Br
ATOM     10  C   UNL     1      -0.227  13.583  22.303  0.00  0.00    +0.000 A 
ATOM     11  C   UNL     1      -0.204  12.260  21.818  0.00  0.00    +0.000 A 
ATOM     12 BR   UNL     1      -1.148  10.982  22.848  0.00  0.00    +0.000 Br
ATOM     13  C   UNL     1       0.492  11.986  20.644  0.00  0.00    +0.000 A 
ENDROOT
BRANCH   1  14
ATOM     14  C   UNL     1       0.202   9.468  20.174  0.00  0.00    +0.000 C 
BRANCH  14  16
ATOM     15  O   UNL     1       1.702   8.928  21.997  0.00  0.00    +0.000 OA
ATOM     16  C   UNL     1       1.252   8.620  20.894  0.00  0.00    +0.000 C 
BRANCH  16  17
ATOM     17  C   UNL     1       1.745   7.373  20.225  0.00  0.00    +0.000 A 
ATOM     18  C   UNL     1       2.410   7.390  18.991  0.00  0.00    +0.000 A 
ATOM     19  C   UNL     1       2.844   6.195  18.405  0.00  0.00    +0.000 A 
ATOM     20  C   UNL     1       2.619   4.978  19.045  0.00  0.00    +0.000 A 
ATOM     21  C   UNL     1       1.963   4.956  20.271  0.00  0.00    +0.000 A 
ATOM     22 BR   UNL     1       1.659   3.305  21.140  0.00  0.00    +0.000 Br
ATOM     23  C   UNL     1       1.525   6.144  20.864  0.00  0.00    +0.000 A 
ENDBRANCH  16  17
ENDBRANCH  14  16
ENDBRANCH   1  14
TORSDOF 3
ENDMDL
MODEL 5
REMARK VINA RESULT:      -6.3      9.881     11.658
REMARK  Name = 
REMARK  3 active torsions:
REMARK  status: ('A' for Active; 'I' for Inactive)
REMARK    1  A    between atoms: C_2  and  C_3
REMARK    2  A    between atoms: C_2  and  C_17
REMARK    3  A    between atoms: C_3  and  N_4
REMARK                            x       y       z     vdW  Elec       q    Type
REMARK                         _______ _______ _______ _____ _____    ______ ____
ROOT
ATOM      1  N   UNL     1      10.748  13.184  19.579  0.00  0.00    +0.000 N 
ATOM      2  C   UNL     1      10.621  12.007  18.847  0.00  0.00    +0.000 C 
ATOM      3  O   UNL     1      11.125  11.709  17.786  0.00  0.00    +0.000 OA
ATOM      4  C   UNL     1       9.718  11.091  19.690  0.00  0.00    +0.000 C 
ATOM      5  O   UNL     1       9.389   9.954  19.446  0.00  0.00    +0.000 OA
ATOM      6  C   UNL     1       9.369  11.870  20.875  0.00  0.00    +0.000 A 
ATOM      7  C   UNL     1       8.581  11.457  21.936  0.00  0.00    +0.000 A 
ATOM      8  C   UNL     1       8.396  12.370  22.964  0.00  0.00    +0.000 A 
ATOM      9 BR   UNL     1       7.348  11.892  24.462  0.00  0.00    +0.000 Br
ATOM     10  C   UNL     1       8.982  13.645  22.905  0.00  0.00    +0.000 A 
ATOM     11  C   UNL     1       9.777  14.035  21.809  0.00  0.00    +0.000 A 
ATOM     12 BR   UNL     1      10.482  15.790  21.877  0.00  0.00    +0.000 Br
ATOM     13  C   UNL     1       9.987  13.127  20.775  0.00  0.00    +0.000 A 
ENDROOT
BRANCH   1  14
ATOM     14  C   UNL     1      11.513  14.293  19.056  0.00  0.00    +0.000 C 
BRANCH  14  16
ATOM     15  O   UNL     1      11.248  14.931  16.735  0.00  0.00    +0.000 OA
ATOM     16  C   UNL     1      10.812  14.985  17.885  0.00  0.00    +0.000 C 
BRANCH  16  17
ATOM     17  C   UNL     1       9.553  15.750  18.156  0.00  0.00    +0.000 A 
ATOM     18  C   UNL     1       9.557  17.097  18.544  0.00  0.00    +0.000 A 
ATOM     19  C   UNL     1       8.352  17.765  18.793  0.00  0.00    +0.000 A 
ATOM     20  C   UNL     1       7.137  17.095  18.654  0.00  0.00    +0.000 A 
ATOM     21  C   UNL     1       7.129  15.760  18.265  0.00  0.00    +0.000 A 
ATOM     22 BR   UNL     1       5.481  14.853  18.075  0.00  0.00    +0.000 Br
ATOM     23  C   UNL     1       8.326  15.085  18.015  0.00  0.00    +0.000 A 
ENDBRANCH  16  17
ENDBRANCH  14  16
ENDBRANCH   1  14
TORSDOF 3
ENDMDL
MODEL 6
REMARK VINA RESULT:      -6.3      2.023      2.931
REMARK  Name = 
REMARK  3 active torsions:
REMARK  status: ('A' for Active; 'I' for Inactive)
REMARK    1  A    between atoms: C_2  and  C_3
REMARK    2  A    between atoms: C_2  and  C_17
REMARK    3  A    between atoms: C_3  and  N_4
REMARK                            x       y       z     vdW  Elec       q    Type
REMARK                         _______ _______ _______ _____ _____    ______ ____
ROOT
ATOM      1  N   UNL     1       3.578   4.410  17.596  0.00  0.00    +0.000 N 
ATOM      2  C   UNL     1       3.349   3.169  18.184  0.00  0.00    +0.000 C 
ATOM      3  O   UNL     1       3.683   2.069  17.802  0.00  0.00    +0.000 OA
ATOM      4  C   UNL     1       2.595   3.465  19.492  0.00  0.00    +0.000 C 
ATOM      5  O   UNL     1       2.241   2.673  20.333  0.00  0.00    +0.000 OA
ATOM      6  C   UNL     1       2.428   4.915  19.527  0.00  0.00    +0.000 A 
ATOM      7  C   UNL     1       1.819   5.656  20.525  0.00  0.00    +0.000 A 
ATOM      8  C   UNL     1       1.789   7.032  20.347  0.00  0.00    +0.000 A 
ATOM      9 BR   UNL     1       0.991   8.127  21.664  0.00  0.00    +0.000 Br
ATOM     10  C   UNL     1       2.348   7.619  19.201  0.00  0.00    +0.000 A 
ATOM     11  C   UNL     1       2.960   6.836  18.202  0.00  0.00    +0.000 A 
ATOM     12 BR   UNL     1       3.652   7.780  16.715  0.00  0.00    +0.000 Br
ATOM     13  C   UNL     1       3.014   5.455  18.370  0.00  0.00    +0.000 A 
ENDROOT
BRANCH   1  14
ATOM     14  C   UNL     1       4.243   4.501  16.315  0.00  0.00    +0.000 C 
BRANCH  14  16
ATOM     15  O   UNL     1       6.296   3.359  15.726  0.00  0.00    +0.000 OA
ATOM     16  C   UNL     1       5.743   4.217  16.415  0.00  0.00    +0.000 C 
BRANCH  16  17
ATOM     17  C   UNL     1       6.560   5.015  17.386  0.00  0.00    +0.000 A 
ATOM     18  C   UNL     1       7.041   4.477  18.587  0.00  0.00    +0.000 A 
ATOM     19  C   UNL     1       7.794   5.267  19.464  0.00  0.00    +0.000 A 
ATOM     20  C   UNL     1       8.071   6.597  19.147  0.00  0.00    +0.000 A 
ATOM     21  C   UNL     1       7.598   7.133  17.954  0.00  0.00    +0.000 A 
ATOM     22 BR   UNL     1       7.977   8.934  17.524  0.00  0.00    +0.000 Br
ATOM     23  C   UNL     1       6.846   6.352  17.073  0.00  0.00    +0.000 A 
ENDBRANCH  16  17
ENDBRANCH  14  16
ENDBRANCH   1  14
TORSDOF 3
ENDMDL
MODEL 7
REMARK VINA RESULT:      -6.2      5.927      8.247
REMARK  Name = 
REMARK  3 active torsions:
REMARK  status: ('A' for Active; 'I' for Inactive)
REMARK    1  A    between atoms: C_2  and  C_3
REMARK    2  A    between atoms: C_2  and  C_17
REMARK    3  A    between atoms: C_3  and  N_4
REMARK                            x       y       z     vdW  Elec       q    Type
REMARK                         _______ _______ _______ _____ _____    ______ ____
ROOT
ATOM      1  N   UNL     1       0.393  11.961  20.341  0.00  0.00    +0.000 N 
ATOM      2  C   UNL     1       0.319  13.141  19.607  0.00  0.00    +0.000 C 
ATOM      3  O   UNL     1       0.973  13.485  18.646  0.00  0.00    +0.000 OA
ATOM      4  C   UNL     1      -0.828  13.949  20.238  0.00  0.00    +0.000 C 
ATOM      5  O   UNL     1      -1.260  15.018  19.877  0.00  0.00    +0.000 OA
ATOM      6  C   UNL     1      -1.316  13.134  21.346  0.00  0.00    +0.000 A 
ATOM      7  C   UNL     1      -2.358  13.441  22.205  0.00  0.00    +0.000 A 
ATOM      8  C   UNL     1      -2.654  12.502  23.182  0.00  0.00    +0.000 A 
ATOM      9 BR   UNL     1      -4.070  12.826  24.392  0.00  0.00    +0.000 Br
ATOM     10  C   UNL     1      -1.915  11.313  23.282  0.00  0.00    +0.000 A 
ATOM     11  C   UNL     1      -0.858  11.032  22.393  0.00  0.00    +0.000 A 
ATOM     12 BR   UNL     1       0.046   9.392  22.671  0.00  0.00    +0.000 Br
ATOM     13  C   UNL     1      -0.556  11.954  21.395  0.00  0.00    +0.000 A 
ENDROOT
BRANCH   1  14
ATOM     14  C   UNL     1       1.401  10.970  20.037  0.00  0.00    +0.000 C 
BRANCH  14  16
ATOM     15  O   UNL     1      -0.150  10.048  18.422  0.00  0.00    +0.000 OA
ATOM     16  C   UNL     1       0.906   9.920  19.041  0.00  0.00    +0.000 C 
BRANCH  16  17
ATOM     17  C   UNL     1       1.742   8.696  18.817  0.00  0.00    +0.000 A 
ATOM     18  C   UNL     1       2.616   8.568  17.729  0.00  0.00    +0.000 A 
ATOM     19  C   UNL     1       3.370   7.400  17.561  0.00  0.00    +0.000 A 
ATOM     20  C   UNL     1       3.257   6.356  18.477  0.00  0.00    +0.000 A 
ATOM     21  C   UNL     1       2.394   6.480  19.560  0.00  0.00    +0.000 A 
ATOM     22 BR   UNL     1       2.244   5.064  20.803  0.00  0.00    +0.000 Br
ATOM     23  C   UNL     1       1.637   7.642  19.736  0.00  0.00    +0.000 A 
ENDBRANCH  16  17
ENDBRANCH  14  16
ENDBRANCH   1  14
TORSDOF 3
ENDMDL
MODEL 8
REMARK VINA RESULT:      -6.2      5.861      8.099
REMARK  Name = 
REMARK  3 active torsions:
REMARK  status: ('A' for Active; 'I' for Inactive)
REMARK    1  A    between atoms: C_2  and  C_3
REMARK    2  A    between atoms: C_2  and  C_17
REMARK    3  A    between atoms: C_3  and  N_4
REMARK                            x       y       z     vdW  Elec       q    Type
REMARK                         _______ _______ _______ _____ _____    ______ ____
ROOT
ATOM      1  N   UNL     1      -0.958  11.120  19.082  0.00  0.00    +0.000 N 
ATOM      2  C   UNL     1      -1.552  10.421  18.035  0.00  0.00    +0.000 C 
ATOM      3  O   UNL     1      -1.058   9.610  17.281  0.00  0.00    +0.000 OA
ATOM      4  C   UNL     1      -3.028  10.852  18.035  0.00  0.00    +0.000 C 
ATOM      5  O   UNL     1      -3.912  10.449  17.316  0.00  0.00    +0.000 OA
ATOM      6  C   UNL     1      -3.151  11.825  19.116  0.00  0.00    +0.000 A 
ATOM      7  C   UNL     1      -4.303  12.484  19.512  0.00  0.00    +0.000 A 
ATOM      8  C   UNL     1      -4.180  13.360  20.581  0.00  0.00    +0.000 A 
ATOM      9 BR   UNL     1      -5.701  14.294  21.202  0.00  0.00    +0.000 Br
ATOM     10  C   UNL     1      -2.940  13.560  21.207  0.00  0.00    +0.000 A 
ATOM     11  C   UNL     1      -1.785  12.875  20.777  0.00  0.00    +0.000 A 
ATOM     12 BR   UNL     1      -0.190  13.266  21.718  0.00  0.00    +0.000 Br
ATOM     13  C   UNL     1      -1.891  11.979  19.718  0.00  0.00    +0.000 A 
ENDROOT
BRANCH   1  14
ATOM     14  C   UNL     1       0.456  10.979  19.348  0.00  0.00    +0.000 C 
BRANCH  14  16
ATOM     15  O   UNL     1       0.408   9.624  21.354  0.00  0.00    +0.000 OA
ATOM     16  C   UNL     1       0.772   9.737  20.183  0.00  0.00    +0.000 C 
BRANCH  16  17
ATOM     17  C   UNL     1       1.550   8.625  19.547  0.00  0.00    +0.000 A 
ATOM     18  C   UNL     1       2.162   8.754  18.293  0.00  0.00    +0.000 A 
ATOM     19  C   UNL     1       2.871   7.683  17.739  0.00  0.00    +0.000 A 
ATOM     20  C   UNL     1       2.976   6.478  18.433  0.00  0.00    +0.000 A 
ATOM     21  C   UNL     1       2.373   6.347  19.679  0.00  0.00    +0.000 A 
ATOM     22 BR   UNL     1       2.518   4.714  20.620  0.00  0.00    +0.000 Br
ATOM     23  C   UNL     1       1.663   7.411  20.240  0.00  0.00    +0.000 A 
ENDBRANCH  16  17
ENDBRANCH  14  16
ENDBRANCH   1  14
TORSDOF 3
ENDMDL
MODEL 9
REMARK VINA RESULT:      -6.2      1.489      1.678
REMARK  Name = 
REMARK  3 active torsions:
REMARK  status: ('A' for Active; 'I' for Inactive)
REMARK    1  A    between atoms: C_2  and  C_3
REMARK    2  A    between atoms: C_2  and  C_17
REMARK    3  A    between atoms: C_3  and  N_4
REMARK                            x       y       z     vdW  Elec       q    Type
REMARK                         _______ _______ _______ _____ _____    ______ ____
ROOT
ATOM      1  N   UNL     1       4.535   4.801  18.734  0.00  0.00    +0.000 N 
ATOM      2  C   UNL     1       4.126   3.967  19.770  0.00  0.00    +0.000 C 
ATOM      3  O   UNL     1       4.571   2.890  20.106  0.00  0.00    +0.000 OA
ATOM      4  C   UNL     1       2.980   4.713  20.474  0.00  0.00    +0.000 C 
ATOM      5  O   UNL     1       2.369   4.365  21.456  0.00  0.00    +0.000 OA
ATOM      6  C   UNL     1       2.808   5.956  19.729  0.00  0.00    +0.000 A 
ATOM      7  C   UNL     1       1.900   6.966  19.998  0.00  0.00    +0.000 A 
ATOM      8  C   UNL     1       1.928   8.068  19.156  0.00  0.00    +0.000 A 
ATOM      9 BR   UNL     1       0.735   9.503  19.453  0.00  0.00    +0.000 Br
ATOM     10  C   UNL     1       2.834   8.130  18.085  0.00  0.00    +0.000 A 
ATOM     11  C   UNL     1       3.746   7.083  17.837  0.00  0.00    +0.000 A 
ATOM     12 BR   UNL     1       4.891   7.316  16.348  0.00  0.00    +0.000 Br
ATOM     13  C   UNL     1       3.744   5.977  18.681  0.00  0.00    +0.000 A 
ENDROOT
BRANCH   1  14
ATOM     14  C   UNL     1       5.588   4.388  17.834  0.00  0.00    +0.000 C 
BRANCH  14  16
ATOM     15  O   UNL     1       4.099   2.888  16.654  0.00  0.00    +0.000 OA
ATOM     16  C   UNL     1       5.049   3.668  16.597  0.00  0.00    +0.000 C 
BRANCH  16  17
ATOM     17  C   UNL     1       5.707   3.926  15.275  0.00  0.00    +0.000 A 
ATOM     18  C   UNL     1       6.935   4.591  15.160  0.00  0.00    +0.000 A 
ATOM     19  C   UNL     1       7.504   4.814  13.900  0.00  0.00    +0.000 A 
ATOM     20  C   UNL     1       6.851   4.374  12.749  0.00  0.00    +0.000 A 
ATOM     21  C   UNL     1       5.634   3.711  12.859  0.00  0.00    +0.000 A 
ATOM     22 BR   UNL     1       4.751   3.113  11.298  0.00  0.00    +0.000 Br
ATOM     23  C   UNL     1       5.059   3.484  14.112  0.00  0.00    +0.000 A 
ENDBRANCH  16  17
ENDBRANCH  14  16
ENDBRANCH   1  14
TORSDOF 3
ENDMDL
