MODEL 1
REMARK VINA RESULT:      -7.0      0.000      0.000
REMARK  Name = 
REMARK  7 active torsions:
REMARK  status: ('A' for Active; 'I' for Inactive)
REMARK    1  A    between atoms: C_1  and  C_2
REMARK    2  A    between atoms: C_9  and  C_11
REMARK    3  A    between atoms: C_11  and  S_12
REMARK    4  A    between atoms: S_12  and  C_13
REMARK    5  A    between atoms: N_17  and  C_18
REMARK    6  A    between atoms: C_19  and  C_20
REMARK    7  A    between atoms: C_19  and  C_21
REMARK                            x       y       z     vdW  Elec       q    Type
REMARK                         _______ _______ _______ _____ _____    ______ ____
ROOT
ATOM      1  C   UNL     1      -2.808   9.823  15.195  0.00  0.00    +0.000 C 
ATOM      2  C   UNL     1      -2.966  10.572  16.484  0.00  0.00    +0.000 A 
ATOM      3  C   UNL     1      -4.209  10.999  16.920  0.00  0.00    +0.000 A 
ATOM      4  C   UNL     1      -4.321  11.709  18.116  0.00  0.00    +0.000 A 
ATOM      5  C   UNL     1      -3.220  11.935  18.961  0.00  0.00    +0.000 A 
ATOM      6  C   UNL     1      -1.950  11.475  18.534  0.00  0.00    +0.000 A 
ATOM      7  C   UNL     1      -1.844  10.865  17.269  0.00  0.00    +0.000 A 
ATOM      8  N   UNL     1      -0.786  11.726  19.355  0.00  0.00    +0.000 N 
ATOM      9  C   UNL     1       0.396  10.943  19.314  0.00  0.00    +0.000 C 
ATOM     10  O   UNL     1       1.451  11.327  19.829  0.00  0.00    +0.000 OA
ATOM     11  C   UNL     1      -0.831  13.075  20.090  0.00  0.00    +0.000 C 
ATOM     12  C   UNL     1       0.297  13.261  21.145  0.00  0.00    +0.000 C 
ATOM     13  C   UNL     1      -0.644  14.219  19.060  0.00  0.00    +0.000 C 
ATOM     14  C   UNL     1      -2.229  13.235  20.748  0.00  0.00    +0.000 A 
ATOM     15  S   UNL     1      -2.380  14.235  22.180  0.00  0.00    +0.000 S 
ATOM     16  S   UNL     1      -4.373  14.038  22.370  0.00  0.00    +0.000 S 
ATOM     17  C   UNL     1      -4.612  12.902  21.045  0.00  0.00    +0.000 A 
ATOM     18  S   UNL     1      -6.143  12.230  20.884  0.00  0.00    +0.000 S 
ATOM     19  C   UNL     1      -3.350  12.669  20.246  0.00  0.00    +0.000 A 
ENDROOT
BRANCH   9  20
ATOM     20  C   UNL     1       0.405   9.563  18.630  0.00  0.00    +0.000 C 
BRANCH  20  21
ATOM     21  S   UNL     1       2.046   9.164  17.938  0.00  0.00    +0.000 S 
BRANCH  21  22
ATOM     22  C   UNL     1       2.419   7.680  18.754  0.00  0.00    +0.000 A 
ATOM     23  N   UNL     1       1.873   7.212  19.859  0.00  0.00    +0.000 NA
ATOM     24  N   UNL     1       2.501   6.021  20.157  0.00  0.00    +0.000 NA
ATOM     25  C   UNL     1       3.404   5.801  19.234  0.00  0.00    +0.000 A 
ATOM     26  N   UNL     1       3.375   6.812  18.319  0.00  0.00    +0.000 N 
ATOM     27  C   UNL     1       4.195   6.909  17.136  0.00  0.00    +0.000 C 
ENDBRANCH  21  22
ENDBRANCH  20  21
ENDBRANCH   9  20
TORSDOF 3
ENDMDL
MODEL 2
REMARK VINA RESULT:      -6.8      1.181      1.535
REMARK  Name = 
REMARK  7 active torsions:
REMARK  status: ('A' for Active; 'I' for Inactive)
REMARK    1  A    between atoms: C_1  and  C_2
REMARK    2  A    between atoms: C_9  and  C_11
REMARK    3  A    between atoms: C_11  and  S_12
REMARK    4  A    between atoms: S_12  and  C_13
REMARK    5  A    between atoms: N_17  and  C_18
REMARK    6  A    between atoms: C_19  and  C_20
REMARK    7  A    between atoms: C_19  and  C_21
REMARK                            x       y       z     vdW  Elec       q    Type
REMARK                         _______ _______ _______ _____ _____    ______ ____
ROOT
ATOM      1  C   UNL     1      -2.506   9.864  15.991  0.00  0.00    +0.000 C 
ATOM      2  C   UNL     1      -2.855  10.671  17.206  0.00  0.00    +0.000 A 
ATOM      3  C   UNL     1      -4.140  11.145  17.410  0.00  0.00    +0.000 A 
ATOM      4  C   UNL     1      -4.429  11.907  18.542  0.00  0.00    +0.000 A 
ATOM      5  C   UNL     1      -3.478  12.144  19.551  0.00  0.00    +0.000 A 
ATOM      6  C   UNL     1      -2.170  11.637  19.362  0.00  0.00    +0.000 A 
ATOM      7  C   UNL     1      -1.872  10.971  18.156  0.00  0.00    +0.000 A 
ATOM      8  N   UNL     1      -1.151  11.896  20.356  0.00  0.00    +0.000 N 
ATOM      9  C   UNL     1      -0.004  11.084  20.545  0.00  0.00    +0.000 C 
ATOM     10  O   UNL     1       0.962  11.465  21.214  0.00  0.00    +0.000 OA
ATOM     11  C   UNL     1      -1.279  13.275  21.021  0.00  0.00    +0.000 C 
ATOM     12  C   UNL     1      -0.337  13.480  22.243  0.00  0.00    +0.000 C 
ATOM     13  C   UNL     1      -0.887  14.370  19.994  0.00  0.00    +0.000 C 
ATOM     14  C   UNL     1      -2.762  13.496  21.428  0.00  0.00    +0.000 A 
ATOM     15  S   UNL     1      -3.119  14.559  22.775  0.00  0.00    +0.000 S 
ATOM     16  S   UNL     1      -5.120  14.417  22.635  0.00  0.00    +0.000 S 
ATOM     17  C   UNL     1      -5.169  13.231  21.333  0.00  0.00    +0.000 A 
ATOM     18  S   UNL     1      -6.671  12.589  20.942  0.00  0.00    +0.000 S 
ATOM     19  C   UNL     1      -3.799  12.935  20.767  0.00  0.00    +0.000 A 
ENDROOT
BRANCH   9  20
ATOM     20  C   UNL     1       0.078   9.676  19.925  0.00  0.00    +0.000 C 
BRANCH  20  21
ATOM     21  S   UNL     1       1.173   8.578  20.887  0.00  0.00    +0.000 S 
BRANCH  21  22
ATOM     22  C   UNL     1       2.022   7.739  19.629  0.00  0.00    +0.000 A 
ATOM     23  N   UNL     1       2.492   8.241  18.504  0.00  0.00    +0.000 NA
ATOM     24  N   UNL     1       3.060   7.204  17.795  0.00  0.00    +0.000 NA
ATOM     25  C   UNL     1       2.920   6.110  18.502  0.00  0.00    +0.000 A 
ATOM     26  N   UNL     1       2.287   6.404  19.673  0.00  0.00    +0.000 N 
ATOM     27  C   UNL     1       1.984   5.470  20.730  0.00  0.00    +0.000 C 
ENDBRANCH  21  22
ENDBRANCH  20  21
ENDBRANCH   9  20
TORSDOF 3
ENDMDL
MODEL 3
REMARK VINA RESULT:      -6.8      1.355      1.778
REMARK  Name = 
REMARK  7 active torsions:
REMARK  status: ('A' for Active; 'I' for Inactive)
REMARK    1  A    between atoms: C_1  and  C_2
REMARK    2  A    between atoms: C_9  and  C_11
REMARK    3  A    between atoms: C_11  and  S_12
REMARK    4  A    between atoms: S_12  and  C_13
REMARK    5  A    between atoms: N_17  and  C_18
REMARK    6  A    between atoms: C_19  and  C_20
REMARK    7  A    between atoms: C_19  and  C_21
REMARK                            x       y       z     vdW  Elec       q    Type
REMARK                         _______ _______ _______ _____ _____    ______ ____
ROOT
ATOM      1  C   UNL     1      -2.863  10.737  15.255  0.00  0.00    +0.000 C 
ATOM      2  C   UNL     1      -3.348  11.194  16.599  0.00  0.00    +0.000 A 
ATOM      3  C   UNL     1      -4.694  11.402  16.844  0.00  0.00    +0.000 A 
ATOM      4  C   UNL     1      -5.113  11.844  18.100  0.00  0.00    +0.000 A 
ATOM      5  C   UNL     1      -4.220  12.003  19.175  0.00  0.00    +0.000 A 
ATOM      6  C   UNL     1      -2.845  11.764  18.937  0.00  0.00    +0.000 A 
ATOM      7  C   UNL     1      -2.434  11.432  17.631  0.00  0.00    +0.000 A 
ATOM      8  N   UNL     1      -1.890  11.959  20.006  0.00  0.00    +0.000 N 
ATOM      9  C   UNL     1      -0.626  11.319  20.066  0.00  0.00    +0.000 C 
ATOM     10  O   UNL     1       0.260  11.693  20.841  0.00  0.00    +0.000 OA
ATOM     11  C   UNL     1      -2.246  13.122  20.945  0.00  0.00    +0.000 C 
ATOM     12  C   UNL     1      -1.359  13.203  22.221  0.00  0.00    +0.000 C 
ATOM     13  C   UNL     1      -2.033  14.462  20.192  0.00  0.00    +0.000 C 
ATOM     14  C   UNL     1      -3.748  13.010  21.326  0.00  0.00    +0.000 A 
ATOM     15  S   UNL     1      -4.284  13.685  22.853  0.00  0.00    +0.000 S 
ATOM     16  S   UNL     1      -6.234  13.260  22.601  0.00  0.00    +0.000 S 
ATOM     17  C   UNL     1      -6.078  12.393  21.075  0.00  0.00    +0.000 A 
ATOM     18  S   UNL     1      -7.452  11.621  20.493  0.00  0.00    +0.000 S 
ATOM     19  C   UNL     1      -4.674  12.450  20.517  0.00  0.00    +0.000 A 
ENDROOT
BRANCH   9  20
ATOM     20  C   UNL     1      -0.310  10.110  19.163  0.00  0.00    +0.000 C 
BRANCH  20  21
ATOM     21  S   UNL     1       1.416  10.147  18.568  0.00  0.00    +0.000 S 
BRANCH  21  22
ATOM     22  C   UNL     1       1.898   8.496  18.793  0.00  0.00    +0.000 A 
ATOM     23  N   UNL     1       2.339   7.656  17.878  0.00  0.00    +0.000 NA
ATOM     24  N   UNL     1       2.569   6.448  18.503  0.00  0.00    +0.000 NA
ATOM     25  C   UNL     1       2.262   6.586  19.769  0.00  0.00    +0.000 A 
ATOM     26  N   UNL     1       1.852   7.866  20.000  0.00  0.00    +0.000 N 
ATOM     27  C   UNL     1       1.466   8.414  21.278  0.00  0.00    +0.000 C 
ENDBRANCH  21  22
ENDBRANCH  20  21
ENDBRANCH   9  20
TORSDOF 3
ENDMDL
MODEL 4
REMARK VINA RESULT:      -6.7      1.628      2.159
REMARK  Name = 
REMARK  7 active torsions:
REMARK  status: ('A' for Active; 'I' for Inactive)
REMARK    1  A    between atoms: C_1  and  C_2
REMARK    2  A    between atoms: C_9  and  C_11
REMARK    3  A    between atoms: C_11  and  S_12
REMARK    4  A    between atoms: S_12  and  C_13
REMARK    5  A    between atoms: N_17  and  C_18
REMARK    6  A    between atoms: C_19  and  C_20
REMARK    7  A    between atoms: C_19  and  C_21
REMARK                            x       y       z     vdW  Elec       q    Type
REMARK                         _______ _______ _______ _____ _____    ______ ____
ROOT
ATOM      1  C   UNL     1      -3.207  10.919  16.238  0.00  0.00    +0.000 C 
ATOM      2  C   UNL     1      -3.585  11.484  17.575  0.00  0.00    +0.000 A 
ATOM      3  C   UNL     1      -4.895  11.825  17.867  0.00  0.00    +0.000 A 
ATOM      4  C   UNL     1      -5.213  12.364  19.115  0.00  0.00    +0.000 A 
ATOM      5  C   UNL     1      -4.260  12.493  20.141  0.00  0.00    +0.000 A 
ATOM      6  C   UNL     1      -2.924  12.118  19.857  0.00  0.00    +0.000 A 
ATOM      7  C   UNL     1      -2.606  11.688  18.554  0.00  0.00    +0.000 A 
ATOM      8  N   UNL     1      -1.905  12.277  20.873  0.00  0.00    +0.000 N 
ATOM      9  C   UNL     1      -0.702  11.528  20.912  0.00  0.00    +0.000 C 
ATOM     10  O   UNL     1       0.249  11.858  21.628  0.00  0.00    +0.000 OA
ATOM     11  C   UNL     1      -2.113  13.512  21.763  0.00  0.00    +0.000 C 
ATOM     12  C   UNL     1      -1.163  13.575  22.994  0.00  0.00    +0.000 C 
ATOM     13  C   UNL     1      -1.817  14.790  20.932  0.00  0.00    +0.000 C 
ATOM     14  C   UNL     1      -3.598  13.557  22.214  0.00  0.00    +0.000 A 
ATOM     15  S   UNL     1      -4.000  14.350  23.724  0.00  0.00    +0.000 S 
ATOM     16  S   UNL     1      -5.989  14.093  23.578  0.00  0.00    +0.000 S 
ATOM     17  C   UNL     1      -5.984  13.143  22.095  0.00  0.00    +0.000 A 
ATOM     18  S   UNL     1      -7.447  12.472  21.614  0.00  0.00    +0.000 S 
ATOM     19  C   UNL     1      -4.608  13.044  21.476  0.00  0.00    +0.000 A 
ENDROOT
BRANCH   9  20
ATOM     20  C   UNL     1      -0.538  10.254  20.061  0.00  0.00    +0.000 C 
BRANCH  20  21
ATOM     21  S   UNL     1       0.733   9.141  20.753  0.00  0.00    +0.000 S 
BRANCH  21  22
ATOM     22  C   UNL     1       1.632   8.710  19.335  0.00  0.00    +0.000 A 
ATOM     23  N   UNL     1       1.835   9.445  18.258  0.00  0.00    +0.000 NA
ATOM     24  N   UNL     1       2.574   8.687  17.375  0.00  0.00    +0.000 NA
ATOM     25  C   UNL     1       2.797   7.522  17.933  0.00  0.00    +0.000 A 
ATOM     26  N   UNL     1       2.236   7.500  19.176  0.00  0.00    +0.000 N 
ATOM     27  C   UNL     1       2.299   6.405  20.113  0.00  0.00    +0.000 C 
ENDBRANCH  21  22
ENDBRANCH  20  21
ENDBRANCH   9  20
TORSDOF 3
ENDMDL
MODEL 5
REMARK VINA RESULT:      -6.6      1.292      1.443
REMARK  Name = 
REMARK  7 active torsions:
REMARK  status: ('A' for Active; 'I' for Inactive)
REMARK    1  A    between atoms: C_1  and  C_2
REMARK    2  A    between atoms: C_9  and  C_11
REMARK    3  A    between atoms: C_11  and  S_12
REMARK    4  A    between atoms: S_12  and  C_13
REMARK    5  A    between atoms: N_17  and  C_18
REMARK    6  A    between atoms: C_19  and  C_20
REMARK    7  A    between atoms: C_19  and  C_21
REMARK                            x       y       z     vdW  Elec       q    Type
REMARK                         _______ _______ _______ _____ _____    ______ ____
ROOT
ATOM      1  C   UNL     1      -2.772  10.713  15.583  0.00  0.00    +0.000 C 
ATOM      2  C   UNL     1      -3.274  11.239  16.895  0.00  0.00    +0.000 A 
ATOM      3  C   UNL     1      -4.613  11.542  17.083  0.00  0.00    +0.000 A 
ATOM      4  C   UNL     1      -5.046  12.045  18.311  0.00  0.00    +0.000 A 
ATOM      5  C   UNL     1      -4.185  12.175  19.415  0.00  0.00    +0.000 A 
ATOM      6  C   UNL     1      -2.821  11.839  19.237  0.00  0.00    +0.000 A 
ATOM      7  C   UNL     1      -2.385  11.444  17.957  0.00  0.00    +0.000 A 
ATOM      8  N   UNL     1      -1.896  11.999  20.337  0.00  0.00    +0.000 N 
ATOM      9  C   UNL     1      -0.681  11.279  20.461  0.00  0.00    +0.000 C 
ATOM     10  O   UNL     1       0.199  11.615  21.261  0.00  0.00    +0.000 OA
ATOM     11  C   UNL     1      -2.208  13.209  21.231  0.00  0.00    +0.000 C 
ATOM     12  C   UNL     1      -1.365  13.267  22.539  0.00  0.00    +0.000 C 
ATOM     13  C   UNL     1      -1.877  14.511  20.454  0.00  0.00    +0.000 C 
ATOM     14  C   UNL     1      -3.727  13.208  21.557  0.00  0.00    +0.000 A 
ATOM     15  S   UNL     1      -4.273  13.958  23.044  0.00  0.00    +0.000 S 
ATOM     16  S   UNL     1      -6.236  13.657  22.727  0.00  0.00    +0.000 S 
ATOM     17  C   UNL     1      -6.082  12.740  21.231  0.00  0.00    +0.000 A 
ATOM     18  S   UNL     1      -7.482  12.045  20.616  0.00  0.00    +0.000 S 
ATOM     19  C   UNL     1      -4.658  12.688  20.727  0.00  0.00    +0.000 A 
ENDROOT
BRANCH   9  20
ATOM     20  C   UNL     1      -0.414  10.027  19.602  0.00  0.00    +0.000 C 
BRANCH  20  21
ATOM     21  S   UNL     1       1.350   9.883  19.153  0.00  0.00    +0.000 S 
BRANCH  21  22
ATOM     22  C   UNL     1       1.703   8.257  19.640  0.00  0.00    +0.000 A 
ATOM     23  N   UNL     1       1.286   7.635  20.725  0.00  0.00    +0.000 NA
ATOM     24  N   UNL     1       1.841   6.372  20.717  0.00  0.00    +0.000 NA
ATOM     25  C   UNL     1       2.576   6.264  19.638  0.00  0.00    +0.000 A 
ATOM     26  N   UNL     1       2.504   7.422  18.920  0.00  0.00    +0.000 N 
ATOM     27  C   UNL     1       3.147   7.675  17.654  0.00  0.00    +0.000 C 
ENDBRANCH  21  22
ENDBRANCH  20  21
ENDBRANCH   9  20
TORSDOF 3
ENDMDL
MODEL 6
REMARK VINA RESULT:      -6.2      1.385      1.684
REMARK  Name = 
REMARK  7 active torsions:
REMARK  status: ('A' for Active; 'I' for Inactive)
REMARK    1  A    between atoms: C_1  and  C_2
REMARK    2  A    between atoms: C_9  and  C_11
REMARK    3  A    between atoms: C_11  and  S_12
REMARK    4  A    between atoms: S_12  and  C_13
REMARK    5  A    between atoms: N_17  and  C_18
REMARK    6  A    between atoms: C_19  and  C_20
REMARK    7  A    between atoms: C_19  and  C_21
REMARK                            x       y       z     vdW  Elec       q    Type
REMARK                         _______ _______ _______ _____ _____    ______ ____
ROOT
ATOM      1  C   UNL     1      -2.466   9.952  16.169  0.00  0.00    +0.000 C 
ATOM      2  C   UNL     1      -2.910  10.751  17.359  0.00  0.00    +0.000 A 
ATOM      3  C   UNL     1      -4.210  11.216  17.467  0.00  0.00    +0.000 A 
ATOM      4  C   UNL     1      -4.588  11.971  18.578  0.00  0.00    +0.000 A 
ATOM      5  C   UNL     1      -3.717  12.208  19.657  0.00  0.00    +0.000 A 
ATOM      6  C   UNL     1      -2.395  11.710  19.564  0.00  0.00    +0.000 A 
ATOM      7  C   UNL     1      -2.003  11.052  18.381  0.00  0.00    +0.000 A 
ATOM      8  N   UNL     1      -1.456  11.970  20.633  0.00  0.00    +0.000 N 
ATOM      9  C   UNL     1      -0.321  11.165  20.904  0.00  0.00    +0.000 C 
ATOM     10  O   UNL     1       0.590  11.549  21.646  0.00  0.00    +0.000 OA
ATOM     11  C   UNL     1      -1.642  13.346  21.293  0.00  0.00    +0.000 C 
ATOM     12  C   UNL     1      -0.796  13.551  22.583  0.00  0.00    +0.000 C 
ATOM     13  C   UNL     1      -1.181  14.448  20.302  0.00  0.00    +0.000 C 
ATOM     14  C   UNL     1      -3.152  13.555  21.588  0.00  0.00    +0.000 A 
ATOM     15  S   UNL     1      -3.617  14.610  22.909  0.00  0.00    +0.000 S 
ATOM     16  S   UNL     1      -5.601  14.456  22.618  0.00  0.00    +0.000 S 
ATOM     17  C   UNL     1      -5.544  13.277  21.311  0.00  0.00    +0.000 A 
ATOM     18  S   UNL     1      -7.009  12.627  20.805  0.00  0.00    +0.000 S 
ATOM     19  C   UNL     1      -4.133  12.992  20.848  0.00  0.00    +0.000 A 
ENDROOT
BRANCH   9  20
ATOM     20  C   UNL     1      -0.184   9.760  20.285  0.00  0.00    +0.000 C 
BRANCH  20  21
ATOM     21  S   UNL     1       1.110   8.779  21.121  0.00  0.00    +0.000 S 
BRANCH  21  22
ATOM     22  C   UNL     1       1.833   7.945  19.784  0.00  0.00    +0.000 A 
ATOM     23  N   UNL     1       2.208   6.681  19.734  0.00  0.00    +0.000 NA
ATOM     24  N   UNL     1       2.762   6.464  18.490  0.00  0.00    +0.000 NA
ATOM     25  C   UNL     1       2.711   7.592  17.825  0.00  0.00    +0.000 A 
ATOM     26  N   UNL     1       2.116   8.547  18.596  0.00  0.00    +0.000 N 
ATOM     27  C   UNL     1       1.846   9.908  18.200  0.00  0.00    +0.000 C 
ENDBRANCH  21  22
ENDBRANCH  20  21
ENDBRANCH   9  20
TORSDOF 3
ENDMDL
MODEL 7
REMARK VINA RESULT:      -6.1      8.142     11.815
REMARK  Name = 
REMARK  7 active torsions:
REMARK  status: ('A' for Active; 'I' for Inactive)
REMARK    1  A    between atoms: C_1  and  C_2
REMARK    2  A    between atoms: C_9  and  C_11
REMARK    3  A    between atoms: C_11  and  S_12
REMARK    4  A    between atoms: S_12  and  C_13
REMARK    5  A    between atoms: N_17  and  C_18
REMARK    6  A    between atoms: C_19  and  C_20
REMARK    7  A    between atoms: C_19  and  C_21
REMARK                            x       y       z     vdW  Elec       q    Type
REMARK                         _______ _______ _______ _____ _____    ______ ____
ROOT
ATOM      1  C   UNL     1       6.488  13.032  23.560  0.00  0.00    +0.000 C 
ATOM      2  C   UNL     1       7.386  13.312  22.391  0.00  0.00    +0.000 A 
ATOM      3  C   UNL     1       8.370  12.415  22.010  0.00  0.00    +0.000 A 
ATOM      4  C   UNL     1       9.201  12.712  20.928  0.00  0.00    +0.000 A 
ATOM      5  C   UNL     1       9.019  13.860  20.135  0.00  0.00    +0.000 A 
ATOM      6  C   UNL     1       7.994  14.765  20.503  0.00  0.00    +0.000 A 
ATOM      7  C   UNL     1       7.247  14.502  21.667  0.00  0.00    +0.000 A 
ATOM      8  N   UNL     1       7.804  15.978  19.738  0.00  0.00    +0.000 N 
ATOM      9  C   UNL     1       6.580  16.692  19.676  0.00  0.00    +0.000 C 
ATOM     10  O   UNL     1       6.517  17.843  19.232  0.00  0.00    +0.000 OA
ATOM     11  C   UNL     1       9.113  16.581  19.206  0.00  0.00    +0.000 C 
ATOM     12  C   UNL     1       8.911  17.751  18.199  0.00  0.00    +0.000 C 
ATOM     13  C   UNL     1       9.916  17.175  20.393  0.00  0.00    +0.000 C 
ATOM     14  C   UNL     1       9.958  15.446  18.565  0.00  0.00    +0.000 A 
ATOM     15  S   UNL     1      11.093  15.853  17.292  0.00  0.00    +0.000 S 
ATOM     16  S   UNL     1      11.825  13.994  17.057  0.00  0.00    +0.000 S 
ATOM     17  C   UNL     1      10.757  13.187  18.201  0.00  0.00    +0.000 A 
ATOM     18  S   UNL     1      10.819  11.508  18.249  0.00  0.00    +0.000 S 
ATOM     19  C   UNL     1       9.890  14.158  18.970  0.00  0.00    +0.000 A 
ENDROOT
BRANCH   9  20
ATOM     20  C   UNL     1       5.265  16.046  20.153  0.00  0.00    +0.000 C 
BRANCH  20  21
ATOM     21  S   UNL     1       4.457  15.098  18.818  0.00  0.00    +0.000 S 
BRANCH  21  22
ATOM     22  C   UNL     1       3.218  16.199  18.308  0.00  0.00    +0.000 A 
ATOM     23  N   UNL     1       3.325  17.180  17.433  0.00  0.00    +0.000 NA
ATOM     24  N   UNL     1       2.100  17.810  17.367  0.00  0.00    +0.000 NA
ATOM     25  C   UNL     1       1.290  17.202  18.199  0.00  0.00    +0.000 A 
ATOM     26  N   UNL     1       1.947  16.169  18.800  0.00  0.00    +0.000 N 
ATOM     27  C   UNL     1       1.381  15.243  19.750  0.00  0.00    +0.000 C 
ENDBRANCH  21  22
ENDBRANCH  20  21
ENDBRANCH   9  20
TORSDOF 3
ENDMDL
MODEL 8
REMARK VINA RESULT:      -6.1      4.779      6.958
REMARK  Name = 
REMARK  7 active torsions:
REMARK  status: ('A' for Active; 'I' for Inactive)
REMARK    1  A    between atoms: C_1  and  C_2
REMARK    2  A    between atoms: C_9  and  C_11
REMARK    3  A    between atoms: C_11  and  S_12
REMARK    4  A    between atoms: S_12  and  C_13
REMARK    5  A    between atoms: N_17  and  C_18
REMARK    6  A    between atoms: C_19  and  C_20
REMARK    7  A    between atoms: C_19  and  C_21
REMARK                            x       y       z     vdW  Elec       q    Type
REMARK                         _______ _______ _______ _____ _____    ______ ____
ROOT
ATOM      1  C   UNL     1      -3.856  10.581  17.664  0.00  0.00    +0.000 C 
ATOM      2  C   UNL     1      -3.028  11.531  18.477  0.00  0.00    +0.000 A 
ATOM      3  C   UNL     1      -1.689  11.743  18.192  0.00  0.00    +0.000 A 
ATOM      4  C   UNL     1      -0.941  12.620  18.977  0.00  0.00    +0.000 A 
ATOM      5  C   UNL     1      -1.518  13.384  20.008  0.00  0.00    +0.000 A 
ATOM      6  C   UNL     1      -2.894  13.192  20.285  0.00  0.00    +0.000 A 
ATOM      7  C   UNL     1      -3.600  12.215  19.555  0.00  0.00    +0.000 A 
ATOM      8  N   UNL     1      -3.514  13.926  21.366  0.00  0.00    +0.000 N 
ATOM      9  C   UNL     1      -4.903  14.204  21.441  0.00  0.00    +0.000 C 
ATOM     10  O   UNL     1      -5.434  14.601  22.483  0.00  0.00    +0.000 OA
ATOM     11  C   UNL     1      -2.583  14.156  22.567  0.00  0.00    +0.000 C 
ATOM     12  C   UNL     1      -3.155  15.131  23.636  0.00  0.00    +0.000 C 
ATOM     13  C   UNL     1      -2.358  12.807  23.298  0.00  0.00    +0.000 C 
ATOM     14  C   UNL     1      -1.211  14.661  22.042  0.00  0.00    +0.000 A 
ATOM     15  S   UNL     1      -0.221  15.660  23.089  0.00  0.00    +0.000 S 
ATOM     16  S   UNL     1       1.333  15.822  21.823  0.00  0.00    +0.000 S 
ATOM     17  C   UNL     1       0.611  14.954  20.471  0.00  0.00    +0.000 A 
ATOM     18  S   UNL     1       1.455  14.966  19.019  0.00  0.00    +0.000 S 
ATOM     19  C   UNL     1      -0.722  14.335  20.825  0.00  0.00    +0.000 A 
ENDROOT
BRANCH   9  20
ATOM     20  C   UNL     1      -5.809  14.031  20.206  0.00  0.00    +0.000 C 
BRANCH  20  21
ATOM     21  S   UNL     1      -7.480  13.462  20.673  0.00  0.00    +0.000 S 
BRANCH  21  22
ATOM     22  C   UNL     1      -7.355  11.753  20.408  0.00  0.00    +0.000 A 
ATOM     23  N   UNL     1      -7.402  10.794  21.312  0.00  0.00    +0.000 NA
ATOM     24  N   UNL     1      -7.227   9.596  20.653  0.00  0.00    +0.000 NA
ATOM     25  C   UNL     1      -7.077   9.857  19.377  0.00  0.00    +0.000 A 
ATOM     26  N   UNL     1      -7.169  11.203  19.176  0.00  0.00    +0.000 N 
ATOM     27  C   UNL     1      -7.093  11.875  17.902  0.00  0.00    +0.000 C 
ENDBRANCH  21  22
ENDBRANCH  20  21
ENDBRANCH   9  20
TORSDOF 3
ENDMDL
MODEL 9
REMARK VINA RESULT:      -6.0      1.343      1.985
REMARK  Name = 
REMARK  7 active torsions:
REMARK  status: ('A' for Active; 'I' for Inactive)
REMARK    1  A    between atoms: C_1  and  C_2
REMARK    2  A    between atoms: C_9  and  C_11
REMARK    3  A    between atoms: C_11  and  S_12
REMARK    4  A    between atoms: S_12  and  C_13
REMARK    5  A    between atoms: N_17  and  C_18
REMARK    6  A    between atoms: C_19  and  C_20
REMARK    7  A    between atoms: C_19  and  C_21
REMARK                            x       y       z     vdW  Elec       q    Type
REMARK                         _______ _______ _______ _____ _____    ______ ____
ROOT
ATOM      1  C   UNL     1      -3.685  10.683  16.742  0.00  0.00    +0.000 C 
ATOM      2  C   UNL     1      -3.373  11.454  17.991  0.00  0.00    +0.000 A 
ATOM      3  C   UNL     1      -4.377  11.871  18.848  0.00  0.00    +0.000 A 
ATOM      4  C   UNL     1      -4.055  12.601  19.993  0.00  0.00    +0.000 A 
ATOM      5  C   UNL     1      -2.725  12.858  20.370  0.00  0.00    +0.000 A 
ATOM      6  C   UNL     1      -1.692  12.408  19.512  0.00  0.00    +0.000 A 
ATOM      7  C   UNL     1      -2.047  11.776  18.303  0.00  0.00    +0.000 A 
ATOM      8  N   UNL     1      -0.313  12.690  19.843  0.00  0.00    +0.000 N 
ATOM      9  C   UNL     1       0.786  11.923  19.380  0.00  0.00    +0.000 C 
ATOM     10  O   UNL     1       1.949  12.330  19.465  0.00  0.00    +0.000 OA
ATOM     11  C   UNL     1      -0.111  14.051  20.527  0.00  0.00    +0.000 C 
ATOM     12  C   UNL     1       1.323  14.273  21.090  0.00  0.00    +0.000 C 
ATOM     13  C   UNL     1      -0.338  15.179  19.486  0.00  0.00    +0.000 C 
ATOM     14  C   UNL     1      -1.172  14.204  21.651  0.00  0.00    +0.000 A 
ATOM     15  S   UNL     1      -0.805  15.229  23.026  0.00  0.00    +0.000 S 
ATOM     16  S   UNL     1      -2.584  15.007  23.938  0.00  0.00    +0.000 S 
ATOM     17  C   UNL     1      -3.271  13.844  22.808  0.00  0.00    +0.000 A 
ATOM     18  S   UNL     1      -4.741  13.148  23.230  0.00  0.00    +0.000 S 
ATOM     19  C   UNL     1      -2.387  13.614  21.603  0.00  0.00    +0.000 A 
ENDROOT
BRANCH   9  20
ATOM     20  C   UNL     1       0.569  10.530  18.757  0.00  0.00    +0.000 C 
BRANCH  20  21
ATOM     21  S   UNL     1       0.939   9.195  19.946  0.00  0.00    +0.000 S 
BRANCH  21  22
ATOM     22  C   UNL     1       2.041   8.212  19.038  0.00  0.00    +0.000 A 
ATOM     23  N   UNL     1       2.693   8.541  17.940  0.00  0.00    +0.000 NA
ATOM     24  N   UNL     1       3.426   7.440  17.550  0.00  0.00    +0.000 NA
ATOM     25  C   UNL     1       3.200   6.480  18.412  0.00  0.00    +0.000 A 
ATOM     26  N   UNL     1       2.347   6.929  19.377  0.00  0.00    +0.000 N 
ATOM     27  C   UNL     1       1.889   6.176  20.520  0.00  0.00    +0.000 C 
ENDBRANCH  21  22
ENDBRANCH  20  21
ENDBRANCH   9  20
TORSDOF 3
ENDMDL
