MODEL 1
REMARK VINA RESULT:      -9.9      0.000      0.000
REMARK  Name = 
REMARK  6 active torsions:
REMARK  status: ('A' for Active; 'I' for Inactive)
REMARK    1  A    between atoms: C_2  and  C_20
REMARK    2  A    between atoms: N_3  and  C_4
REMARK    3  A    between atoms: C_8  and  C_9
REMARK    4  A    between atoms: C_14  and  C_15
REMARK    5  A    between atoms: C_25  and  N_26
REMARK    6  A    between atoms: C_27  and  C_29
REMARK                            x       y       z     vdW  Elec       q    Type
REMARK                         _______ _______ _______ _____ _____    ______ ____
ROOT
ATOM      1  O   UNL     1       4.522   5.841  19.308  0.00  0.00    +0.000 OA
ATOM      2  C   UNL     1       4.022   6.138  18.227  0.00  0.00    +0.000 C 
ATOM      3  N   UNL     1       2.935   6.972  18.023  0.00  0.00    +0.000 N 
ATOM      4  H   UNL     1       2.608   7.107  17.077  0.00  0.00    +0.000 HD
ENDROOT
BRANCH   3   5
ATOM      5  C   UNL     1       2.214   7.681  19.002  0.00  0.00    +0.000 A 
ATOM      6  C   UNL     1       1.788   7.115  20.198  0.00  0.00    +0.000 A 
ATOM      7  C   UNL     1       1.142   7.907  21.143  0.00  0.00    +0.000 A 
ATOM      8  C   UNL     1       0.869   9.250  20.877  0.00  0.00    +0.000 A 
ATOM      9  C   UNL     1       1.169   9.817  19.629  0.00  0.00    +0.000 A 
ATOM     10  C   UNL     1       1.922   9.028  18.735  0.00  0.00    +0.000 A 
BRANCH   9  11
ATOM     11  C   UNL     1       0.671  11.156  19.222  0.00  0.00    +0.000 A 
ATOM     12  C   UNL     1       1.464  12.294  19.513  0.00  0.00    +0.000 A 
ATOM     13  C   UNL     1       1.104  13.583  19.106  0.00  0.00    +0.000 A 
ATOM     14  C   UNL     1      -0.079  13.784  18.415  0.00  0.00    +0.000 A 
ATOM     15  C   UNL     1      -0.887  12.693  18.121  0.00  0.00    +0.000 A 
ATOM     16  C   UNL     1      -0.526  11.372  18.488  0.00  0.00    +0.000 A 
BRANCH  16  17
ATOM     17  C   UNL     1      -1.502  10.303  18.032  0.00  0.00    +0.000 C 
ATOM     18  F   UNL     1      -2.651  10.723  17.444  0.00  0.00    +0.000 F 
ATOM     19  F   UNL     1      -0.921   9.441  17.147  0.00  0.00    +0.000 F 
ATOM     20  F   UNL     1      -1.920   9.521  19.073  0.00  0.00    +0.000 F 
ENDBRANCH  16  17
ENDBRANCH   9  11
ENDBRANCH   3   5
BRANCH   2  21
ATOM     21  C   UNL     1       4.638   5.590  16.978  0.00  0.00    +0.000 A 
ATOM     22  C   UNL     1       5.277   6.468  16.076  0.00  0.00    +0.000 A 
ATOM     23  C   UNL     1       5.990   5.969  14.990  0.00  0.00    +0.000 A 
ATOM     24  C   UNL     1       6.031   4.602  14.770  0.00  0.00    +0.000 A 
ATOM     25  C   UNL     1       5.341   3.730  15.619  0.00  0.00    +0.000 A 
ATOM     26  C   UNL     1       4.635   4.198  16.737  0.00  0.00    +0.000 A 
BRANCH  26  27
ATOM     27  N   UNL     1       3.935   3.312  17.602  0.00  0.00    +0.000 N 
ATOM     28  C   UNL     1       2.561   3.112  17.638  0.00  0.00    +0.000 C 
ATOM     29  O   UNL     1       1.755   3.659  16.890  0.00  0.00    +0.000 OA
ATOM     30  H   UNL     1       4.522   2.701  18.163  0.00  0.00    +0.000 HD
BRANCH  28  31
ATOM     31  C   UNL     1       2.097   2.072  18.671  0.00  0.00    +0.000 C 
ATOM     32  C   UNL     1       3.096   1.871  19.818  0.00  0.00    +0.000 C 
ATOM     33  C   UNL     1       3.063   2.987  20.865  0.00  0.00    +0.000 C 
ATOM     34  C   UNL     1       1.653   3.251  21.383  0.00  0.00    +0.000 C 
ATOM     35  C   UNL     1       0.687   3.536  20.244  0.00  0.00    +0.000 C 
ATOM     36  C   UNL     1       0.692   2.409  19.210  0.00  0.00    +0.000 C 
ENDBRANCH  28  31
ENDBRANCH  26  27
ENDBRANCH   2  21
TORSDOF 6
ENDMDL
MODEL 2
REMARK VINA RESULT:      -9.7      1.551      2.062
REMARK  Name = 
REMARK  6 active torsions:
REMARK  status: ('A' for Active; 'I' for Inactive)
REMARK    1  A    between atoms: C_2  and  C_20
REMARK    2  A    between atoms: N_3  and  C_4
REMARK    3  A    between atoms: C_8  and  C_9
REMARK    4  A    between atoms: C_14  and  C_15
REMARK    5  A    between atoms: C_25  and  N_26
REMARK    6  A    between atoms: C_27  and  C_29
REMARK                            x       y       z     vdW  Elec       q    Type
REMARK                         _______ _______ _______ _____ _____    ______ ____
ROOT
ATOM      1  O   UNL     1       4.867   5.771  19.211  0.00  0.00    +0.000 OA
ATOM      2  C   UNL     1       4.318   5.934  18.125  0.00  0.00    +0.000 C 
ATOM      3  N   UNL     1       3.151   6.641  17.890  0.00  0.00    +0.000 N 
ATOM      4  H   UNL     1       2.793   6.671  16.946  0.00  0.00    +0.000 HD
ENDROOT
BRANCH   3   5
ATOM      5  C   UNL     1       2.385   7.352  18.833  0.00  0.00    +0.000 A 
ATOM      6  C   UNL     1       2.280   6.982  20.168  0.00  0.00    +0.000 A 
ATOM      7  C   UNL     1       1.558   7.783  21.050  0.00  0.00    +0.000 A 
ATOM      8  C   UNL     1       0.893   8.922  20.593  0.00  0.00    +0.000 A 
ATOM      9  C   UNL     1       0.871   9.250  19.228  0.00  0.00    +0.000 A 
ATOM     10  C   UNL     1       1.700   8.490  18.377  0.00  0.00    +0.000 A 
BRANCH   9  11
ATOM     11  C   UNL     1      -0.024  10.298  18.676  0.00  0.00    +0.000 A 
ATOM     12  C   UNL     1      -1.277   9.909  18.139  0.00  0.00    +0.000 A 
ATOM     13  C   UNL     1      -2.210  10.837  17.662  0.00  0.00    +0.000 A 
ATOM     14  C   UNL     1      -1.909  12.188  17.679  0.00  0.00    +0.000 A 
ATOM     15  C   UNL     1      -0.686  12.605  18.188  0.00  0.00    +0.000 A 
ATOM     16  C   UNL     1       0.259  11.689  18.713  0.00  0.00    +0.000 A 
BRANCH  16  17
ATOM     17  C   UNL     1       1.513  12.333  19.278  0.00  0.00    +0.000 C 
ATOM     18  F   UNL     1       1.800  12.092  20.582  0.00  0.00    +0.000 F 
ATOM     19  F   UNL     1       2.623  11.964  18.575  0.00  0.00    +0.000 F 
ATOM     20  F   UNL     1       1.467  13.697  19.186  0.00  0.00    +0.000 F 
ENDBRANCH  16  17
ENDBRANCH   9  11
ENDBRANCH   3   5
BRANCH   2  21
ATOM     21  C   UNL     1       4.959   5.351  16.905  0.00  0.00    +0.000 A 
ATOM     22  C   UNL     1       5.660   6.197  16.018  0.00  0.00    +0.000 A 
ATOM     23  C   UNL     1       6.392   5.663  14.963  0.00  0.00    +0.000 A 
ATOM     24  C   UNL     1       6.393   4.292  14.757  0.00  0.00    +0.000 A 
ATOM     25  C   UNL     1       5.644   3.454  15.589  0.00  0.00    +0.000 A 
ATOM     26  C   UNL     1       4.916   3.957  16.676  0.00  0.00    +0.000 A 
BRANCH  26  27
ATOM     27  N   UNL     1       4.155   3.106  17.524  0.00  0.00    +0.000 N 
ATOM     28  C   UNL     1       2.769   3.017  17.572  0.00  0.00    +0.000 C 
ATOM     29  O   UNL     1       2.003   3.652  16.852  0.00  0.00    +0.000 OA
ATOM     30  H   UNL     1       4.696   2.432  18.059  0.00  0.00    +0.000 HD
BRANCH  28  31
ATOM     31  C   UNL     1       2.233   1.987  18.581  0.00  0.00    +0.000 C 
ATOM     32  C   UNL     1       3.147   1.801  19.799  0.00  0.00    +0.000 C 
ATOM     33  C   UNL     1       3.037   2.928  20.828  0.00  0.00    +0.000 C 
ATOM     34  C   UNL     1       1.593   3.194  21.241  0.00  0.00    +0.000 C 
ATOM     35  C   UNL     1       0.712   3.465  20.032  0.00  0.00    +0.000 C 
ATOM     36  C   UNL     1       0.793   2.328  19.013  0.00  0.00    +0.000 C 
ENDBRANCH  28  31
ENDBRANCH  26  27
ENDBRANCH   2  21
TORSDOF 6
ENDMDL
MODEL 3
REMARK VINA RESULT:      -9.6      0.888      1.217
REMARK  Name = 
REMARK  6 active torsions:
REMARK  status: ('A' for Active; 'I' for Inactive)
REMARK    1  A    between atoms: C_2  and  C_20
REMARK    2  A    between atoms: N_3  and  C_4
REMARK    3  A    between atoms: C_8  and  C_9
REMARK    4  A    between atoms: C_14  and  C_15
REMARK    5  A    between atoms: C_25  and  N_26
REMARK    6  A    between atoms: C_27  and  C_29
REMARK                            x       y       z     vdW  Elec       q    Type
REMARK                         _______ _______ _______ _____ _____    ______ ____
ROOT
ATOM      1  O   UNL     1       4.479   6.115  19.428  0.00  0.00    +0.000 OA
ATOM      2  C   UNL     1       3.903   6.306  18.362  0.00  0.00    +0.000 C 
ATOM      3  N   UNL     1       2.765   7.070  18.166  0.00  0.00    +0.000 N 
ATOM      4  H   UNL     1       2.377   7.118  17.235  0.00  0.00    +0.000 HD
ENDROOT
BRANCH   3   5
ATOM      5  C   UNL     1       2.066   7.816  19.134  0.00  0.00    +0.000 A 
ATOM      6  C   UNL     1       1.643   7.288  20.348  0.00  0.00    +0.000 A 
ATOM      7  C   UNL     1       1.021   8.114  21.279  0.00  0.00    +0.000 A 
ATOM      8  C   UNL     1       0.767   9.454  20.982  0.00  0.00    +0.000 A 
ATOM      9  C   UNL     1       1.063   9.985  19.716  0.00  0.00    +0.000 A 
ATOM     10  C   UNL     1       1.794   9.160  18.835  0.00  0.00    +0.000 A 
BRANCH   9  11
ATOM     11  C   UNL     1       0.584  11.321  19.281  0.00  0.00    +0.000 A 
ATOM     12  C   UNL     1       1.371  12.460  19.587  0.00  0.00    +0.000 A 
ATOM     13  C   UNL     1       1.029  13.746  19.156  0.00  0.00    +0.000 A 
ATOM     14  C   UNL     1      -0.130  13.944  18.425  0.00  0.00    +0.000 A 
ATOM     15  C   UNL     1      -0.931  12.853  18.115  0.00  0.00    +0.000 A 
ATOM     16  C   UNL     1      -0.587  11.534  18.506  0.00  0.00    +0.000 A 
BRANCH  16  17
ATOM     17  C   UNL     1      -1.552  10.464  18.028  0.00  0.00    +0.000 C 
ATOM     18  F   UNL     1      -2.064   9.628  18.965  0.00  0.00    +0.000 F 
ATOM     19  F   UNL     1      -2.625  11.010  17.385  0.00  0.00    +0.000 F 
ATOM     20  F   UNL     1      -0.971   9.632  17.111  0.00  0.00    +0.000 F 
ENDBRANCH  16  17
ENDBRANCH   9  11
ENDBRANCH   3   5
BRANCH   2  21
ATOM     21  C   UNL     1       4.473   5.695  17.120  0.00  0.00    +0.000 A 
ATOM     22  C   UNL     1       5.131   6.518  16.181  0.00  0.00    +0.000 A 
ATOM     23  C   UNL     1       5.803   5.958  15.099  0.00  0.00    +0.000 A 
ATOM     24  C   UNL     1       5.783   4.584  14.920  0.00  0.00    +0.000 A 
ATOM     25  C   UNL     1       5.074   3.767  15.807  0.00  0.00    +0.000 A 
ATOM     26  C   UNL     1       4.408   4.298  16.922  0.00  0.00    +0.000 A 
BRANCH  26  27
ATOM     27  N   UNL     1       3.688   3.468  17.826  0.00  0.00    +0.000 N 
ATOM     28  C   UNL     1       4.183   2.898  18.992  0.00  0.00    +0.000 C 
ATOM     29  O   UNL     1       5.321   3.066  19.424  0.00  0.00    +0.000 OA
ATOM     30  H   UNL     1       2.693   3.385  17.638  0.00  0.00    +0.000 HD
BRANCH  28  31
ATOM     31  C   UNL     1       3.158   2.062  19.776  0.00  0.00    +0.000 C 
ATOM     32  C   UNL     1       2.961   2.543  21.219  0.00  0.00    +0.000 C 
ATOM     33  C   UNL     1       2.090   3.796  21.336  0.00  0.00    +0.000 C 
ATOM     34  C   UNL     1       0.760   3.645  20.604  0.00  0.00    +0.000 C 
ATOM     35  C   UNL     1       0.969   3.253  19.150  0.00  0.00    +0.000 C 
ATOM     36  C   UNL     1       1.813   1.984  19.027  0.00  0.00    +0.000 C 
ENDBRANCH  28  31
ENDBRANCH  26  27
ENDBRANCH   2  21
TORSDOF 6
ENDMDL
MODEL 4
REMARK VINA RESULT:      -9.2      1.827      4.364
REMARK  Name = 
REMARK  6 active torsions:
REMARK  status: ('A' for Active; 'I' for Inactive)
REMARK    1  A    between atoms: C_2  and  C_20
REMARK    2  A    between atoms: N_3  and  C_4
REMARK    3  A    between atoms: C_8  and  C_9
REMARK    4  A    between atoms: C_14  and  C_15
REMARK    5  A    between atoms: C_25  and  N_26
REMARK    6  A    between atoms: C_27  and  C_29
REMARK                            x       y       z     vdW  Elec       q    Type
REMARK                         _______ _______ _______ _____ _____    ______ ____
ROOT
ATOM      1  O   UNL     1       2.375   5.611  17.905  0.00  0.00    +0.000 OA
ATOM      2  C   UNL     1       2.450   5.744  19.123  0.00  0.00    +0.000 C 
ATOM      3  N   UNL     1       2.286   6.921  19.833  0.00  0.00    +0.000 N 
ATOM      4  H   UNL     1       2.405   6.893  20.836  0.00  0.00    +0.000 HD
ENDROOT
BRANCH   3   5
ATOM      5  C   UNL     1       1.959   8.188  19.315  0.00  0.00    +0.000 A 
ATOM      6  C   UNL     1       2.606   8.759  18.225  0.00  0.00    +0.000 A 
ATOM      7  C   UNL     1       2.171   9.986  17.731  0.00  0.00    +0.000 A 
ATOM      8  C   UNL     1       1.129  10.673  18.356  0.00  0.00    +0.000 A 
ATOM      9  C   UNL     1       0.543  10.187  19.535  0.00  0.00    +0.000 A 
ATOM     10  C   UNL     1       0.922   8.893  19.947  0.00  0.00    +0.000 A 
BRANCH   9  11
ATOM     11  C   UNL     1      -0.383  11.004  20.360  0.00  0.00    +0.000 A 
ATOM     12  C   UNL     1       0.017  11.372  21.669  0.00  0.00    +0.000 A 
ATOM     13  C   UNL     1      -0.763  12.197  22.487  0.00  0.00    +0.000 A 
ATOM     14  C   UNL     1      -1.986  12.661  22.034  0.00  0.00    +0.000 A 
ATOM     15  C   UNL     1      -2.415  12.312  20.760  0.00  0.00    +0.000 A 
ATOM     16  C   UNL     1      -1.627  11.510  19.897  0.00  0.00    +0.000 A 
BRANCH  16  17
ATOM     17  C   UNL     1      -2.232  11.282  18.523  0.00  0.00    +0.000 C 
ATOM     18  F   UNL     1      -3.549  11.567  18.371  0.00  0.00    +0.000 F 
ATOM     19  F   UNL     1      -1.578  12.000  17.564  0.00  0.00    +0.000 F 
ATOM     20  F   UNL     1      -2.119   9.976  18.132  0.00  0.00    +0.000 F 
ENDBRANCH  16  17
ENDBRANCH   9  11
ENDBRANCH   3   5
BRANCH   2  21
ATOM     21  C   UNL     1       2.711   4.533  19.961  0.00  0.00    +0.000 A 
ATOM     22  C   UNL     1       1.812   4.198  20.996  0.00  0.00    +0.000 A 
ATOM     23  C   UNL     1       1.945   2.998  21.687  0.00  0.00    +0.000 A 
ATOM     24  C   UNL     1       2.998   2.149  21.385  0.00  0.00    +0.000 A 
ATOM     25  C   UNL     1       3.934   2.506  20.408  0.00  0.00    +0.000 A 
ATOM     26  C   UNL     1       3.814   3.696  19.676  0.00  0.00    +0.000 A 
BRANCH  26  27
ATOM     27  N   UNL     1       4.764   4.060  18.682  0.00  0.00    +0.000 N 
ATOM     28  C   UNL     1       5.969   4.718  18.896  0.00  0.00    +0.000 C 
ATOM     29  O   UNL     1       6.397   5.050  19.999  0.00  0.00    +0.000 OA
ATOM     30  H   UNL     1       4.574   3.702  17.750  0.00  0.00    +0.000 HD
BRANCH  28  31
ATOM     31  C   UNL     1       6.797   4.959  17.623  0.00  0.00    +0.000 C 
ATOM     32  C   UNL     1       6.303   4.148  16.418  0.00  0.00    +0.000 C 
ATOM     33  C   UNL     1       5.048   4.726  15.761  0.00  0.00    +0.000 C 
ATOM     34  C   UNL     1       5.202   6.205  15.421  0.00  0.00    +0.000 C 
ATOM     35  C   UNL     1       5.606   7.014  16.643  0.00  0.00    +0.000 C 
ATOM     36  C   UNL     1       6.878   6.461  17.287  0.00  0.00    +0.000 C 
ENDBRANCH  28  31
ENDBRANCH  26  27
ENDBRANCH   2  21
TORSDOF 6
ENDMDL
MODEL 5
REMARK VINA RESULT:      -9.1      1.762      2.271
REMARK  Name = 
REMARK  6 active torsions:
REMARK  status: ('A' for Active; 'I' for Inactive)
REMARK    1  A    between atoms: C_2  and  C_20
REMARK    2  A    between atoms: N_3  and  C_4
REMARK    3  A    between atoms: C_8  and  C_9
REMARK    4  A    between atoms: C_14  and  C_15
REMARK    5  A    between atoms: C_25  and  N_26
REMARK    6  A    between atoms: C_27  and  C_29
REMARK                            x       y       z     vdW  Elec       q    Type
REMARK                         _______ _______ _______ _____ _____    ______ ____
ROOT
ATOM      1  O   UNL     1       4.859   6.091  19.266  0.00  0.00    +0.000 OA
ATOM      2  C   UNL     1       4.210   6.117  18.225  0.00  0.00    +0.000 C 
ATOM      3  N   UNL     1       2.985   6.733  18.034  0.00  0.00    +0.000 N 
ATOM      4  H   UNL     1       2.546   6.651  17.128  0.00  0.00    +0.000 HD
ENDROOT
BRANCH   3   5
ATOM      5  C   UNL     1       2.258   7.487  18.974  0.00  0.00    +0.000 A 
ATOM      6  C   UNL     1       2.197   7.171  20.326  0.00  0.00    +0.000 A 
ATOM      7  C   UNL     1       1.513   8.012  21.200  0.00  0.00    +0.000 A 
ATOM      8  C   UNL     1       0.841   9.138  20.722  0.00  0.00    +0.000 A 
ATOM      9  C   UNL     1       0.773   9.412  19.347  0.00  0.00    +0.000 A 
ATOM     10  C   UNL     1       1.566   8.612  18.498  0.00  0.00    +0.000 A 
BRANCH   9  11
ATOM     11  C   UNL     1      -0.133  10.446  18.786  0.00  0.00    +0.000 A 
ATOM     12  C   UNL     1      -1.450  10.070  18.421  0.00  0.00    +0.000 A 
ATOM     13  C   UNL     1      -2.390  10.993  17.949  0.00  0.00    +0.000 A 
ATOM     14  C   UNL     1      -2.036  12.323  17.800  0.00  0.00    +0.000 A 
ATOM     15  C   UNL     1      -0.751  12.726  18.138  0.00  0.00    +0.000 A 
ATOM     16  C   UNL     1       0.208  11.819  18.654  0.00  0.00    +0.000 A 
BRANCH  16  17
ATOM     17  C   UNL     1       1.539  12.450  19.021  0.00  0.00    +0.000 C 
ATOM     18  F   UNL     1       2.644  11.975  18.395  0.00  0.00    +0.000 F 
ATOM     19  F   UNL     1       1.531  13.797  18.798  0.00  0.00    +0.000 F 
ATOM     20  F   UNL     1       1.816  12.309  20.353  0.00  0.00    +0.000 F 
ENDBRANCH  16  17
ENDBRANCH   9  11
ENDBRANCH   3   5
BRANCH   2  21
ATOM     21  C   UNL     1       4.780   5.457  17.009  0.00  0.00    +0.000 A 
ATOM     22  C   UNL     1       5.536   6.221  16.094  0.00  0.00    +0.000 A 
ATOM     23  C   UNL     1       6.204   5.604  15.041  0.00  0.00    +0.000 A 
ATOM     24  C   UNL     1       6.086   4.235  14.866  0.00  0.00    +0.000 A 
ATOM     25  C   UNL     1       5.282   3.481  15.727  0.00  0.00    +0.000 A 
ATOM     26  C   UNL     1       4.616   4.067  16.813  0.00  0.00    +0.000 A 
BRANCH  26  27
ATOM     27  N   UNL     1       3.799   3.301  17.690  0.00  0.00    +0.000 N 
ATOM     28  C   UNL     1       4.168   2.804  18.933  0.00  0.00    +0.000 C 
ATOM     29  O   UNL     1       5.259   2.992  19.466  0.00  0.00    +0.000 OA
ATOM     30  H   UNL     1       2.827   3.212  17.409  0.00  0.00    +0.000 HD
BRANCH  28  31
ATOM     31  C   UNL     1       3.059   2.025  19.661  0.00  0.00    +0.000 C 
ATOM     32  C   UNL     1       2.906   2.425  21.134  0.00  0.00    +0.000 C 
ATOM     33  C   UNL     1       2.166   3.749  21.337  0.00  0.00    +0.000 C 
ATOM     34  C   UNL     1       0.831   3.784  20.600  0.00  0.00    +0.000 C 
ATOM     35  C   UNL     1       1.006   3.472  19.122  0.00  0.00    +0.000 C 
ATOM     36  C   UNL     1       1.717   2.135  18.912  0.00  0.00    +0.000 C 
ENDBRANCH  28  31
ENDBRANCH  26  27
ENDBRANCH   2  21
TORSDOF 6
ENDMDL
MODEL 6
REMARK VINA RESULT:      -9.0      2.045      4.560
REMARK  Name = 
REMARK  6 active torsions:
REMARK  status: ('A' for Active; 'I' for Inactive)
REMARK    1  A    between atoms: C_2  and  C_20
REMARK    2  A    between atoms: N_3  and  C_4
REMARK    3  A    between atoms: C_8  and  C_9
REMARK    4  A    between atoms: C_14  and  C_15
REMARK    5  A    between atoms: C_25  and  N_26
REMARK    6  A    between atoms: C_27  and  C_29
REMARK                            x       y       z     vdW  Elec       q    Type
REMARK                         _______ _______ _______ _____ _____    ______ ____
ROOT
ATOM      1  O   UNL     1       2.062   5.640  17.981  0.00  0.00    +0.000 OA
ATOM      2  C   UNL     1       2.172   5.758  19.198  0.00  0.00    +0.000 C 
ATOM      3  N   UNL     1       2.080   6.934  19.923  0.00  0.00    +0.000 N 
ATOM      4  H   UNL     1       2.221   6.891  20.922  0.00  0.00    +0.000 HD
ENDROOT
BRANCH   3   5
ATOM      5  C   UNL     1       1.799   8.219  19.424  0.00  0.00    +0.000 A 
ATOM      6  C   UNL     1       2.482   8.792  18.357  0.00  0.00    +0.000 A 
ATOM      7  C   UNL     1       2.092  10.040  17.879  0.00  0.00    +0.000 A 
ATOM      8  C   UNL     1       1.060  10.747  18.499  0.00  0.00    +0.000 A 
ATOM      9  C   UNL     1       0.439  10.255  19.658  0.00  0.00    +0.000 A 
ATOM     10  C   UNL     1       0.773   8.943  20.052  0.00  0.00    +0.000 A 
BRANCH   9  11
ATOM     11  C   UNL     1      -0.477  11.084  20.483  0.00  0.00    +0.000 A 
ATOM     12  C   UNL     1      -0.109  11.380  21.819  0.00  0.00    +0.000 A 
ATOM     13  C   UNL     1      -0.879  12.209  22.643  0.00  0.00    +0.000 A 
ATOM     14  C   UNL     1      -2.061  12.750  22.166  0.00  0.00    +0.000 A 
ATOM     15  C   UNL     1      -2.459  12.472  20.865  0.00  0.00    +0.000 A 
ATOM     16  C   UNL     1      -1.678  11.668  19.998  0.00  0.00    +0.000 A 
BRANCH  16  17
ATOM     17  C   UNL     1      -2.242  11.523  18.596  0.00  0.00    +0.000 C 
ATOM     18  F   UNL     1      -1.606  12.190  17.600  0.00  0.00    +0.000 F 
ATOM     19  F   UNL     1      -2.280  10.215  18.206  0.00  0.00    +0.000 F 
ATOM     20  F   UNL     1      -3.537  11.956  18.523  0.00  0.00    +0.000 F 
ENDBRANCH  16  17
ENDBRANCH   9  11
ENDBRANCH   3   5
BRANCH   2  21
ATOM     21  C   UNL     1       2.397   4.527  20.019  0.00  0.00    +0.000 A 
ATOM     22  C   UNL     1       1.497   4.213  21.060  0.00  0.00    +0.000 A 
ATOM     23  C   UNL     1       1.593   3.001  21.736  0.00  0.00    +0.000 A 
ATOM     24  C   UNL     1       2.611   2.117  21.412  0.00  0.00    +0.000 A 
ATOM     25  C   UNL     1       3.549   2.452  20.430  0.00  0.00    +0.000 A 
ATOM     26  C   UNL     1       3.465   3.655  19.713  0.00  0.00    +0.000 A 
BRANCH  26  27
ATOM     27  N   UNL     1       4.417   3.995  18.713  0.00  0.00    +0.000 N 
ATOM     28  C   UNL     1       5.685   4.521  18.929  0.00  0.00    +0.000 C 
ATOM     29  O   UNL     1       6.174   4.734  20.035  0.00  0.00    +0.000 OA
ATOM     30  H   UNL     1       4.169   3.722  17.766  0.00  0.00    +0.000 HD
BRANCH  28  31
ATOM     31  C   UNL     1       6.497   4.770  17.647  0.00  0.00    +0.000 C 
ATOM     32  C   UNL     1       5.768   5.662  16.633  0.00  0.00    +0.000 C 
ATOM     33  C   UNL     1       5.798   7.150  16.991  0.00  0.00    +0.000 C 
ATOM     34  C   UNL     1       7.212   7.649  17.269  0.00  0.00    +0.000 C 
ATOM     35  C   UNL     1       7.895   6.812  18.338  0.00  0.00    +0.000 C 
ATOM     36  C   UNL     1       7.897   5.327  17.972  0.00  0.00    +0.000 C 
ENDBRANCH  28  31
ENDBRANCH  26  27
ENDBRANCH   2  21
TORSDOF 6
ENDMDL
MODEL 7
REMARK VINA RESULT:      -8.9      1.705      2.396
REMARK  Name = 
REMARK  6 active torsions:
REMARK  status: ('A' for Active; 'I' for Inactive)
REMARK    1  A    between atoms: C_2  and  C_20
REMARK    2  A    between atoms: N_3  and  C_4
REMARK    3  A    between atoms: C_8  and  C_9
REMARK    4  A    between atoms: C_14  and  C_15
REMARK    5  A    between atoms: C_25  and  N_26
REMARK    6  A    between atoms: C_27  and  C_29
REMARK                            x       y       z     vdW  Elec       q    Type
REMARK                         _______ _______ _______ _____ _____    ______ ____
ROOT
ATOM      1  O   UNL     1       2.233   5.152  17.454  0.00  0.00    +0.000 OA
ATOM      2  C   UNL     1       3.242   5.850  17.495  0.00  0.00    +0.000 C 
ATOM      3  N   UNL     1       3.406   7.017  18.221  0.00  0.00    +0.000 N 
ATOM      4  H   UNL     1       4.284   7.509  18.140  0.00  0.00    +0.000 HD
ENDROOT
BRANCH   3   5
ATOM      5  C   UNL     1       2.475   7.614  19.091  0.00  0.00    +0.000 A 
ATOM      6  C   UNL     1       2.215   7.146  20.373  0.00  0.00    +0.000 A 
ATOM      7  C   UNL     1       1.330   7.839  21.194  0.00  0.00    +0.000 A 
ATOM      8  C   UNL     1       0.659   8.968  20.721  0.00  0.00    +0.000 A 
ATOM      9  C   UNL     1       0.799   9.389  19.389  0.00  0.00    +0.000 A 
ATOM     10  C   UNL     1       1.783   8.741  18.616  0.00  0.00    +0.000 A 
BRANCH   9  11
ATOM     11  C   UNL     1      -0.082  10.421  18.784  0.00  0.00    +0.000 A 
ATOM     12  C   UNL     1      -1.312  10.013  18.209  0.00  0.00    +0.000 A 
ATOM     13  C   UNL     1      -2.232  10.925  17.680  0.00  0.00    +0.000 A 
ATOM     14  C   UNL     1      -1.940  12.279  17.682  0.00  0.00    +0.000 A 
ATOM     15  C   UNL     1      -0.740  12.714  18.228  0.00  0.00    +0.000 A 
ATOM     16  C   UNL     1       0.191  11.815  18.805  0.00  0.00    +0.000 A 
BRANCH  16  17
ATOM     17  C   UNL     1       1.419  12.477  19.403  0.00  0.00    +0.000 C 
ATOM     18  F   UNL     1       1.709  12.191  20.697  0.00  0.00    +0.000 F 
ATOM     19  F   UNL     1       2.545  12.178  18.691  0.00  0.00    +0.000 F 
ATOM     20  F   UNL     1       1.326  13.841  19.369  0.00  0.00    +0.000 F 
ENDBRANCH  16  17
ENDBRANCH   9  11
ENDBRANCH   3   5
BRANCH   2  21
ATOM     21  C   UNL     1       4.446   5.414  16.721  0.00  0.00    +0.000 A 
ATOM     22  C   UNL     1       5.062   6.317  15.828  0.00  0.00    +0.000 A 
ATOM     23  C   UNL     1       6.267   5.993  15.214  0.00  0.00    +0.000 A 
ATOM     24  C   UNL     1       6.841   4.753  15.448  0.00  0.00    +0.000 A 
ATOM     25  C   UNL     1       6.201   3.826  16.277  0.00  0.00    +0.000 A 
ATOM     26  C   UNL     1       4.998   4.130  16.931  0.00  0.00    +0.000 A 
BRANCH  26  27
ATOM     27  N   UNL     1       4.348   3.188  17.774  0.00  0.00    +0.000 N 
ATOM     28  C   UNL     1       4.476   3.094  19.155  0.00  0.00    +0.000 C 
ATOM     29  O   UNL     1       5.155   3.848  19.847  0.00  0.00    +0.000 OA
ATOM     30  H   UNL     1       3.649   2.609  17.319  0.00  0.00    +0.000 HD
BRANCH  28  31
ATOM     31  C   UNL     1       3.630   1.982  19.797  0.00  0.00    +0.000 C 
ATOM     32  C   UNL     1       3.362   2.211  21.290  0.00  0.00    +0.000 C 
ATOM     33  C   UNL     1       2.276   3.253  21.567  0.00  0.00    +0.000 C 
ATOM     34  C   UNL     1       0.990   2.965  20.800  0.00  0.00    +0.000 C 
ATOM     35  C   UNL     1       1.253   2.826  19.308  0.00  0.00    +0.000 C 
ATOM     36  C   UNL     1       2.315   1.763  19.023  0.00  0.00    +0.000 C 
ENDBRANCH  28  31
ENDBRANCH  26  27
ENDBRANCH   2  21
TORSDOF 6
ENDMDL
MODEL 8
REMARK VINA RESULT:      -8.8      2.373      4.843
REMARK  Name = 
REMARK  6 active torsions:
REMARK  status: ('A' for Active; 'I' for Inactive)
REMARK    1  A    between atoms: C_2  and  C_20
REMARK    2  A    between atoms: N_3  and  C_4
REMARK    3  A    between atoms: C_8  and  C_9
REMARK    4  A    between atoms: C_14  and  C_15
REMARK    5  A    between atoms: C_25  and  N_26
REMARK    6  A    between atoms: C_27  and  C_29
REMARK                            x       y       z     vdW  Elec       q    Type
REMARK                         _______ _______ _______ _____ _____    ______ ____
ROOT
ATOM      1  O   UNL     1       2.181   5.707  17.878  0.00  0.00    +0.000 OA
ATOM      2  C   UNL     1       2.440   5.817  19.073  0.00  0.00    +0.000 C 
ATOM      3  N   UNL     1       2.365   6.975  19.828  0.00  0.00    +0.000 N 
ATOM      4  H   UNL     1       2.637   6.930  20.800  0.00  0.00    +0.000 HD
ENDROOT
BRANCH   3   5
ATOM      5  C   UNL     1       1.937   8.244  19.396  0.00  0.00    +0.000 A 
ATOM      6  C   UNL     1       2.420   8.866  18.251  0.00  0.00    +0.000 A 
ATOM      7  C   UNL     1       1.889  10.091  17.856  0.00  0.00    +0.000 A 
ATOM      8  C   UNL     1       0.917  10.727  18.630  0.00  0.00    +0.000 A 
ATOM      9  C   UNL     1       0.504  10.189  19.859  0.00  0.00    +0.000 A 
ATOM     10  C   UNL     1       0.971   8.897  20.178  0.00  0.00    +0.000 A 
BRANCH   9  11
ATOM     11  C   UNL     1      -0.331  10.952  20.822  0.00  0.00    +0.000 A 
ATOM     12  C   UNL     1      -1.077  12.060  20.346  0.00  0.00    +0.000 A 
ATOM     13  C   UNL     1      -1.942  12.791  21.168  0.00  0.00    +0.000 A 
ATOM     14  C   UNL     1      -2.070  12.456  22.506  0.00  0.00    +0.000 A 
ATOM     15  C   UNL     1      -1.346  11.383  23.009  0.00  0.00    +0.000 A 
ATOM     16  C   UNL     1      -0.494  10.602  22.189  0.00  0.00    +0.000 A 
BRANCH  16  17
ATOM     17  C   UNL     1       0.169   9.436  22.899  0.00  0.00    +0.000 C 
ATOM     18  F   UNL     1       0.068   9.395  24.251  0.00  0.00    +0.000 F 
ATOM     19  F   UNL     1      -0.312   8.239  22.451  0.00  0.00    +0.000 F 
ATOM     20  F   UNL     1       1.515   9.394  22.657  0.00  0.00    +0.000 F 
ENDBRANCH  16  17
ENDBRANCH   9  11
ENDBRANCH   3   5
BRANCH   2  21
ATOM     21  C   UNL     1       2.852   4.595  19.832  0.00  0.00    +0.000 A 
ATOM     22  C   UNL     1       1.988   4.065  20.815  0.00  0.00    +0.000 A 
ATOM     23  C   UNL     1       2.274   2.847  21.424  0.00  0.00    +0.000 A 
ATOM     24  C   UNL     1       3.442   2.177  21.095  0.00  0.00    +0.000 A 
ATOM     25  C   UNL     1       4.337   2.730  20.174  0.00  0.00    +0.000 A 
ATOM     26  C   UNL     1       4.067   3.943  19.523  0.00  0.00    +0.000 A 
BRANCH  26  27
ATOM     27  N   UNL     1       4.976   4.506  18.586  0.00  0.00    +0.000 N 
ATOM     28  C   UNL     1       6.192   5.109  18.880  0.00  0.00    +0.000 C 
ATOM     29  O   UNL     1       6.669   5.209  20.008  0.00  0.00    +0.000 OA
ATOM     30  H   UNL     1       4.745   4.347  17.609  0.00  0.00    +0.000 HD
BRANCH  28  31
ATOM     31  C   UNL     1       6.968   5.609  17.649  0.00  0.00    +0.000 C 
ATOM     32  C   UNL     1       7.235   4.508  16.614  0.00  0.00    +0.000 C 
ATOM     33  C   UNL     1       6.015   4.162  15.757  0.00  0.00    +0.000 C 
ATOM     34  C   UNL     1       5.388   5.398  15.119  0.00  0.00    +0.000 C 
ATOM     35  C   UNL     1       5.046   6.448  16.164  0.00  0.00    +0.000 C 
ATOM     36  C   UNL     1       6.268   6.822  17.004  0.00  0.00    +0.000 C 
ENDBRANCH  28  31
ENDBRANCH  26  27
ENDBRANCH   2  21
TORSDOF 6
ENDMDL
MODEL 9
REMARK VINA RESULT:      -8.7      2.458      4.798
REMARK  Name = 
REMARK  6 active torsions:
REMARK  status: ('A' for Active; 'I' for Inactive)
REMARK    1  A    between atoms: C_2  and  C_20
REMARK    2  A    between atoms: N_3  and  C_4
REMARK    3  A    between atoms: C_8  and  C_9
REMARK    4  A    between atoms: C_14  and  C_15
REMARK    5  A    between atoms: C_25  and  N_26
REMARK    6  A    between atoms: C_27  and  C_29
REMARK                            x       y       z     vdW  Elec       q    Type
REMARK                         _______ _______ _______ _____ _____    ______ ____
ROOT
ATOM      1  O   UNL     1       2.253   5.622  17.895  0.00  0.00    +0.000 OA
ATOM      2  C   UNL     1       2.495   5.739  19.093  0.00  0.00    +0.000 C 
ATOM      3  N   UNL     1       2.400   6.899  19.843  0.00  0.00    +0.000 N 
ATOM      4  H   UNL     1       2.659   6.859  20.819  0.00  0.00    +0.000 HD
ENDROOT
BRANCH   3   5
ATOM      5  C   UNL     1       1.968   8.163  19.400  0.00  0.00    +0.000 A 
ATOM      6  C   UNL     1       2.300   8.694  18.160  0.00  0.00    +0.000 A 
ATOM      7  C   UNL     1       1.771   9.922  17.771  0.00  0.00    +0.000 A 
ATOM      8  C   UNL     1       0.957  10.651  18.639  0.00  0.00    +0.000 A 
ATOM      9  C   UNL     1       0.709  10.204  19.947  0.00  0.00    +0.000 A 
ATOM     10  C   UNL     1       1.161   8.909  20.274  0.00  0.00    +0.000 A 
BRANCH   9  11
ATOM     11  C   UNL     1       0.064  11.063  20.973  0.00  0.00    +0.000 A 
ATOM     12  C   UNL     1      -0.787  10.456  21.930  0.00  0.00    +0.000 A 
ATOM     13  C   UNL     1      -1.381  11.179  22.972  0.00  0.00    +0.000 A 
ATOM     14  C   UNL     1      -1.165  12.542  23.076  0.00  0.00    +0.000 A 
ATOM     15  C   UNL     1      -0.345  13.173  22.149  0.00  0.00    +0.000 A 
ATOM     16  C   UNL     1       0.299  12.457  21.108  0.00  0.00    +0.000 A 
BRANCH  16  17
ATOM     17  C   UNL     1       1.201  13.303  20.228  0.00  0.00    +0.000 C 
ATOM     18  F   UNL     1       1.387  14.596  20.592  0.00  0.00    +0.000 F 
ATOM     19  F   UNL     1       2.449  12.759  20.124  0.00  0.00    +0.000 F 
ATOM     20  F   UNL     1       0.734  13.374  18.944  0.00  0.00    +0.000 F 
ENDBRANCH  16  17
ENDBRANCH   9  11
ENDBRANCH   3   5
BRANCH   2  21
ATOM     21  C   UNL     1       2.905   4.523  19.863  0.00  0.00    +0.000 A 
ATOM     22  C   UNL     1       2.047   4.010  20.859  0.00  0.00    +0.000 A 
ATOM     23  C   UNL     1       2.330   2.798  21.480  0.00  0.00    +0.000 A 
ATOM     24  C   UNL     1       3.489   2.115  21.148  0.00  0.00    +0.000 A 
ATOM     25  C   UNL     1       4.380   2.651  20.212  0.00  0.00    +0.000 A 
ATOM     26  C   UNL     1       4.112   3.858  19.550  0.00  0.00    +0.000 A 
BRANCH  26  27
ATOM     27  N   UNL     1       5.016   4.404  18.597  0.00  0.00    +0.000 N 
ATOM     28  C   UNL     1       6.200   5.074  18.877  0.00  0.00    +0.000 C 
ATOM     29  O   UNL     1       6.649   5.259  20.005  0.00  0.00    +0.000 OA
ATOM     30  H   UNL     1       4.812   4.178  17.628  0.00  0.00    +0.000 HD
BRANCH  28  31
ATOM     31  C   UNL     1       6.979   5.534  17.633  0.00  0.00    +0.000 C 
ATOM     32  C   UNL     1       7.091   4.449  16.554  0.00  0.00    +0.000 C 
ATOM     33  C   UNL     1       5.812   4.263  15.735  0.00  0.00    +0.000 C 
ATOM     34  C   UNL     1       5.296   5.579  15.162  0.00  0.00    +0.000 C 
ATOM     35  C   UNL     1       5.105   6.621  16.253  0.00  0.00    +0.000 C 
ATOM     36  C   UNL     1       6.389   6.835  17.055  0.00  0.00    +0.000 C 
ENDBRANCH  28  31
ENDBRANCH  26  27
ENDBRANCH   2  21
TORSDOF 6
ENDMDL
