MODEL 1
REMARK VINA RESULT:      -8.2      0.000      0.000
REMARK  Name = 
REMARK  6 active torsions:
REMARK  status: ('A' for Active; 'I' for Inactive)
REMARK    1  A    between atoms: N_3  and  C_4
REMARK    2  A    between atoms: C_4  and  C_5
REMARK    3  A    between atoms: N_13  and  N_14
REMARK    4  A    between atoms: C_15  and  C_16
REMARK    5  A    between atoms: C_19  and  C_20
REMARK    6  A    between atoms: C_23  and  N_24
REMARK                            x       y       z     vdW  Elec       q    Type
REMARK                         _______ _______ _______ _____ _____    ______ ____
ROOT
ATOM      1  N   UNL     1       1.140   9.195  19.576  0.00  0.00    +0.000 NA
ATOM      2  C   UNL     1       1.451   8.304  20.468  0.00  0.00    +0.000 C 
ENDROOT
BRANCH   1   6
ATOM      3  O   UNL     1      -1.440  10.240  18.853  0.00  0.00    +0.000 OA
ATOM      4  C   UNL     1      -0.667  10.841  19.592  0.00  0.00    +0.000 C 
ATOM      5  N   UNL     1      -0.970  12.065  20.137  0.00  0.00    +0.000 N 
ATOM      6  N   UNL     1       0.570  10.372  20.011  0.00  0.00    +0.000 N 
ATOM      7  H   UNL     1      -0.345  12.489  20.804  0.00  0.00    +0.000 HD
ATOM      8  H   UNL     1       1.256  11.074  20.265  0.00  0.00    +0.000 HD
BRANCH   5   9
ATOM      9  C   UNL     1      -2.273  12.660  19.939  0.00  0.00    +0.000 C 
BRANCH   9  10
ATOM     10  C   UNL     1      -3.083  12.702  21.212  0.00  0.00    +0.000 A 
ATOM     11  C   UNL     1      -2.400  12.613  22.442  0.00  0.00    +0.000 A 
ATOM     12  C   UNL     1      -3.086  12.657  23.654  0.00  0.00    +0.000 A 
ATOM     13  C   UNL     1      -4.469  12.792  23.659  0.00  0.00    +0.000 A 
ATOM     14  C   UNL     1      -5.171  12.865  22.453  0.00  0.00    +0.000 A 
ATOM     15 CL   UNL     1      -6.891  13.030  22.551  0.00  0.00    +0.000 Cl
ATOM     16  C   UNL     1      -4.487  12.810  21.226  0.00  0.00    +0.000 A 
ATOM     17 CL   UNL     1      -5.365  12.865  19.729  0.00  0.00    +0.000 Cl
ENDBRANCH   9  10
ENDBRANCH   5   9
ENDBRANCH   1   6
BRANCH   2  18
ATOM     18  C   UNL     1       2.002   7.039  20.070  0.00  0.00    +0.000 A 
ATOM     19  C   UNL     1       1.861   5.770  20.588  0.00  0.00    +0.000 A 
ATOM     20  C   UNL     1       2.623   4.913  19.762  0.00  0.00    +0.000 A 
ATOM     21  C   UNL     1       3.192   5.700  18.781  0.00  0.00    +0.000 A 
ATOM     22  O   UNL     1       2.817   7.001  18.972  0.00  0.00    +0.000 OA
BRANCH  21  23
ATOM     23  C   UNL     1       4.039   5.421  17.621  0.00  0.00    +0.000 A 
ATOM     24  C   UNL     1       4.540   6.483  16.849  0.00  0.00    +0.000 A 
ATOM     25  C   UNL     1       5.400   6.254  15.770  0.00  0.00    +0.000 A 
ATOM     26  C   UNL     1       5.765   4.943  15.448  0.00  0.00    +0.000 A 
ATOM     27  C   UNL     1       5.258   3.866  16.185  0.00  0.00    +0.000 A 
ATOM     28  C   UNL     1       4.398   4.110  17.264  0.00  0.00    +0.000 A 
BRANCH  26  29
ATOM     29  N   UNL     1       6.696   4.701  14.339  0.00  0.00    +0.000 N 
ATOM     30  O   UNL     1       7.724   5.392  14.289  0.00  0.00    +0.000 OA
ATOM     31  O   UNL     1       6.402   3.818  13.521  0.00  0.00    +0.000 OA
ENDBRANCH  26  29
ENDBRANCH  21  23
ENDBRANCH   2  18
TORSDOF 6
ENDMDL
MODEL 2
REMARK VINA RESULT:      -8.1      8.029     11.060
REMARK  Name = 
REMARK  6 active torsions:
REMARK  status: ('A' for Active; 'I' for Inactive)
REMARK    1  A    between atoms: N_3  and  C_4
REMARK    2  A    between atoms: C_4  and  C_5
REMARK    3  A    between atoms: N_13  and  N_14
REMARK    4  A    between atoms: C_15  and  C_16
REMARK    5  A    between atoms: C_19  and  C_20
REMARK    6  A    between atoms: C_23  and  N_24
REMARK                            x       y       z     vdW  Elec       q    Type
REMARK                         _______ _______ _______ _____ _____    ______ ____
ROOT
ATOM      1  N   UNL     1       8.190   8.019  17.826  0.00  0.00    +0.000 NA
ATOM      2  C   UNL     1       7.889   9.281  17.762  0.00  0.00    +0.000 C 
ENDROOT
BRANCH   1   6
ATOM      3  O   UNL     1       7.246   5.547  18.951  0.00  0.00    +0.000 OA
ATOM      4  C   UNL     1       6.939   5.920  17.824  0.00  0.00    +0.000 C 
ATOM      5  N   UNL     1       6.116   5.186  17.003  0.00  0.00    +0.000 N 
ATOM      6  N   UNL     1       7.326   7.119  17.242  0.00  0.00    +0.000 N 
ATOM      7  H   UNL     1       5.820   5.565  16.117  0.00  0.00    +0.000 HD
ATOM      8  H   UNL     1       7.358   7.138  16.229  0.00  0.00    +0.000 HD
BRANCH   5   9
ATOM      9  C   UNL     1       5.488   3.974  17.478  0.00  0.00    +0.000 C 
BRANCH   9  10
ATOM     10  C   UNL     1       4.151   4.237  18.126  0.00  0.00    +0.000 A 
ATOM     11  C   UNL     1       3.385   5.324  17.659  0.00  0.00    +0.000 A 
ATOM     12  C   UNL     1       2.136   5.616  18.204  0.00  0.00    +0.000 A 
ATOM     13  C   UNL     1       1.628   4.823  19.227  0.00  0.00    +0.000 A 
ATOM     14  C   UNL     1       2.375   3.749  19.719  0.00  0.00    +0.000 A 
ATOM     15 CL   UNL     1       1.669   2.816  20.994  0.00  0.00    +0.000 Cl
ATOM     16  C   UNL     1       3.641   3.457  19.181  0.00  0.00    +0.000 A 
ATOM     17 CL   UNL     1       4.582   2.144  19.819  0.00  0.00    +0.000 Cl
ENDBRANCH   9  10
ENDBRANCH   5   9
ENDBRANCH   1   6
BRANCH   2  18
ATOM     18  C   UNL     1       8.726  10.260  18.395  0.00  0.00    +0.000 A 
ATOM     19  C   UNL     1       9.660  10.160  19.403  0.00  0.00    +0.000 A 
ATOM     20  C   UNL     1      10.186  11.458  19.593  0.00  0.00    +0.000 A 
ATOM     21  C   UNL     1       9.547  12.288  18.692  0.00  0.00    +0.000 A 
ATOM     22  O   UNL     1       8.650  11.557  17.965  0.00  0.00    +0.000 OA
BRANCH  21  23
ATOM     23  C   UNL     1       9.664  13.708  18.361  0.00  0.00    +0.000 A 
ATOM     24  C   UNL     1       8.803  14.640  18.965  0.00  0.00    +0.000 A 
ATOM     25  C   UNL     1       8.927  16.011  18.714  0.00  0.00    +0.000 A 
ATOM     26  C   UNL     1       9.923  16.463  17.843  0.00  0.00    +0.000 A 
ATOM     27  C   UNL     1      10.775  15.552  17.208  0.00  0.00    +0.000 A 
ATOM     28  C   UNL     1      10.640  14.182  17.468  0.00  0.00    +0.000 A 
BRANCH  26  29
ATOM     29  N   UNL     1      10.078  17.904  17.607  0.00  0.00    +0.000 N 
ATOM     30  O   UNL     1      11.187  18.308  17.224  0.00  0.00    +0.000 OA
ATOM     31  O   UNL     1       9.093  18.630  17.798  0.00  0.00    +0.000 OA
ENDBRANCH  26  29
ENDBRANCH  21  23
ENDBRANCH   2  18
TORSDOF 6
ENDMDL
MODEL 3
REMARK VINA RESULT:      -8.0      1.394      2.049
REMARK  Name = 
REMARK  6 active torsions:
REMARK  status: ('A' for Active; 'I' for Inactive)
REMARK    1  A    between atoms: N_3  and  C_4
REMARK    2  A    between atoms: C_4  and  C_5
REMARK    3  A    between atoms: N_13  and  N_14
REMARK    4  A    between atoms: C_15  and  C_16
REMARK    5  A    between atoms: C_19  and  C_20
REMARK    6  A    between atoms: C_23  and  N_24
REMARK                            x       y       z     vdW  Elec       q    Type
REMARK                         _______ _______ _______ _____ _____    ______ ____
ROOT
ATOM      1  N   UNL     1       1.438   8.484  20.179  0.00  0.00    +0.000 NA
ATOM      2  C   UNL     1       1.525   7.336  20.780  0.00  0.00    +0.000 C 
ENDROOT
BRANCH   1   6
ATOM      3  O   UNL     1       0.390  10.942  19.116  0.00  0.00    +0.000 OA
ATOM      4  C   UNL     1       0.487  10.731  20.321  0.00  0.00    +0.000 C 
ATOM      5  N   UNL     1       0.102  11.652  21.264  0.00  0.00    +0.000 N 
ATOM      6  N   UNL     1       0.943   9.552  20.894  0.00  0.00    +0.000 N 
ATOM      7  H   UNL     1       0.120  11.410  22.243  0.00  0.00    +0.000 HD
ATOM      8  H   UNL     1       1.346   9.629  21.821  0.00  0.00    +0.000 HD
BRANCH   5   9
ATOM      9  C   UNL     1      -0.535  12.889  20.872  0.00  0.00    +0.000 C 
BRANCH   9  10
ATOM     10  C   UNL     1      -2.039  12.816  20.975  0.00  0.00    +0.000 A 
ATOM     11  C   UNL     1      -2.774  12.507  19.813  0.00  0.00    +0.000 A 
ATOM     12  C   UNL     1      -4.163  12.411  19.840  0.00  0.00    +0.000 A 
ATOM     13  C   UNL     1      -4.846  12.623  21.032  0.00  0.00    +0.000 A 
ATOM     14  C   UNL     1      -4.142  12.948  22.196  0.00  0.00    +0.000 A 
ATOM     15 CL   UNL     1      -5.070  13.197  23.635  0.00  0.00    +0.000 Cl
ATOM     16  C   UNL     1      -2.740  13.057  22.172  0.00  0.00    +0.000 A 
ATOM     17 CL   UNL     1      -1.871  13.496  23.610  0.00  0.00    +0.000 Cl
ENDBRANCH   9  10
ENDBRANCH   5   9
ENDBRANCH   1   6
BRANCH   2  18
ATOM     18  C   UNL     1       1.986   6.177  20.071  0.00  0.00    +0.000 A 
ATOM     19  C   UNL     1       1.637   4.846  20.157  0.00  0.00    +0.000 A 
ATOM     20  C   UNL     1       2.410   4.165  19.189  0.00  0.00    +0.000 A 
ATOM     21  C   UNL     1       3.194   5.113  18.560  0.00  0.00    +0.000 A 
ATOM     22  O   UNL     1       2.939   6.341  19.103  0.00  0.00    +0.000 OA
BRANCH  21  23
ATOM     23  C   UNL     1       4.160   5.064  17.464  0.00  0.00    +0.000 A 
ATOM     24  C   UNL     1       4.643   3.825  17.011  0.00  0.00    +0.000 A 
ATOM     25  C   UNL     1       5.524   3.740  15.928  0.00  0.00    +0.000 A 
ATOM     26  C   UNL     1       5.936   4.910  15.284  0.00  0.00    +0.000 A 
ATOM     27  C   UNL     1       5.491   6.159  15.732  0.00  0.00    +0.000 A 
ATOM     28  C   UNL     1       4.609   6.230  16.819  0.00  0.00    +0.000 A 
BRANCH  26  29
ATOM     29  N   UNL     1       6.832   4.822  14.123  0.00  0.00    +0.000 N 
ATOM     30  O   UNL     1       6.562   3.983  13.250  0.00  0.00    +0.000 OA
ATOM     31  O   UNL     1       7.800   5.593  14.081  0.00  0.00    +0.000 OA
ENDBRANCH  26  29
ENDBRANCH  21  23
ENDBRANCH   2  18
TORSDOF 6
ENDMDL
MODEL 4
REMARK VINA RESULT:      -7.9      1.827      2.234
REMARK  Name = 
REMARK  6 active torsions:
REMARK  status: ('A' for Active; 'I' for Inactive)
REMARK    1  A    between atoms: N_3  and  C_4
REMARK    2  A    between atoms: C_4  and  C_5
REMARK    3  A    between atoms: N_13  and  N_14
REMARK    4  A    between atoms: C_15  and  C_16
REMARK    5  A    between atoms: C_19  and  C_20
REMARK    6  A    between atoms: C_23  and  N_24
REMARK                            x       y       z     vdW  Elec       q    Type
REMARK                         _______ _______ _______ _____ _____    ______ ____
ROOT
ATOM      1  N   UNL     1       0.194   9.459  21.042  0.00  0.00    +0.000 NA
ATOM      2  C   UNL     1       1.080   9.243  20.118  0.00  0.00    +0.000 C 
ENDROOT
BRANCH   1   6
ATOM      3  O   UNL     1      -0.883  10.639  23.433  0.00  0.00    +0.000 OA
ATOM      4  C   UNL     1      -0.831  11.240  22.365  0.00  0.00    +0.000 C 
ATOM      5  N   UNL     1      -1.282  12.530  22.222  0.00  0.00    +0.000 N 
ATOM      6  N   UNL     1      -0.285  10.742  21.190  0.00  0.00    +0.000 N 
ATOM      7  H   UNL     1      -1.147  13.018  21.351  0.00  0.00    +0.000 HD
ATOM      8  H   UNL     1      -0.643  11.134  20.326  0.00  0.00    +0.000 HD
BRANCH   5   9
ATOM      9  C   UNL     1      -1.754  13.278  23.365  0.00  0.00    +0.000 C 
BRANCH   9  10
ATOM     10  C   UNL     1      -3.049  14.000  23.082  0.00  0.00    +0.000 A 
ATOM     11  C   UNL     1      -3.023  15.097  22.197  0.00  0.00    +0.000 A 
ATOM     12  C   UNL     1      -4.185  15.799  21.883  0.00  0.00    +0.000 A 
ATOM     13  C   UNL     1      -5.396  15.418  22.447  0.00  0.00    +0.000 A 
ATOM     14  C   UNL     1      -5.446  14.343  23.341  0.00  0.00    +0.000 A 
ATOM     15 CL   UNL     1      -6.994  13.937  23.998  0.00  0.00    +0.000 Cl
ATOM     16  C   UNL     1      -4.276  13.638  23.671  0.00  0.00    +0.000 A 
ATOM     17 CL   UNL     1      -4.335  12.327  24.809  0.00  0.00    +0.000 Cl
ENDBRANCH   9  10
ENDBRANCH   5   9
ENDBRANCH   1   6
BRANCH   2  18
ATOM     18  C   UNL     1       1.652   7.938  19.949  0.00  0.00    +0.000 A 
ATOM     19  C   UNL     1       1.517   6.773  20.674  0.00  0.00    +0.000 A 
ATOM     20  C   UNL     1       2.304   5.799  20.017  0.00  0.00    +0.000 A 
ATOM     21  C   UNL     1       2.880   6.417  18.925  0.00  0.00    +0.000 A 
ATOM     22  O   UNL     1       2.487   7.725  18.887  0.00  0.00    +0.000 OA
BRANCH  21  23
ATOM     23  C   UNL     1       3.751   5.957  17.843  0.00  0.00    +0.000 A 
ATOM     24  C   UNL     1       4.434   6.894  17.049  0.00  0.00    +0.000 A 
ATOM     25  C   UNL     1       5.319   6.487  16.045  0.00  0.00    +0.000 A 
ATOM     26  C   UNL     1       5.525   5.123  15.821  0.00  0.00    +0.000 A 
ATOM     27  C   UNL     1       4.836   4.169  16.581  0.00  0.00    +0.000 A 
ATOM     28  C   UNL     1       3.953   4.591  17.584  0.00  0.00    +0.000 A 
BRANCH  26  29
ATOM     29  N   UNL     1       6.481   4.693  14.793  0.00  0.00    +0.000 N 
ATOM     30  O   UNL     1       6.147   3.754  14.054  0.00  0.00    +0.000 OA
ATOM     31  O   UNL     1       7.560   5.296  14.720  0.00  0.00    +0.000 OA
ENDBRANCH  26  29
ENDBRANCH  21  23
ENDBRANCH   2  18
TORSDOF 6
ENDMDL
MODEL 5
REMARK VINA RESULT:      -7.9      1.395      2.021
REMARK  Name = 
REMARK  6 active torsions:
REMARK  status: ('A' for Active; 'I' for Inactive)
REMARK    1  A    between atoms: N_3  and  C_4
REMARK    2  A    between atoms: C_4  and  C_5
REMARK    3  A    between atoms: N_13  and  N_14
REMARK    4  A    between atoms: C_15  and  C_16
REMARK    5  A    between atoms: C_19  and  C_20
REMARK    6  A    between atoms: C_23  and  N_24
REMARK                            x       y       z     vdW  Elec       q    Type
REMARK                         _______ _______ _______ _____ _____    ______ ____
ROOT
ATOM      1  N   UNL     1       1.667   8.387  21.072  0.00  0.00    +0.000 NA
ATOM      2  C   UNL     1       1.114   7.244  20.801  0.00  0.00    +0.000 C 
ENDROOT
BRANCH   1   6
ATOM      3  O   UNL     1       1.014  10.703  19.497  0.00  0.00    +0.000 OA
ATOM      4  C   UNL     1       0.602  10.545  20.641  0.00  0.00    +0.000 C 
ATOM      5  N   UNL     1      -0.208  11.461  21.266  0.00  0.00    +0.000 N 
ATOM      6  N   UNL     1       0.846   9.432  21.435  0.00  0.00    +0.000 N 
ATOM      7  H   UNL     1      -0.594  11.257  22.175  0.00  0.00    +0.000 HD
ATOM      8  H   UNL     1       0.809   9.578  22.437  0.00  0.00    +0.000 HD
BRANCH   5   9
ATOM      9  C   UNL     1      -0.697  12.622  20.556  0.00  0.00    +0.000 C 
BRANCH   9  10
ATOM     10  C   UNL     1      -2.105  12.431  20.048  0.00  0.00    +0.000 A 
ATOM     11  C   UNL     1      -2.284  11.852  18.776  0.00  0.00    +0.000 A 
ATOM     12  C   UNL     1      -3.557  11.636  18.252  0.00  0.00    +0.000 A 
ATOM     13  C   UNL     1      -4.677  11.995  18.991  0.00  0.00    +0.000 A 
ATOM     14  C   UNL     1      -4.527  12.587  20.249  0.00  0.00    +0.000 A 
ATOM     15 CL   UNL     1      -5.974  13.004  21.101  0.00  0.00    +0.000 Cl
ATOM     16  C   UNL     1      -3.245  12.818  20.779  0.00  0.00    +0.000 A 
ATOM     17 CL   UNL     1      -3.061  13.586  22.325  0.00  0.00    +0.000 Cl
ENDBRANCH   9  10
ENDBRANCH   5   9
ENDBRANCH   1   6
BRANCH   2  18
ATOM     18  C   UNL     1       1.914   6.133  20.369  0.00  0.00    +0.000 A 
ATOM     19  C   UNL     1       2.096   4.872  20.893  0.00  0.00    +0.000 A 
ATOM     20  C   UNL     1       2.984   4.201  20.021  0.00  0.00    +0.000 A 
ATOM     21  C   UNL     1       3.300   5.085  19.008  0.00  0.00    +0.000 A 
ATOM     22  O   UNL     1       2.651   6.268  19.224  0.00  0.00    +0.000 OA
BRANCH  21  23
ATOM     23  C   UNL     1       4.119   4.992  17.800  0.00  0.00    +0.000 A 
ATOM     24  C   UNL     1       4.450   6.158  17.088  0.00  0.00    +0.000 A 
ATOM     25  C   UNL     1       5.279   6.110  15.963  0.00  0.00    +0.000 A 
ATOM     26  C   UNL     1       5.786   4.880  15.533  0.00  0.00    +0.000 A 
ATOM     27  C   UNL     1       5.449   3.701  16.209  0.00  0.00    +0.000 A 
ATOM     28  C   UNL     1       4.617   3.763  17.335  0.00  0.00    +0.000 A 
BRANCH  26  29
ATOM     29  N   UNL     1       6.685   4.831  14.374  0.00  0.00    +0.000 N 
ATOM     30  O   UNL     1       7.716   5.520  14.416  0.00  0.00    +0.000 OA
ATOM     31  O   UNL     1       6.366   4.102  13.425  0.00  0.00    +0.000 OA
ENDBRANCH  26  29
ENDBRANCH  21  23
ENDBRANCH   2  18
TORSDOF 6
ENDMDL
MODEL 6
REMARK VINA RESULT:      -7.8      1.591      1.786
REMARK  Name = 
REMARK  6 active torsions:
REMARK  status: ('A' for Active; 'I' for Inactive)
REMARK    1  A    between atoms: N_3  and  C_4
REMARK    2  A    between atoms: C_4  and  C_5
REMARK    3  A    between atoms: N_13  and  N_14
REMARK    4  A    between atoms: C_15  and  C_16
REMARK    5  A    between atoms: C_19  and  C_20
REMARK    6  A    between atoms: C_23  and  N_24
REMARK                            x       y       z     vdW  Elec       q    Type
REMARK                         _______ _______ _______ _____ _____    ______ ____
ROOT
ATOM      1  N   UNL     1       0.835   9.063  20.126  0.00  0.00    +0.000 NA
ATOM      2  C   UNL     1       1.415   8.190  20.892  0.00  0.00    +0.000 C 
ENDROOT
BRANCH   1   6
ATOM      3  O   UNL     1      -1.306  10.745  19.199  0.00  0.00    +0.000 OA
ATOM      4  C   UNL     1      -0.624  11.023  20.180  0.00  0.00    +0.000 C 
ATOM      5  N   UNL     1      -0.828  12.162  20.920  0.00  0.00    +0.000 N 
ATOM      6  N   UNL     1       0.392  10.234  20.701  0.00  0.00    +0.000 N 
ATOM      7  H   UNL     1      -0.302  12.315  21.767  0.00  0.00    +0.000 HD
ATOM      8  H   UNL     1       1.114  10.716  21.224  0.00  0.00    +0.000 HD
BRANCH   5   9
ATOM      9  C   UNL     1      -1.934  13.046  20.628  0.00  0.00    +0.000 C 
BRANCH   9  10
ATOM     10  C   UNL     1      -2.841  13.240  21.818  0.00  0.00    +0.000 A 
ATOM     11  C   UNL     1      -4.148  12.716  21.755  0.00  0.00    +0.000 A 
ATOM     12  C   UNL     1      -5.033  12.849  22.823  0.00  0.00    +0.000 A 
ATOM     13  C   UNL     1      -4.627  13.510  23.977  0.00  0.00    +0.000 A 
ATOM     14  C   UNL     1      -3.341  14.055  24.058  0.00  0.00    +0.000 A 
ATOM     15 CL   UNL     1      -2.919  14.863  25.528  0.00  0.00    +0.000 Cl
ATOM     16  C   UNL     1      -2.448  13.934  22.979  0.00  0.00    +0.000 A 
ATOM     17 CL   UNL     1      -0.865  14.642  23.068  0.00  0.00    +0.000 Cl
ENDBRANCH   9  10
ENDBRANCH   5   9
ENDBRANCH   1   6
BRANCH   2  18
ATOM     18  C   UNL     1       1.853   6.931  20.359  0.00  0.00    +0.000 A 
ATOM     19  C   UNL     1       1.549   5.631  20.700  0.00  0.00    +0.000 A 
ATOM     20  C   UNL     1       2.265   4.803  19.805  0.00  0.00    +0.000 A 
ATOM     21  C   UNL     1       2.971   5.639  18.962  0.00  0.00    +0.000 A 
ATOM     22  O   UNL     1       2.724   6.939  19.304  0.00  0.00    +0.000 OA
BRANCH  21  23
ATOM     23  C   UNL     1       3.852   5.414  17.816  0.00  0.00    +0.000 A 
ATOM     24  C   UNL     1       4.485   6.504  17.195  0.00  0.00    +0.000 A 
ATOM     25  C   UNL     1       5.378   6.318  16.135  0.00  0.00    +0.000 A 
ATOM     26  C   UNL     1       5.644   5.024  15.679  0.00  0.00    +0.000 A 
ATOM     27  C   UNL     1       5.005   3.923  16.263  0.00  0.00    +0.000 A 
ATOM     28  C   UNL     1       4.113   4.124  17.324  0.00  0.00    +0.000 A 
BRANCH  26  29
ATOM     29  N   UNL     1       6.609   4.822  14.591  0.00  0.00    +0.000 N 
ATOM     30  O   UNL     1       7.644   5.505  14.605  0.00  0.00    +0.000 OA
ATOM     31  O   UNL     1       6.335   3.979  13.726  0.00  0.00    +0.000 OA
ENDBRANCH  26  29
ENDBRANCH  21  23
ENDBRANCH   2  18
TORSDOF 6
ENDMDL
MODEL 7
REMARK VINA RESULT:      -7.8      1.223      1.664
REMARK  Name = 
REMARK  6 active torsions:
REMARK  status: ('A' for Active; 'I' for Inactive)
REMARK    1  A    between atoms: N_3  and  C_4
REMARK    2  A    between atoms: C_4  and  C_5
REMARK    3  A    between atoms: N_13  and  N_14
REMARK    4  A    between atoms: C_15  and  C_16
REMARK    5  A    between atoms: C_19  and  C_20
REMARK    6  A    between atoms: C_23  and  N_24
REMARK                            x       y       z     vdW  Elec       q    Type
REMARK                         _______ _______ _______ _____ _____    ______ ____
ROOT
ATOM      1  N   UNL     1       1.334   8.226  20.134  0.00  0.00    +0.000 NA
ATOM      2  C   UNL     1       1.671   7.189  20.838  0.00  0.00    +0.000 C 
ENDROOT
BRANCH   1   6
ATOM      3  O   UNL     1       0.407  10.684  18.962  0.00  0.00    +0.000 OA
ATOM      4  C   UNL     1       0.394  10.482  20.172  0.00  0.00    +0.000 C 
ATOM      5  N   UNL     1      -0.066  11.415  21.070  0.00  0.00    +0.000 N 
ATOM      6  N   UNL     1       0.786   9.304  20.794  0.00  0.00    +0.000 N 
ATOM      7  H   UNL     1      -0.138  11.181  22.048  0.00  0.00    +0.000 HD
ATOM      8  H   UNL     1       1.105   9.386  21.752  0.00  0.00    +0.000 HD
BRANCH   5   9
ATOM      9  C   UNL     1      -0.654  12.653  20.613  0.00  0.00    +0.000 C 
BRANCH   9  10
ATOM     10  C   UNL     1      -2.152  12.679  20.799  0.00  0.00    +0.000 A 
ATOM     11  C   UNL     1      -2.662  12.989  22.075  0.00  0.00    +0.000 A 
ATOM     12  C   UNL     1      -4.034  13.041  22.313  0.00  0.00    +0.000 A 
ATOM     13  C   UNL     1      -4.923  12.786  21.276  0.00  0.00    +0.000 A 
ATOM     14  C   UNL     1      -4.443  12.459  20.004  0.00  0.00    +0.000 A 
ATOM     15 CL   UNL     1      -5.620  12.153  18.773  0.00  0.00    +0.000 Cl
ATOM     16  C   UNL     1      -3.060  12.393  19.761  0.00  0.00    +0.000 A 
ATOM     17 CL   UNL     1      -2.467  11.952  18.190  0.00  0.00    +0.000 Cl
ENDBRANCH   9  10
ENDBRANCH   5   9
ENDBRANCH   1   6
BRANCH   2  18
ATOM     18  C   UNL     1       2.200   6.017  20.199  0.00  0.00    +0.000 A 
ATOM     19  C   UNL     1       2.037   4.673  20.461  0.00  0.00    +0.000 A 
ATOM     20  C   UNL     1       2.784   3.981  19.481  0.00  0.00    +0.000 A 
ATOM     21  C   UNL     1       3.366   4.935  18.669  0.00  0.00    +0.000 A 
ATOM     22  O   UNL     1       3.014   6.179  19.112  0.00  0.00    +0.000 OA
BRANCH  21  23
ATOM     23  C   UNL     1       4.208   4.874  17.475  0.00  0.00    +0.000 A 
ATOM     24  C   UNL     1       4.559   6.058  16.804  0.00  0.00    +0.000 A 
ATOM     25  C   UNL     1       5.410   6.039  15.694  0.00  0.00    +0.000 A 
ATOM     26  C   UNL     1       5.918   4.819  15.237  0.00  0.00    +0.000 A 
ATOM     27  C   UNL     1       5.561   3.622  15.871  0.00  0.00    +0.000 A 
ATOM     28  C   UNL     1       4.708   3.656  16.983  0.00  0.00    +0.000 A 
BRANCH  26  29
ATOM     29  N   UNL     1       6.839   4.799  14.095  0.00  0.00    +0.000 N 
ATOM     30  O   UNL     1       6.576   4.033  13.156  0.00  0.00    +0.000 OA
ATOM     31  O   UNL     1       7.822   5.552  14.133  0.00  0.00    +0.000 OA
ENDBRANCH  26  29
ENDBRANCH  21  23
ENDBRANCH   2  18
TORSDOF 6
ENDMDL
MODEL 8
REMARK VINA RESULT:      -7.8      2.072      2.222
REMARK  Name = 
REMARK  6 active torsions:
REMARK  status: ('A' for Active; 'I' for Inactive)
REMARK    1  A    between atoms: N_3  and  C_4
REMARK    2  A    between atoms: C_4  and  C_5
REMARK    3  A    between atoms: N_13  and  N_14
REMARK    4  A    between atoms: C_15  and  C_16
REMARK    5  A    between atoms: C_19  and  C_20
REMARK    6  A    between atoms: C_23  and  N_24
REMARK                            x       y       z     vdW  Elec       q    Type
REMARK                         _______ _______ _______ _____ _____    ______ ____
ROOT
ATOM      1  N   UNL     1       1.152   9.107  19.527  0.00  0.00    +0.000 NA
ATOM      2  C   UNL     1       1.143   8.104  20.351  0.00  0.00    +0.000 C 
ENDROOT
BRANCH   1   6
ATOM      3  O   UNL     1       1.595  11.056  21.595  0.00  0.00    +0.000 OA
ATOM      4  C   UNL     1       0.608  11.079  20.865  0.00  0.00    +0.000 C 
ATOM      5  N   UNL     1      -0.368  12.039  20.975  0.00  0.00    +0.000 N 
ATOM      6  N   UNL     1       0.360  10.194  19.825  0.00  0.00    +0.000 N 
ATOM      7  H   UNL     1      -1.120  12.073  20.305  0.00  0.00    +0.000 HD
ATOM      8  H   UNL     1      -0.613  10.057  19.573  0.00  0.00    +0.000 HD
BRANCH   5   9
ATOM      9  C   UNL     1      -0.223  13.137  21.903  0.00  0.00    +0.000 C 
BRANCH   9  10
ATOM     10  C   UNL     1      -1.418  13.280  22.814  0.00  0.00    +0.000 A 
ATOM     11  C   UNL     1      -2.342  12.217  22.875  0.00  0.00    +0.000 A 
ATOM     12  C   UNL     1      -3.460  12.278  23.704  0.00  0.00    +0.000 A 
ATOM     13  C   UNL     1      -3.677  13.404  24.489  0.00  0.00    +0.000 A 
ATOM     14  C   UNL     1      -2.785  14.479  24.433  0.00  0.00    +0.000 A 
ATOM     15 CL   UNL     1      -3.131  15.842  25.441  0.00  0.00    +0.000 Cl
ATOM     16  C   UNL     1      -1.660  14.429  23.591  0.00  0.00    +0.000 A 
ATOM     17 CL   UNL     1      -0.574  15.780  23.497  0.00  0.00    +0.000 Cl
ENDBRANCH   9  10
ENDBRANCH   5   9
ENDBRANCH   1   6
BRANCH   2  18
ATOM     18  C   UNL     1       1.909   6.923  20.068  0.00  0.00    +0.000 A 
ATOM     19  C   UNL     1       2.039   5.727  20.740  0.00  0.00    +0.000 A 
ATOM     20  C   UNL     1       2.915   4.928  19.970  0.00  0.00    +0.000 A 
ATOM     21  C   UNL     1       3.278   5.676  18.867  0.00  0.00    +0.000 A 
ATOM     22  O   UNL     1       2.669   6.898  18.930  0.00  0.00    +0.000 OA
BRANCH  21  23
ATOM     23  C   UNL     1       4.112   5.414  17.694  0.00  0.00    +0.000 A 
ATOM     24  C   UNL     1       4.602   6.487  16.930  0.00  0.00    +0.000 A 
ATOM     25  C   UNL     1       5.448   6.274  15.838  0.00  0.00    +0.000 A 
ATOM     26  C   UNL     1       5.813   4.969  15.495  0.00  0.00    +0.000 A 
ATOM     27  C   UNL     1       5.317   3.881  16.223  0.00  0.00    +0.000 A 
ATOM     28  C   UNL     1       4.469   4.109  17.316  0.00  0.00    +0.000 A 
BRANCH  26  29
ATOM     29  N   UNL     1       6.731   4.744  14.371  0.00  0.00    +0.000 N 
ATOM     30  O   UNL     1       7.769   5.421  14.331  0.00  0.00    +0.000 OA
ATOM     31  O   UNL     1       6.418   3.887  13.533  0.00  0.00    +0.000 OA
ENDBRANCH  26  29
ENDBRANCH  21  23
ENDBRANCH   2  18
TORSDOF 6
ENDMDL
MODEL 9
REMARK VINA RESULT:      -7.8      1.488      1.892
REMARK  Name = 
REMARK  6 active torsions:
REMARK  status: ('A' for Active; 'I' for Inactive)
REMARK    1  A    between atoms: N_3  and  C_4
REMARK    2  A    between atoms: C_4  and  C_5
REMARK    3  A    between atoms: N_13  and  N_14
REMARK    4  A    between atoms: C_15  and  C_16
REMARK    5  A    between atoms: C_19  and  C_20
REMARK    6  A    between atoms: C_23  and  N_24
REMARK                            x       y       z     vdW  Elec       q    Type
REMARK                         _______ _______ _______ _____ _____    ______ ____
ROOT
ATOM      1  N   UNL     1       1.262   9.173  19.906  0.00  0.00    +0.000 NA
ATOM      2  C   UNL     1       1.378   8.159  20.709  0.00  0.00    +0.000 C 
ENDROOT
BRANCH   1   6
ATOM      3  O   UNL     1      -1.327  10.255  19.276  0.00  0.00    +0.000 OA
ATOM      4  C   UNL     1      -0.539  10.820  20.027  0.00  0.00    +0.000 C 
ATOM      5  N   UNL     1      -0.829  12.019  20.632  0.00  0.00    +0.000 N 
ATOM      6  N   UNL     1       0.704  10.330  20.403  0.00  0.00    +0.000 N 
ATOM      7  H   UNL     1      -0.191  12.411  21.307  0.00  0.00    +0.000 HD
ATOM      8  H   UNL     1       1.396  11.018  20.676  0.00  0.00    +0.000 HD
BRANCH   5   9
ATOM      9  C   UNL     1      -2.133  12.626  20.485  0.00  0.00    +0.000 C 
BRANCH   9  10
ATOM     10  C   UNL     1      -2.649  13.196  21.783  0.00  0.00    +0.000 A 
ATOM     11  C   UNL     1      -3.119  12.302  22.766  0.00  0.00    +0.000 A 
ATOM     12  C   UNL     1      -3.597  12.761  23.992  0.00  0.00    +0.000 A 
ATOM     13  C   UNL     1      -3.615  14.124  24.258  0.00  0.00    +0.000 A 
ATOM     14  C   UNL     1      -3.171  15.034  23.293  0.00  0.00    +0.000 A 
ATOM     15 CL   UNL     1      -3.229  16.713  23.707  0.00  0.00    +0.000 Cl
ATOM     16  C   UNL     1      -2.697  14.578  22.051  0.00  0.00    +0.000 A 
ATOM     17 CL   UNL     1      -2.180  15.711  20.841  0.00  0.00    +0.000 Cl
ENDBRANCH   9  10
ENDBRANCH   5   9
ENDBRANCH   1   6
BRANCH   2  18
ATOM     18  C   UNL     1       1.907   6.912  20.233  0.00  0.00    +0.000 A 
ATOM     19  C   UNL     1       1.670   5.608  20.612  0.00  0.00    +0.000 A 
ATOM     20  C   UNL     1       2.461   4.795  19.769  0.00  0.00    +0.000 A 
ATOM     21  C   UNL     1       3.142   5.643  18.916  0.00  0.00    +0.000 A 
ATOM     22  O   UNL     1       2.808   6.936  19.205  0.00  0.00    +0.000 OA
BRANCH  21  23
ATOM     23  C   UNL     1       4.071   5.433  17.806  0.00  0.00    +0.000 A 
ATOM     24  C   UNL     1       4.429   4.127  17.430  0.00  0.00    +0.000 A 
ATOM     25  C   UNL     1       5.268   3.890  16.337  0.00  0.00    +0.000 A 
ATOM     26  C   UNL     1       5.766   4.972  15.605  0.00  0.00    +0.000 A 
ATOM     27  C   UNL     1       5.446   6.284  15.975  0.00  0.00    +0.000 A 
ATOM     28  C   UNL     1       4.604   6.507  17.073  0.00  0.00    +0.000 A 
BRANCH  26  29
ATOM     29  N   UNL     1       6.617   4.725  14.434  0.00  0.00    +0.000 N 
ATOM     30  O   UNL     1       6.290   3.807  13.667  0.00  0.00    +0.000 OA
ATOM     31  O   UNL     1       7.609   5.451  14.279  0.00  0.00    +0.000 OA
ENDBRANCH  26  29
ENDBRANCH  21  23
ENDBRANCH   2  18
TORSDOF 6
ENDMDL
