MODEL 1
REMARK VINA RESULT:      -9.0      0.000      0.000
REMARK  Name = 
REMARK  8 active torsions:
REMARK  status: ('A' for Active; 'I' for Inactive)
REMARK    1  A    between atoms: C_1  and  C_2
REMARK    2  A    between atoms: C_4  and  C_5
REMARK    3  A    between atoms: C_6  and  N_7
REMARK    4  A    between atoms: N_7  and  N_8
REMARK    5  A    between atoms: C_12  and  C_13
REMARK    6  A    between atoms: C_18  and  C_19
REMARK    7  A    between atoms: C_19  and  O_21
REMARK    8  A    between atoms: C_24  and  C_25
REMARK                            x       y       z     vdW  Elec       q    Type
REMARK                         _______ _______ _______ _____ _____    ______ ____
ROOT
ATOM      1  N   UNL     1       1.192   6.541  20.860  0.00  0.00    +0.000 NA
ATOM      2  C   UNL     1       1.662   5.416  20.422  0.00  0.00    +0.000 C 
ATOM      3  C   UNL     1       0.768   4.219  20.570  0.00  0.00    +0.000 C 
ATOM      4  C   UNL     1       1.587   3.118  21.205  0.00  0.00    +0.000 C 
ATOM      5  C   UNL     1       2.728   2.712  20.275  0.00  0.00    +0.000 C 
ATOM      6  C   UNL     1       2.199   1.888  19.089  0.00  0.00    +0.000 C 
ATOM      7  N   UNL     1       3.521   3.864  19.814  0.00  0.00    +0.000 N 
ATOM      8  C   UNL     1       3.035   5.171  19.801  0.00  0.00    +0.000 A 
ATOM      9  N   UNL     1       3.695   6.177  19.310  0.00  0.00    +0.000 NA
ATOM     10  C   UNL     1       4.937   5.921  18.784  0.00  0.00    +0.000 A 
ATOM     11  C   UNL     1       5.535   4.724  18.746  0.00  0.00    +0.000 A 
ATOM     12  C   UNL     1       4.783   3.597  19.307  0.00  0.00    +0.000 A 
ATOM     13  O   UNL     1       5.299   2.472  19.291  0.00  0.00    +0.000 OA
ENDROOT
BRANCH   1  14
ATOM     14  N   UNL     1       1.904   7.674  20.765  0.00  0.00    +0.000 N 
ATOM     15  H   UNL     1       2.926   7.664  20.814  0.00  0.00    +0.000 HD
BRANCH  14  21
ATOM     16  C   UNL     1      -0.870  12.406  18.993  0.00  0.00    +0.000 C 
ATOM     17  C   UNL     1      -0.137  11.190  19.469  0.00  0.00    +0.000 A 
ATOM     18  C   UNL     1      -0.115  10.815  20.810  0.00  0.00    +0.000 A 
ATOM     19  C   UNL     1       0.588   9.668  21.233  0.00  0.00    +0.000 A 
ATOM     20  C   UNL     1       0.525   9.307  22.697  0.00  0.00    +0.000 C 
ATOM     21  C   UNL     1       1.297   8.865  20.297  0.00  0.00    +0.000 A 
ATOM     22  C   UNL     1       1.268   9.251  18.935  0.00  0.00    +0.000 A 
ATOM     23  C   UNL     1       1.999   8.574  17.804  0.00  0.00    +0.000 C 
ATOM     24  C   UNL     1       0.558  10.407  18.549  0.00  0.00    +0.000 A 
ENDBRANCH  14  21
ENDBRANCH   1  14
BRANCH  11  25
ATOM     25  C   UNL     1       6.879   4.601  18.142  0.00  0.00    +0.000 C 
ATOM     26  O   UNL     1       7.899   4.977  18.697  0.00  0.00    +0.000 OA
BRANCH  25  27
ATOM     27  O   UNL     1       6.901   4.040  16.913  0.00  0.00    +0.000 OA
ATOM     28  H   UNL     1       6.073   4.157  16.388  0.00  0.00    +0.000 HD
ENDBRANCH  25  27
ENDBRANCH  11  25
TORSDOF 4
ENDMDL
MODEL 2
REMARK VINA RESULT:      -8.8      0.469      1.842
REMARK  Name = 
REMARK  8 active torsions:
REMARK  status: ('A' for Active; 'I' for Inactive)
REMARK    1  A    between atoms: C_1  and  C_2
REMARK    2  A    between atoms: C_4  and  C_5
REMARK    3  A    between atoms: C_6  and  N_7
REMARK    4  A    between atoms: N_7  and  N_8
REMARK    5  A    between atoms: C_12  and  C_13
REMARK    6  A    between atoms: C_18  and  C_19
REMARK    7  A    between atoms: C_19  and  O_21
REMARK    8  A    between atoms: C_24  and  C_25
REMARK                            x       y       z     vdW  Elec       q    Type
REMARK                         _______ _______ _______ _____ _____    ______ ____
ROOT
ATOM      1  N   UNL     1       1.285   6.642  20.801  0.00  0.00    +0.000 NA
ATOM      2  C   UNL     1       1.779   5.520  20.380  0.00  0.00    +0.000 C 
ATOM      3  C   UNL     1       0.993   4.283  20.707  0.00  0.00    +0.000 C 
ATOM      4  C   UNL     1       1.955   3.283  21.307  0.00  0.00    +0.000 C 
ATOM      5  C   UNL     1       3.007   2.884  20.276  0.00  0.00    +0.000 C 
ATOM      6  C   UNL     1       2.406   1.948  19.215  0.00  0.00    +0.000 C 
ATOM      7  N   UNL     1       3.661   4.049  19.654  0.00  0.00    +0.000 N 
ATOM      8  C   UNL     1       3.086   5.319  19.617  0.00  0.00    +0.000 A 
ATOM      9  N   UNL     1       3.614   6.327  18.991  0.00  0.00    +0.000 NA
ATOM     10  C   UNL     1       4.803   6.113  18.338  0.00  0.00    +0.000 A 
ATOM     11  C   UNL     1       5.474   4.956  18.303  0.00  0.00    +0.000 A 
ATOM     12  C   UNL     1       4.872   3.826  19.019  0.00  0.00    +0.000 A 
ATOM     13  O   UNL     1       5.460   2.738  19.011  0.00  0.00    +0.000 OA
ENDROOT
BRANCH   1  14
ATOM     14  N   UNL     1       1.900   7.808  20.552  0.00  0.00    +0.000 N 
ATOM     15  H   UNL     1       2.893   7.842  20.308  0.00  0.00    +0.000 HD
BRANCH  14  21
ATOM     16  C   UNL     1      -0.893  12.733  19.470  0.00  0.00    +0.000 C 
ATOM     17  C   UNL     1      -0.181  11.443  19.736  0.00  0.00    +0.000 A 
ATOM     18  C   UNL     1       0.434  10.713  18.721  0.00  0.00    +0.000 A 
ATOM     19  C   UNL     1       1.094   9.497  18.996  0.00  0.00    +0.000 A 
ATOM     20  C   UNL     1       1.772   8.792  17.848  0.00  0.00    +0.000 C 
ATOM     21  C   UNL     1       1.143   8.982  20.321  0.00  0.00    +0.000 A 
ATOM     22  C   UNL     1       0.517   9.731  21.348  0.00  0.00    +0.000 A 
ATOM     23  C   UNL     1       0.407   9.331  22.797  0.00  0.00    +0.000 C 
ATOM     24  C   UNL     1      -0.136  10.941  21.034  0.00  0.00    +0.000 A 
ENDBRANCH  14  21
ENDBRANCH   1  14
BRANCH  11  25
ATOM     25  C   UNL     1       6.746   4.875  17.553  0.00  0.00    +0.000 C 
ATOM     26  O   UNL     1       6.890   5.332  16.431  0.00  0.00    +0.000 OA
BRANCH  25  27
ATOM     27  O   UNL     1       7.750   4.247  18.203  0.00  0.00    +0.000 OA
ATOM     28  H   UNL     1       7.461   3.563  18.853  0.00  0.00    +0.000 HD
ENDBRANCH  25  27
ENDBRANCH  11  25
TORSDOF 4
ENDMDL
MODEL 3
REMARK VINA RESULT:      -8.5      1.247      1.428
REMARK  Name = 
REMARK  8 active torsions:
REMARK  status: ('A' for Active; 'I' for Inactive)
REMARK    1  A    between atoms: C_1  and  C_2
REMARK    2  A    between atoms: C_4  and  C_5
REMARK    3  A    between atoms: C_6  and  N_7
REMARK    4  A    between atoms: N_7  and  N_8
REMARK    5  A    between atoms: C_12  and  C_13
REMARK    6  A    between atoms: C_18  and  C_19
REMARK    7  A    between atoms: C_19  and  O_21
REMARK    8  A    between atoms: C_24  and  C_25
REMARK                            x       y       z     vdW  Elec       q    Type
REMARK                         _______ _______ _______ _____ _____    ______ ____
ROOT
ATOM      1  N   UNL     1       1.409   6.849  20.840  0.00  0.00    +0.000 NA
ATOM      2  C   UNL     1       1.830   5.815  20.182  0.00  0.00    +0.000 C 
ATOM      3  C   UNL     1       1.196   4.500  20.531  0.00  0.00    +0.000 C 
ATOM      4  C   UNL     1       2.313   3.507  20.761  0.00  0.00    +0.000 C 
ATOM      5  C   UNL     1       3.099   3.295  19.470  0.00  0.00    +0.000 C 
ATOM      6  C   UNL     1       2.296   2.442  18.474  0.00  0.00    +0.000 C 
ATOM      7  N   UNL     1       3.537   4.562  18.859  0.00  0.00    +0.000 N 
ATOM      8  C   UNL     1       2.922   5.787  19.113  0.00  0.00    +0.000 A 
ATOM      9  N   UNL     1       3.242   6.891  18.508  0.00  0.00    +0.000 NA
ATOM     10  C   UNL     1       4.245   6.830  17.572  0.00  0.00    +0.000 A 
ATOM     11  C   UNL     1       4.934   5.731  17.240  0.00  0.00    +0.000 A 
ATOM     12  C   UNL     1       4.567   4.491  17.934  0.00  0.00    +0.000 A 
ATOM     13  O   UNL     1       5.177   3.452  17.655  0.00  0.00    +0.000 OA
ENDROOT
BRANCH   1  14
ATOM     14  N   UNL     1       1.900   8.074  20.598  0.00  0.00    +0.000 N 
ATOM     15  H   UNL     1       2.887   8.213  20.366  0.00  0.00    +0.000 HD
BRANCH  14  21
ATOM     16  C   UNL     1      -1.910  12.322  19.785  0.00  0.00    +0.000 C 
ATOM     17  C   UNL     1      -0.908  11.232  20.010  0.00  0.00    +0.000 A 
ATOM     18  C   UNL     1      -0.594  10.766  21.284  0.00  0.00    +0.000 A 
ATOM     19  C   UNL     1       0.358   9.742  21.471  0.00  0.00    +0.000 A 
ATOM     20  C   UNL     1       0.607   9.264  22.880  0.00  0.00    +0.000 C 
ATOM     21  C   UNL     1       1.026   9.161  20.357  0.00  0.00    +0.000 A 
ATOM     22  C   UNL     1       0.700   9.640  19.064  0.00  0.00    +0.000 A 
ATOM     23  C   UNL     1       1.334   9.200  17.769  0.00  0.00    +0.000 C 
ATOM     24  C   UNL     1      -0.255  10.667  18.917  0.00  0.00    +0.000 A 
ENDBRANCH  14  21
ENDBRANCH   1  14
BRANCH  11  25
ATOM     25  C   UNL     1       5.988   5.817  16.208  0.00  0.00    +0.000 C 
ATOM     26  O   UNL     1       5.771   6.162  15.057  0.00  0.00    +0.000 OA
BRANCH  25  27
ATOM     27  O   UNL     1       7.227   5.480  16.630  0.00  0.00    +0.000 OA
ATOM     28  H   UNL     1       7.896   6.202  16.574  0.00  0.00    +0.000 HD
ENDBRANCH  25  27
ENDBRANCH  11  25
TORSDOF 4
ENDMDL
MODEL 4
REMARK VINA RESULT:      -7.3      1.835      3.690
REMARK  Name = 
REMARK  8 active torsions:
REMARK  status: ('A' for Active; 'I' for Inactive)
REMARK    1  A    between atoms: C_1  and  C_2
REMARK    2  A    between atoms: C_4  and  C_5
REMARK    3  A    between atoms: C_6  and  N_7
REMARK    4  A    between atoms: N_7  and  N_8
REMARK    5  A    between atoms: C_12  and  C_13
REMARK    6  A    between atoms: C_18  and  C_19
REMARK    7  A    between atoms: C_19  and  O_21
REMARK    8  A    between atoms: C_24  and  C_25
REMARK                            x       y       z     vdW  Elec       q    Type
REMARK                         _______ _______ _______ _____ _____    ______ ____
ROOT
ATOM      1  N   UNL     1       1.845   8.600  18.542  0.00  0.00    +0.000 NA
ATOM      2  C   UNL     1       2.736   7.659  18.557  0.00  0.00    +0.000 C 
ATOM      3  C   UNL     1       3.930   7.859  17.670  0.00  0.00    +0.000 C 
ATOM      4  C   UNL     1       4.115   6.591  16.867  0.00  0.00    +0.000 C 
ATOM      5  C   UNL     1       4.440   5.425  17.798  0.00  0.00    +0.000 C 
ATOM      6  C   UNL     1       5.883   5.527  18.317  0.00  0.00    +0.000 C 
ATOM      7  N   UNL     1       3.478   5.301  18.907  0.00  0.00    +0.000 N 
ATOM      8  C   UNL     1       2.687   6.357  19.355  0.00  0.00    +0.000 A 
ATOM      9  N   UNL     1       1.906   6.281  20.390  0.00  0.00    +0.000 NA
ATOM     10  C   UNL     1       1.870   5.086  21.067  0.00  0.00    +0.000 A 
ATOM     11  C   UNL     1       2.560   3.986  20.741  0.00  0.00    +0.000 A 
ATOM     12  C   UNL     1       3.434   4.083  19.567  0.00  0.00    +0.000 A 
ATOM     13  O   UNL     1       4.090   3.090  19.232  0.00  0.00    +0.000 OA
ENDROOT
BRANCH   1  14
ATOM     14  N   UNL     1       0.745   8.527  19.307  0.00  0.00    +0.000 N 
ATOM     15  H   UNL     1       0.460   7.646  19.743  0.00  0.00    +0.000 HD
BRANCH  14  21
ATOM     16  C   UNL     1      -1.923  13.142  21.498  0.00  0.00    +0.000 C 
ATOM     17  C   UNL     1      -1.209  11.953  20.934  0.00  0.00    +0.000 A 
ATOM     18  C   UNL     1      -0.283  11.224  21.675  0.00  0.00    +0.000 A 
ATOM     19  C   UNL     1       0.381  10.111  21.118  0.00  0.00    +0.000 A 
ATOM     20  C   UNL     1       1.336   9.349  22.003  0.00  0.00    +0.000 C 
ATOM     21  C   UNL     1       0.121   9.706  19.779  0.00  0.00    +0.000 A 
ATOM     22  C   UNL     1      -0.824  10.452  19.032  0.00  0.00    +0.000 A 
ATOM     23  C   UNL     1      -1.194  10.224  17.589  0.00  0.00    +0.000 C 
ATOM     24  C   UNL     1      -1.465  11.561  19.621  0.00  0.00    +0.000 A 
ENDBRANCH  14  21
ENDBRANCH   1  14
BRANCH  11  25
ATOM     25  C   UNL     1       2.422   2.769  21.569  0.00  0.00    +0.000 C 
ATOM     26  O   UNL     1       1.373   2.435  22.098  0.00  0.00    +0.000 OA
BRANCH  25  27
ATOM     27  O   UNL     1       3.553   2.043  21.706  0.00  0.00    +0.000 OA
ATOM     28  H   UNL     1       3.994   1.796  20.858  0.00  0.00    +0.000 HD
ENDBRANCH  25  27
ENDBRANCH  11  25
TORSDOF 4
ENDMDL
MODEL 5
REMARK VINA RESULT:      -7.3      1.929      3.687
REMARK  Name = 
REMARK  8 active torsions:
REMARK  status: ('A' for Active; 'I' for Inactive)
REMARK    1  A    between atoms: C_1  and  C_2
REMARK    2  A    between atoms: C_4  and  C_5
REMARK    3  A    between atoms: C_6  and  N_7
REMARK    4  A    between atoms: N_7  and  N_8
REMARK    5  A    between atoms: C_12  and  C_13
REMARK    6  A    between atoms: C_18  and  C_19
REMARK    7  A    between atoms: C_19  and  O_21
REMARK    8  A    between atoms: C_24  and  C_25
REMARK                            x       y       z     vdW  Elec       q    Type
REMARK                         _______ _______ _______ _____ _____    ______ ____
ROOT
ATOM      1  N   UNL     1       2.443   8.433  18.115  0.00  0.00    +0.000 NA
ATOM      2  C   UNL     1       3.202   7.389  18.229  0.00  0.00    +0.000 C 
ATOM      3  C   UNL     1       4.425   7.357  17.358  0.00  0.00    +0.000 C 
ATOM      4  C   UNL     1       4.452   6.013  16.667  0.00  0.00    +0.000 C 
ATOM      5  C   UNL     1       4.608   4.897  17.697  0.00  0.00    +0.000 C 
ATOM      6  C   UNL     1       6.045   4.853  18.242  0.00  0.00    +0.000 C 
ATOM      7  N   UNL     1       3.623   4.992  18.789  0.00  0.00    +0.000 N 
ATOM      8  C   UNL     1       2.971   6.176  19.129  0.00  0.00    +0.000 A 
ATOM      9  N   UNL     1       2.173   6.289  20.147  0.00  0.00    +0.000 NA
ATOM     10  C   UNL     1       1.970   5.170  20.918  0.00  0.00    +0.000 A 
ATOM     11  C   UNL     1       2.514   3.967  20.700  0.00  0.00    +0.000 A 
ATOM     12  C   UNL     1       3.409   3.850  19.543  0.00  0.00    +0.000 A 
ATOM     13  O   UNL     1       3.934   2.755  19.307  0.00  0.00    +0.000 OA
ENDROOT
BRANCH   1  14
ATOM     14  N   UNL     1       1.332   8.568  18.856  0.00  0.00    +0.000 N 
ATOM     15  H   UNL     1       0.760   7.757  19.105  0.00  0.00    +0.000 HD
BRANCH  14  21
ATOM     16  C   UNL     1      -0.021  13.379  21.728  0.00  0.00    +0.000 C 
ATOM     17  C   UNL     1       0.341  12.121  21.000  0.00  0.00    +0.000 A 
ATOM     18  C   UNL     1      -0.006  10.861  21.481  0.00  0.00    +0.000 A 
ATOM     19  C   UNL     1       0.352   9.690  20.780  0.00  0.00    +0.000 A 
ATOM     20  C   UNL     1      -0.101   8.367  21.346  0.00  0.00    +0.000 C 
ATOM     21  C   UNL     1       1.084   9.769  19.563  0.00  0.00    +0.000 A 
ATOM     22  C   UNL     1       1.432  11.054  19.079  0.00  0.00    +0.000 A 
ATOM     23  C   UNL     1       2.250  11.348  17.848  0.00  0.00    +0.000 C 
ATOM     24  C   UNL     1       1.059  12.202  19.809  0.00  0.00    +0.000 A 
ENDBRANCH  14  21
ENDBRANCH   1  14
BRANCH  11  25
ATOM     25  C   UNL     1       2.205   2.852  21.620  0.00  0.00    +0.000 C 
ATOM     26  O   UNL     1       1.085   2.632  22.053  0.00  0.00    +0.000 OA
BRANCH  25  27
ATOM     27  O   UNL     1       3.264   2.083  21.958  0.00  0.00    +0.000 OA
ATOM     28  H   UNL     1       3.142   1.543  22.775  0.00  0.00    +0.000 HD
ENDBRANCH  25  27
ENDBRANCH  11  25
TORSDOF 4
ENDMDL
MODEL 6
REMARK VINA RESULT:      -7.2      1.815      3.923
REMARK  Name = 
REMARK  8 active torsions:
REMARK  status: ('A' for Active; 'I' for Inactive)
REMARK    1  A    between atoms: C_1  and  C_2
REMARK    2  A    between atoms: C_4  and  C_5
REMARK    3  A    between atoms: C_6  and  N_7
REMARK    4  A    between atoms: N_7  and  N_8
REMARK    5  A    between atoms: C_12  and  C_13
REMARK    6  A    between atoms: C_18  and  C_19
REMARK    7  A    between atoms: C_19  and  O_21
REMARK    8  A    between atoms: C_24  and  C_25
REMARK                            x       y       z     vdW  Elec       q    Type
REMARK                         _______ _______ _______ _____ _____    ______ ____
ROOT
ATOM      1  N   UNL     1       1.882   8.552  18.404  0.00  0.00    +0.000 NA
ATOM      2  C   UNL     1       2.788   7.629  18.478  0.00  0.00    +0.000 C 
ATOM      3  C   UNL     1       4.020   7.838  17.647  0.00  0.00    +0.000 C 
ATOM      4  C   UNL     1       4.267   6.561  16.876  0.00  0.00    +0.000 C 
ATOM      5  C   UNL     1       4.567   5.416  17.840  0.00  0.00    +0.000 C 
ATOM      6  C   UNL     1       5.982   5.553  18.428  0.00  0.00    +0.000 C 
ATOM      7  N   UNL     1       3.555   5.291  18.904  0.00  0.00    +0.000 N 
ATOM      8  C   UNL     1       2.723   6.339  19.294  0.00  0.00    +0.000 A 
ATOM      9  N   UNL     1       1.894   6.264  20.292  0.00  0.00    +0.000 NA
ATOM     10  C   UNL     1       1.847   5.079  20.985  0.00  0.00    +0.000 A 
ATOM     11  C   UNL     1       2.572   3.988  20.712  0.00  0.00    +0.000 A 
ATOM     12  C   UNL     1       3.500   4.083  19.580  0.00  0.00    +0.000 A 
ATOM     13  O   UNL     1       4.190   3.097  19.294  0.00  0.00    +0.000 OA
ENDROOT
BRANCH   1  14
ATOM     14  N   UNL     1       0.747   8.470  19.116  0.00  0.00    +0.000 N 
ATOM     15  H   UNL     1       0.365   7.565  19.401  0.00  0.00    +0.000 HD
BRANCH  14  21
ATOM     16  C   UNL     1      -1.308  13.339  21.417  0.00  0.00    +0.000 C 
ATOM     17  C   UNL     1      -0.795  12.067  20.816  0.00  0.00    +0.000 A 
ATOM     18  C   UNL     1      -1.166  11.648  19.540  0.00  0.00    +0.000 A 
ATOM     19  C   UNL     1      -0.674  10.442  18.998  0.00  0.00    +0.000 A 
ATOM     20  C   UNL     1      -1.089  10.085  17.592  0.00  0.00    +0.000 C 
ATOM     21  C   UNL     1       0.213   9.619  19.747  0.00  0.00    +0.000 A 
ATOM     22  C   UNL     1       0.585  10.052  21.043  0.00  0.00    +0.000 A 
ATOM     23  C   UNL     1       1.461   9.300  22.012  0.00  0.00    +0.000 C 
ATOM     24  C   UNL     1       0.071  11.262  21.552  0.00  0.00    +0.000 A 
ENDBRANCH  14  21
ENDBRANCH   1  14
BRANCH  11  25
ATOM     25  C   UNL     1       2.415   2.781  21.551  0.00  0.00    +0.000 C 
ATOM     26  O   UNL     1       1.361   2.468  22.083  0.00  0.00    +0.000 OA
BRANCH  25  27
ATOM     27  O   UNL     1       3.535   2.040  21.697  0.00  0.00    +0.000 OA
ATOM     28  H   UNL     1       4.373   2.559  21.754  0.00  0.00    +0.000 HD
ENDBRANCH  25  27
ENDBRANCH  11  25
TORSDOF 4
ENDMDL
MODEL 7
REMARK VINA RESULT:      -6.9      8.120     11.007
REMARK  Name = 
REMARK  8 active torsions:
REMARK  status: ('A' for Active; 'I' for Inactive)
REMARK    1  A    between atoms: C_1  and  C_2
REMARK    2  A    between atoms: C_4  and  C_5
REMARK    3  A    between atoms: C_6  and  N_7
REMARK    4  A    between atoms: N_7  and  N_8
REMARK    5  A    between atoms: C_12  and  C_13
REMARK    6  A    between atoms: C_18  and  C_19
REMARK    7  A    between atoms: C_19  and  O_21
REMARK    8  A    between atoms: C_24  and  C_25
REMARK                            x       y       z     vdW  Elec       q    Type
REMARK                         _______ _______ _______ _____ _____    ______ ____
ROOT
ATOM      1  N   UNL     1      -2.245  11.995  19.502  0.00  0.00    +0.000 NA
ATOM      2  C   UNL     1      -2.306  12.509  20.689  0.00  0.00    +0.000 C 
ATOM      3  C   UNL     1      -1.007  12.977  21.279  0.00  0.00    +0.000 C 
ATOM      4  C   UNL     1      -0.905  12.393  22.670  0.00  0.00    +0.000 C 
ATOM      5  C   UNL     1      -2.022  12.945  23.553  0.00  0.00    +0.000 C 
ATOM      6  C   UNL     1      -1.738  14.404  23.945  0.00  0.00    +0.000 C 
ATOM      7  N   UNL     1      -3.353  12.805  22.937  0.00  0.00    +0.000 N 
ATOM      8  C   UNL     1      -3.549  12.661  21.564  0.00  0.00    +0.000 A 
ATOM      9  N   UNL     1      -4.721  12.630  21.006  0.00  0.00    +0.000 NA
ATOM     10  C   UNL     1      -5.816  12.744  21.828  0.00  0.00    +0.000 A 
ATOM     11  C   UNL     1      -5.778  12.869  23.160  0.00  0.00    +0.000 A 
ATOM     12  C   UNL     1      -4.449  12.897  23.780  0.00  0.00    +0.000 A 
ATOM     13  O   UNL     1      -4.369  13.013  25.009  0.00  0.00    +0.000 OA
ENDROOT
BRANCH   1  14
ATOM     14  N   UNL     1      -3.349  11.556  18.877  0.00  0.00    +0.000 N 
ATOM     15  H   UNL     1      -4.279  11.704  19.278  0.00  0.00    +0.000 HD
BRANCH  14  21
ATOM     16  C   UNL     1      -3.434   9.761  13.400  0.00  0.00    +0.000 C 
ATOM     17  C   UNL     1      -3.414  10.250  14.816  0.00  0.00    +0.000 A 
ATOM     18  C   UNL     1      -4.424  11.054  15.338  0.00  0.00    +0.000 A 
ATOM     19  C   UNL     1      -4.379  11.506  16.673  0.00  0.00    +0.000 A 
ATOM     20  C   UNL     1      -5.535  12.336  17.172  0.00  0.00    +0.000 C 
ATOM     21  C   UNL     1      -3.293  11.153  17.522  0.00  0.00    +0.000 A 
ATOM     22  C   UNL     1      -2.270  10.334  16.985  0.00  0.00    +0.000 A 
ATOM     23  C   UNL     1      -1.014   9.900  17.697  0.00  0.00    +0.000 C 
ATOM     24  C   UNL     1      -2.348   9.904  15.644  0.00  0.00    +0.000 A 
ENDBRANCH  14  21
ENDBRANCH   1  14
BRANCH  11  25
ATOM     25  C   UNL     1      -7.044  12.986  23.915  0.00  0.00    +0.000 C 
ATOM     26  O   UNL     1      -7.916  12.133  23.894  0.00  0.00    +0.000 OA
BRANCH  25  27
ATOM     27  O   UNL     1      -7.172  14.121  24.638  0.00  0.00    +0.000 OA
ATOM     28  H   UNL     1      -6.333  14.460  25.032  0.00  0.00    +0.000 HD
ENDBRANCH  25  27
ENDBRANCH  11  25
TORSDOF 4
ENDMDL
MODEL 8
REMARK VINA RESULT:      -6.9      4.454      8.009
REMARK  Name = 
REMARK  8 active torsions:
REMARK  status: ('A' for Active; 'I' for Inactive)
REMARK    1  A    between atoms: C_1  and  C_2
REMARK    2  A    between atoms: C_4  and  C_5
REMARK    3  A    between atoms: C_6  and  N_7
REMARK    4  A    between atoms: N_7  and  N_8
REMARK    5  A    between atoms: C_12  and  C_13
REMARK    6  A    between atoms: C_18  and  C_19
REMARK    7  A    between atoms: C_19  and  O_21
REMARK    8  A    between atoms: C_24  and  C_25
REMARK                            x       y       z     vdW  Elec       q    Type
REMARK                         _______ _______ _______ _____ _____    ______ ____
ROOT
ATOM      1  N   UNL     1       2.165   7.700  20.303  0.00  0.00    +0.000 NA
ATOM      2  C   UNL     1       1.409   8.710  20.598  0.00  0.00    +0.000 C 
ATOM      3  C   UNL     1       1.496   9.217  22.008  0.00  0.00    +0.000 C 
ATOM      4  C   UNL     1       0.083   9.337  22.533  0.00  0.00    +0.000 C 
ATOM      5  C   UNL     1      -0.687  10.382  21.729  0.00  0.00    +0.000 C 
ATOM      6  C   UNL     1      -0.231  11.803  22.101  0.00  0.00    +0.000 C 
ATOM      7  N   UNL     1      -0.602  10.155  20.276  0.00  0.00    +0.000 N 
ATOM      8  C   UNL     1       0.418   9.419  19.676  0.00  0.00    +0.000 A 
ATOM      9  N   UNL     1       0.551   9.292  18.390  0.00  0.00    +0.000 NA
ATOM     10  C   UNL     1      -0.374   9.923  17.594  0.00  0.00    +0.000 A 
ATOM     11  C   UNL     1      -1.412  10.646  18.032  0.00  0.00    +0.000 A 
ATOM     12  C   UNL     1      -1.555  10.777  19.486  0.00  0.00    +0.000 A 
ATOM     13  O   UNL     1      -2.501  11.438  19.932  0.00  0.00    +0.000 OA
ENDROOT
BRANCH   1  14
ATOM     14  N   UNL     1       2.174   7.177  19.067  0.00  0.00    +0.000 N 
ATOM     15  H   UNL     1       2.101   7.773  18.239  0.00  0.00    +0.000 HD
BRANCH  14  21
ATOM     16  C   UNL     1       3.787   1.773  17.876  0.00  0.00    +0.000 C 
ATOM     17  C   UNL     1       3.390   3.182  18.191  0.00  0.00    +0.000 A 
ATOM     18  C   UNL     1       4.006   4.278  17.592  0.00  0.00    +0.000 A 
ATOM     19  C   UNL     1       3.618   5.596  17.910  0.00  0.00    +0.000 A 
ATOM     20  C   UNL     1       4.305   6.725  17.182  0.00  0.00    +0.000 C 
ATOM     21  C   UNL     1       2.586   5.839  18.859  0.00  0.00    +0.000 A 
ATOM     22  C   UNL     1       1.963   4.719  19.464  0.00  0.00    +0.000 A 
ATOM     23  C   UNL     1       0.898   4.764  20.529  0.00  0.00    +0.000 C 
ATOM     24  C   UNL     1       2.381   3.416  19.122  0.00  0.00    +0.000 A 
ENDBRANCH  14  21
ENDBRANCH   1  14
BRANCH  11  25
ATOM     25  C   UNL     1      -2.327  11.271  17.053  0.00  0.00    +0.000 C 
ATOM     26  O   UNL     1      -2.396  10.923  15.885  0.00  0.00    +0.000 OA
BRANCH  25  27
ATOM     27  O   UNL     1      -3.089  12.272  17.545  0.00  0.00    +0.000 OA
ATOM     28  H   UNL     1      -2.620  12.889  18.156  0.00  0.00    +0.000 HD
ENDBRANCH  25  27
ENDBRANCH  11  25
TORSDOF 4
ENDMDL
MODEL 9
REMARK VINA RESULT:      -6.9      4.590      8.109
REMARK  Name = 
REMARK  8 active torsions:
REMARK  status: ('A' for Active; 'I' for Inactive)
REMARK    1  A    between atoms: C_1  and  C_2
REMARK    2  A    between atoms: C_4  and  C_5
REMARK    3  A    between atoms: C_6  and  N_7
REMARK    4  A    between atoms: N_7  and  N_8
REMARK    5  A    between atoms: C_12  and  C_13
REMARK    6  A    between atoms: C_18  and  C_19
REMARK    7  A    between atoms: C_19  and  O_21
REMARK    8  A    between atoms: C_24  and  C_25
REMARK                            x       y       z     vdW  Elec       q    Type
REMARK                         _______ _______ _______ _____ _____    ______ ____
ROOT
ATOM      1  N   UNL     1       1.536   8.051  20.946  0.00  0.00    +0.000 NA
ATOM      2  C   UNL     1       0.905   9.178  21.053  0.00  0.00    +0.000 C 
ATOM      3  C   UNL     1       1.091   9.925  22.341  0.00  0.00    +0.000 C 
ATOM      4  C   UNL     1      -0.283  10.302  22.848  0.00  0.00    +0.000 C 
ATOM      5  C   UNL     1      -0.957  11.260  21.869  0.00  0.00    +0.000 C 
ATOM      6  C   UNL     1      -0.336  12.663  21.961  0.00  0.00    +0.000 C 
ATOM      7  N   UNL     1      -0.943  10.758  20.484  0.00  0.00    +0.000 N 
ATOM      8  C   UNL     1      -0.029   9.811  20.023  0.00  0.00    +0.000 A 
ATOM      9  N   UNL     1       0.049   9.432  18.783  0.00  0.00    +0.000 NA
ATOM     10  C   UNL     1      -0.825  10.005  17.892  0.00  0.00    +0.000 A 
ATOM     11  C   UNL     1      -1.763  10.911  18.195  0.00  0.00    +0.000 A 
ATOM     12  C   UNL     1      -1.846  11.326  19.600  0.00  0.00    +0.000 A 
ATOM     13  O   UNL     1      -2.698  12.163  19.922  0.00  0.00    +0.000 OA
ENDROOT
BRANCH   1  14
ATOM     14  N   UNL     1       1.449   7.310  19.832  0.00  0.00    +0.000 N 
ATOM     15  H   UNL     1       0.671   7.424  19.177  0.00  0.00    +0.000 HD
BRANCH  14  21
ATOM     16  C   UNL     1       5.857   4.309  17.643  0.00  0.00    +0.000 C 
ATOM     17  C   UNL     1       4.726   5.106  18.216  0.00  0.00    +0.000 A 
ATOM     18  C   UNL     1       4.372   6.356  17.713  0.00  0.00    +0.000 A 
ATOM     19  C   UNL     1       3.306   7.090  18.274  0.00  0.00    +0.000 A 
ATOM     20  C   UNL     1       2.959   8.415  17.642  0.00  0.00    +0.000 C 
ATOM     21  C   UNL     1       2.567   6.571  19.373  0.00  0.00    +0.000 A 
ATOM     22  C   UNL     1       2.932   5.299  19.877  0.00  0.00    +0.000 A 
ATOM     23  C   UNL     1       2.316   4.605  21.065  0.00  0.00    +0.000 C 
ATOM     24  C   UNL     1       4.006   4.596  19.293  0.00  0.00    +0.000 A 
ENDBRANCH  14  21
ENDBRANCH   1  14
BRANCH  11  25
ATOM     25  C   UNL     1      -2.633  11.443  17.125  0.00  0.00    +0.000 C 
ATOM     26  O   UNL     1      -2.431  11.244  15.937  0.00  0.00    +0.000 OA
BRANCH  25  27
ATOM     27  O   UNL     1      -3.681  12.179  17.556  0.00  0.00    +0.000 OA
ATOM     28  H   UNL     1      -4.058  11.897  18.423  0.00  0.00    +0.000 HD
ENDBRANCH  25  27
ENDBRANCH  11  25
TORSDOF 4
ENDMDL
