MODEL 1
REMARK VINA RESULT:      -6.6      0.000      0.000
REMARK  Name = 
REMARK  8 active torsions:
REMARK  status: ('A' for Active; 'I' for Inactive)
REMARK    1  A    between atoms: C_1  and  O_2
REMARK    2  A    between atoms: O_2  and  C_3
REMARK    3  A    between atoms: C_8  and  C_9
REMARK    4  A    between atoms: C_15  and  C_16
REMARK    5  A    between atoms: C_21  and  O_22
REMARK    6  A    between atoms: O_22  and  C_23
REMARK    7  A    between atoms: N_24  and  C_25
REMARK    8  A    between atoms: C_25  and  C_26
REMARK                            x       y       z     vdW  Elec       q    Type
REMARK                         _______ _______ _______ _____ _____    ______ ____
ROOT
ATOM      1  C   UNL     1      -2.408  12.720  20.025  0.00  0.00    +0.000 C 
ATOM      2  C   UNL     1      -3.592  12.838  21.061  0.00  0.00    +0.000 C 
ATOM      3  C   UNL     1      -3.386  14.136  21.816  0.00  0.00    +0.000 C 
ATOM      4  C   UNL     1      -2.515  14.851  20.850  0.00  0.00    +0.000 C 
ATOM      5  C   UNL     1      -1.949  16.199  21.137  0.00  0.00    +0.000 C 
ATOM      6  C   UNL     1      -1.198  16.428  19.841  0.00  0.00    +0.000 C 
ATOM      7  C   UNL     1      -0.657  15.025  19.373  0.00  0.00    +0.000 C 
ATOM      8  N   UNL     1      -1.396  13.904  20.348  0.00  0.00    +0.000 N 
ENDROOT
BRANCH   1  14
ATOM      9  C   UNL     1      -3.516  11.445  18.062  0.00  0.00    +0.000 A 
ATOM     10  C   UNL     1      -3.340  10.503  17.026  0.00  0.00    +0.000 A 
ATOM     11  C   UNL     1      -2.140   9.823  16.840  0.00  0.00    +0.000 A 
ATOM     12  C   UNL     1      -1.066  10.061  17.688  0.00  0.00    +0.000 A 
ATOM     13  C   UNL     1      -1.230  10.997  18.700  0.00  0.00    +0.000 A 
ATOM     14  C   UNL     1      -2.430  11.759  18.888  0.00  0.00    +0.000 A 
BRANCH   9  16
ATOM     15  C   UNL     1      -5.859  11.276  18.153  0.00  0.00    +0.000 C 
ATOM     16  O   UNL     1      -4.694  12.107  18.267  0.00  0.00    +0.000 OA
ENDBRANCH   9  16
ENDBRANCH   1  14
BRANCH   7  17
ATOM     17  C   UNL     1       0.890  15.137  19.497  0.00  0.00    +0.000 A 
ATOM     18  C   UNL     1       1.441  16.100  20.402  0.00  0.00    +0.000 A 
ATOM     19  C   UNL     1       2.728  15.984  20.924  0.00  0.00    +0.000 A 
ATOM     20  C   UNL     1       3.550  14.977  20.462  0.00  0.00    +0.000 A 
ATOM     21  C   UNL     1       3.091  14.115  19.460  0.00  0.00    +0.000 A 
ATOM     22  C   UNL     1       1.774  14.189  18.966  0.00  0.00    +0.000 A 
BRANCH  22  23
ATOM     23  O   UNL     1       1.435  13.166  18.128  0.00  0.00    +0.000 OA
ATOM     24  C   UNL     1       2.356  12.081  18.048  0.00  0.00    +0.000 C 
ENDBRANCH  22  23
ENDBRANCH   7  17
BRANCH   8  25
ATOM     25  C   UNL     1      -0.195  13.209  21.130  0.00  0.00    +0.000 C 
BRANCH  25  26
ATOM     26  C   UNL     1      -0.111  11.798  21.719  0.00  0.00    +0.000 A 
ATOM     27  C   UNL     1       0.817  10.857  21.191  0.00  0.00    +0.000 A 
ATOM     28  C   UNL     1       0.897   9.558  21.695  0.00  0.00    +0.000 A 
ATOM     29  C   UNL     1       0.042   9.168  22.719  0.00  0.00    +0.000 A 
ATOM     30  C   UNL     1      -0.866  10.083  23.256  0.00  0.00    +0.000 A 
ATOM     31  C   UNL     1      -0.921  11.396  22.781  0.00  0.00    +0.000 A 
ENDBRANCH  25  26
ENDBRANCH   8  25
TORSDOF 6
ENDMDL
MODEL 2
REMARK VINA RESULT:      -6.5      1.808      4.840
REMARK  Name = 
REMARK  8 active torsions:
REMARK  status: ('A' for Active; 'I' for Inactive)
REMARK    1  A    between atoms: C_1  and  O_2
REMARK    2  A    between atoms: O_2  and  C_3
REMARK    3  A    between atoms: C_8  and  C_9
REMARK    4  A    between atoms: C_15  and  C_16
REMARK    5  A    between atoms: C_21  and  O_22
REMARK    6  A    between atoms: O_22  and  C_23
REMARK    7  A    between atoms: N_24  and  C_25
REMARK    8  A    between atoms: C_25  and  C_26
REMARK                            x       y       z     vdW  Elec       q    Type
REMARK                         _______ _______ _______ _____ _____    ______ ____
ROOT
ATOM      1  C   UNL     1      -2.012  11.469  19.219  0.00  0.00    +0.000 C 
ATOM      2  C   UNL     1      -0.906  10.446  18.752  0.00  0.00    +0.000 C 
ATOM      3  C   UNL     1       0.062  10.290  19.908  0.00  0.00    +0.000 C 
ATOM      4  C   UNL     1      -0.805  10.748  21.023  0.00  0.00    +0.000 C 
ATOM      5  C   UNL     1      -0.309  10.855  22.424  0.00  0.00    +0.000 C 
ATOM      6  C   UNL     1      -1.582  11.325  23.097  0.00  0.00    +0.000 C 
ATOM      7  C   UNL     1      -2.331  12.249  22.064  0.00  0.00    +0.000 C 
ATOM      8  N   UNL     1      -1.537  12.053  20.619  0.00  0.00    +0.000 N 
ENDROOT
BRANCH   1  14
ATOM      9  C   UNL     1      -3.531  11.502  17.121  0.00  0.00    +0.000 A 
ATOM     10  C   UNL     1      -4.835  11.700  16.619  0.00  0.00    +0.000 A 
ATOM     11  C   UNL     1      -5.890  12.095  17.436  0.00  0.00    +0.000 A 
ATOM     12  C   UNL     1      -5.680  12.309  18.792  0.00  0.00    +0.000 A 
ATOM     13  C   UNL     1      -4.401  12.101  19.293  0.00  0.00    +0.000 A 
ATOM     14  C   UNL     1      -3.303  11.639  18.496  0.00  0.00    +0.000 A 
BRANCH   9  16
ATOM     15  C   UNL     1      -2.852  10.298  15.219  0.00  0.00    +0.000 C 
ATOM     16  O   UNL     1      -2.482  11.131  16.327  0.00  0.00    +0.000 OA
ENDBRANCH   9  16
ENDBRANCH   1  14
BRANCH   7  17
ATOM     17  C   UNL     1      -2.279  13.670  22.695  0.00  0.00    +0.000 A 
ATOM     18  C   UNL     1      -1.116  14.052  23.438  0.00  0.00    +0.000 A 
ATOM     19  C   UNL     1      -0.764  15.386  23.643  0.00  0.00    +0.000 A 
ATOM     20  C   UNL     1      -1.628  16.377  23.225  0.00  0.00    +0.000 A 
ATOM     21  C   UNL     1      -2.848  16.029  22.636  0.00  0.00    +0.000 A 
ATOM     22  C   UNL     1      -3.187  14.688  22.373  0.00  0.00    +0.000 A 
BRANCH  22  23
ATOM     23  O   UNL     1      -4.325  14.534  21.634  0.00  0.00    +0.000 OA
ATOM     24  C   UNL     1      -4.630  15.582  20.717  0.00  0.00    +0.000 C 
ENDBRANCH  22  23
ENDBRANCH   7  17
BRANCH   8  25
ATOM     25  C   UNL     1      -0.967  13.502  20.283  0.00  0.00    +0.000 C 
BRANCH  25  26
ATOM     26  C   UNL     1       0.479  13.939  20.030  0.00  0.00    +0.000 A 
ATOM     27  C   UNL     1       0.799  14.724  18.888  0.00  0.00    +0.000 A 
ATOM     28  C   UNL     1       2.113  15.115  18.623  0.00  0.00    +0.000 A 
ATOM     29  C   UNL     1       3.131  14.715  19.479  0.00  0.00    +0.000 A 
ATOM     30  C   UNL     1       2.832  13.954  20.610  0.00  0.00    +0.000 A 
ATOM     31  C   UNL     1       1.513  13.594  20.901  0.00  0.00    +0.000 A 
ENDBRANCH  25  26
ENDBRANCH   8  25
TORSDOF 6
ENDMDL
MODEL 3
REMARK VINA RESULT:      -6.3      2.059      6.044
REMARK  Name = 
REMARK  8 active torsions:
REMARK  status: ('A' for Active; 'I' for Inactive)
REMARK    1  A    between atoms: C_1  and  O_2
REMARK    2  A    between atoms: O_2  and  C_3
REMARK    3  A    between atoms: C_8  and  C_9
REMARK    4  A    between atoms: C_15  and  C_16
REMARK    5  A    between atoms: C_21  and  O_22
REMARK    6  A    between atoms: O_22  and  C_23
REMARK    7  A    between atoms: N_24  and  C_25
REMARK    8  A    between atoms: C_25  and  C_26
REMARK                            x       y       z     vdW  Elec       q    Type
REMARK                         _______ _______ _______ _____ _____    ______ ____
ROOT
ATOM      1  C   UNL     1      -0.539  12.020  20.075  0.00  0.00    +0.000 C 
ATOM      2  C   UNL     1       0.401  12.442  18.880  0.00  0.00    +0.000 C 
ATOM      3  C   UNL     1      -0.064  13.808  18.418  0.00  0.00    +0.000 C 
ATOM      4  C   UNL     1      -0.786  14.251  19.638  0.00  0.00    +0.000 C 
ATOM      5  C   UNL     1      -1.514  15.550  19.703  0.00  0.00    +0.000 C 
ATOM      6  C   UNL     1      -2.009  15.479  21.133  0.00  0.00    +0.000 C 
ATOM      7  C   UNL     1      -2.321  13.965  21.434  0.00  0.00    +0.000 C 
ATOM      8  N   UNL     1      -1.694  13.109  20.157  0.00  0.00    +0.000 N 
ENDROOT
BRANCH   1  14
ATOM      9  C   UNL     1       0.475   9.717  20.689  0.00  0.00    +0.000 A 
ATOM     10  C   UNL     1       0.699   8.768  21.710  0.00  0.00    +0.000 A 
ATOM     11  C   UNL     1       0.205   8.937  22.999  0.00  0.00    +0.000 A 
ATOM     12  C   UNL     1      -0.536  10.067  23.319  0.00  0.00    +0.000 A 
ATOM     13  C   UNL     1      -0.747  11.011  22.322  0.00  0.00    +0.000 A 
ATOM     14  C   UNL     1      -0.207  10.900  21.000  0.00  0.00    +0.000 A 
BRANCH   9  16
ATOM     15  C   UNL     1       1.847   8.455  19.257  0.00  0.00    +0.000 C 
ATOM     16  O   UNL     1       0.939   9.555  19.414  0.00  0.00    +0.000 OA
ENDBRANCH   9  16
ENDBRANCH   1  14
BRANCH   7  17
ATOM     17  C   UNL     1      -3.865  13.908  21.614  0.00  0.00    +0.000 A 
ATOM     18  C   UNL     1      -4.695  14.597  20.672  0.00  0.00    +0.000 A 
ATOM     19  C   UNL     1      -6.030  14.255  20.461  0.00  0.00    +0.000 A 
ATOM     20  C   UNL     1      -6.613  13.303  21.271  0.00  0.00    +0.000 A 
ATOM     21  C   UNL     1      -5.868  12.725  22.305  0.00  0.00    +0.000 A 
ATOM     22  C   UNL     1      -4.504  13.022  22.492  0.00  0.00    +0.000 A 
BRANCH  22  23
ATOM     23  O   UNL     1      -3.886  12.241  23.425  0.00  0.00    +0.000 OA
ATOM     24  C   UNL     1      -4.412  12.298  24.748  0.00  0.00    +0.000 C 
ENDBRANCH  22  23
ENDBRANCH   7  17
BRANCH   8  25
ATOM     25  C   UNL     1      -2.962  12.407  19.494  0.00  0.00    +0.000 C 
BRANCH  25  26
ATOM     26  C   UNL     1      -3.043  11.557  18.222  0.00  0.00    +0.000 A 
ATOM     27  C   UNL     1      -2.071  10.548  17.974  0.00  0.00    +0.000 A 
ATOM     28  C   UNL     1      -2.111   9.776  16.812  0.00  0.00    +0.000 A 
ATOM     29  C   UNL     1      -3.105  10.009  15.869  0.00  0.00    +0.000 A 
ATOM     30  C   UNL     1      -4.072  10.988  16.103  0.00  0.00    +0.000 A 
ATOM     31  C   UNL     1      -4.060  11.736  17.284  0.00  0.00    +0.000 A 
ENDBRANCH  25  26
ENDBRANCH   8  25
TORSDOF 6
ENDMDL
MODEL 4
REMARK VINA RESULT:      -6.3      1.722      4.743
REMARK  Name = 
REMARK  8 active torsions:
REMARK  status: ('A' for Active; 'I' for Inactive)
REMARK    1  A    between atoms: C_1  and  O_2
REMARK    2  A    between atoms: O_2  and  C_3
REMARK    3  A    between atoms: C_8  and  C_9
REMARK    4  A    between atoms: C_15  and  C_16
REMARK    5  A    between atoms: C_21  and  O_22
REMARK    6  A    between atoms: O_22  and  C_23
REMARK    7  A    between atoms: N_24  and  C_25
REMARK    8  A    between atoms: C_25  and  C_26
REMARK                            x       y       z     vdW  Elec       q    Type
REMARK                         _______ _______ _______ _____ _____    ______ ____
ROOT
ATOM      1  C   UNL     1      -2.011  11.376  18.774  0.00  0.00    +0.000 C 
ATOM      2  C   UNL     1      -1.008  10.303  18.198  0.00  0.00    +0.000 C 
ATOM      3  C   UNL     1       0.155  10.226  19.168  0.00  0.00    +0.000 C 
ATOM      4  C   UNL     1      -0.495  10.785  20.381  0.00  0.00    +0.000 C 
ATOM      5  C   UNL     1       0.249  10.997  21.655  0.00  0.00    +0.000 C 
ATOM      6  C   UNL     1      -0.880  11.538  22.507  0.00  0.00    +0.000 C 
ATOM      7  C   UNL     1      -1.805  12.386  21.556  0.00  0.00    +0.000 C 
ATOM      8  N   UNL     1      -1.288  12.063  20.012  0.00  0.00    +0.000 N 
ENDROOT
BRANCH   1  14
ATOM      9  C   UNL     1      -3.862  11.425  16.963  0.00  0.00    +0.000 A 
ATOM     10  C   UNL     1      -5.241  11.571  16.698  0.00  0.00    +0.000 A 
ATOM     11  C   UNL     1      -6.161  11.861  17.700  0.00  0.00    +0.000 A 
ATOM     12  C   UNL     1      -5.735  12.018  19.013  0.00  0.00    +0.000 A 
ATOM     13  C   UNL     1      -4.382  11.860  19.282  0.00  0.00    +0.000 A 
ATOM     14  C   UNL     1      -3.413  11.505  18.287  0.00  0.00    +0.000 A 
BRANCH   9  16
ATOM     15  C   UNL     1      -3.323  10.089  15.105  0.00  0.00    +0.000 C 
ATOM     16  O   UNL     1      -2.946  11.158  15.986  0.00  0.00    +0.000 OA
ENDBRANCH   9  16
ENDBRANCH   1  14
BRANCH   7  17
ATOM     17  C   UNL     1      -1.640  13.852  22.049  0.00  0.00    +0.000 A 
ATOM     18  C   UNL     1      -0.417  14.230  22.691  0.00  0.00    +0.000 A 
ATOM     19  C   UNL     1       0.018  15.553  22.753  0.00  0.00    +0.000 A 
ATOM     20  C   UNL     1      -0.813  16.553  22.291  0.00  0.00    +0.000 A 
ATOM     21  C   UNL     1      -2.083  16.226  21.802  0.00  0.00    +0.000 A 
ATOM     22  C   UNL     1      -2.509  14.889  21.683  0.00  0.00    +0.000 A 
BRANCH  22  23
ATOM     23  O   UNL     1      -3.694  14.738  21.023  0.00  0.00    +0.000 OA
ATOM     24  C   UNL     1      -4.878  14.934  21.794  0.00  0.00    +0.000 C 
ENDBRANCH  22  23
ENDBRANCH   7  17
BRANCH   8  25
ATOM     25  C   UNL     1      -0.790  13.472  19.461  0.00  0.00    +0.000 C 
BRANCH  25  26
ATOM     26  C   UNL     1       0.627  13.922  19.094  0.00  0.00    +0.000 A 
ATOM     27  C   UNL     1       1.544  12.998  18.522  0.00  0.00    +0.000 A 
ATOM     28  C   UNL     1       2.849  13.378  18.200  0.00  0.00    +0.000 A 
ATOM     29  C   UNL     1       3.267  14.677  18.461  0.00  0.00    +0.000 A 
ATOM     30  C   UNL     1       2.375  15.599  19.012  0.00  0.00    +0.000 A 
ATOM     31  C   UNL     1       1.057  15.234  19.298  0.00  0.00    +0.000 A 
ENDBRANCH  25  26
ENDBRANCH   8  25
TORSDOF 6
ENDMDL
MODEL 5
REMARK VINA RESULT:      -6.2      7.485     11.108
REMARK  Name = 
REMARK  8 active torsions:
REMARK  status: ('A' for Active; 'I' for Inactive)
REMARK    1  A    between atoms: C_1  and  O_2
REMARK    2  A    between atoms: O_2  and  C_3
REMARK    3  A    between atoms: C_8  and  C_9
REMARK    4  A    between atoms: C_15  and  C_16
REMARK    5  A    between atoms: C_21  and  O_22
REMARK    6  A    between atoms: O_22  and  C_23
REMARK    7  A    between atoms: N_24  and  C_25
REMARK    8  A    between atoms: C_25  and  C_26
REMARK                            x       y       z     vdW  Elec       q    Type
REMARK                         _______ _______ _______ _____ _____    ______ ____
ROOT
ATOM      1  C   UNL     1       8.392  15.422  19.099  0.00  0.00    +0.000 C 
ATOM      2  C   UNL     1       7.643  15.415  17.711  0.00  0.00    +0.000 C 
ATOM      3  C   UNL     1       6.229  14.938  17.978  0.00  0.00    +0.000 C 
ATOM      4  C   UNL     1       6.137  15.235  19.430  0.00  0.00    +0.000 C 
ATOM      5  C   UNL     1       4.931  14.891  20.237  0.00  0.00    +0.000 C 
ATOM      6  C   UNL     1       5.378  15.430  21.581  0.00  0.00    +0.000 C 
ATOM      7  C   UNL     1       6.932  15.198  21.673  0.00  0.00    +0.000 C 
ATOM      8  N   UNL     1       7.415  14.740  20.152  0.00  0.00    +0.000 N 
ENDROOT
BRANCH   1  14
ATOM      9  C   UNL     1       9.927  17.241  20.122  0.00  0.00    +0.000 A 
ATOM     10  C   UNL     1      11.233  17.770  20.192  0.00  0.00    +0.000 A 
ATOM     11  C   UNL     1      12.279  17.264  19.427  0.00  0.00    +0.000 A 
ATOM     12  C   UNL     1      12.057  16.205  18.555  0.00  0.00    +0.000 A 
ATOM     13  C   UNL     1      10.776  15.672  18.493  0.00  0.00    +0.000 A 
ATOM     14  C   UNL     1       9.688  16.127  19.308  0.00  0.00    +0.000 A 
BRANCH   9  16
ATOM     15  C   UNL     1       9.286  18.629  21.908  0.00  0.00    +0.000 C 
ATOM     16  O   UNL     1       8.887  17.739  20.855  0.00  0.00    +0.000 OA
ENDBRANCH   9  16
ENDBRANCH   1  14
BRANCH   7  17
ATOM     17  C   UNL     1       7.108  14.141  22.801  0.00  0.00    +0.000 A 
ATOM     18  C   UNL     1       6.096  13.143  22.974  0.00  0.00    +0.000 A 
ATOM     19  C   UNL     1       6.348  11.925  23.606  0.00  0.00    +0.000 A 
ATOM     20  C   UNL     1       7.577  11.720  24.197  0.00  0.00    +0.000 A 
ATOM     21  C   UNL     1       8.532  12.742  24.181  0.00  0.00    +0.000 A 
ATOM     22  C   UNL     1       8.309  13.953  23.498  0.00  0.00    +0.000 A 
BRANCH  22  23
ATOM     23  O   UNL     1       9.405  14.764  23.428  0.00  0.00    +0.000 OA
ATOM     24  C   UNL     1       9.480  15.811  24.393  0.00  0.00    +0.000 C 
ENDBRANCH  22  23
ENDBRANCH   7  17
BRANCH   8  25
ATOM     25  C   UNL     1       7.993  13.268  20.349  0.00  0.00    +0.000 C 
BRANCH  25  26
ATOM     26  C   UNL     1       9.293  12.660  19.814  0.00  0.00    +0.000 A 
ATOM     27  C   UNL     1      10.464  12.655  20.622  0.00  0.00    +0.000 A 
ATOM     28  C   UNL     1      11.667  12.127  20.149  0.00  0.00    +0.000 A 
ATOM     29  C   UNL     1      11.728  11.613  18.859  0.00  0.00    +0.000 A 
ATOM     30  C   UNL     1      10.585  11.600  18.059  0.00  0.00    +0.000 A 
ATOM     31  C   UNL     1       9.369  12.092  18.543  0.00  0.00    +0.000 A 
ENDBRANCH  25  26
ENDBRANCH   8  25
TORSDOF 6
ENDMDL
MODEL 6
REMARK VINA RESULT:      -6.2      2.013      5.232
REMARK  Name = 
REMARK  8 active torsions:
REMARK  status: ('A' for Active; 'I' for Inactive)
REMARK    1  A    between atoms: C_1  and  O_2
REMARK    2  A    between atoms: O_2  and  C_3
REMARK    3  A    between atoms: C_8  and  C_9
REMARK    4  A    between atoms: C_15  and  C_16
REMARK    5  A    between atoms: C_21  and  O_22
REMARK    6  A    between atoms: O_22  and  C_23
REMARK    7  A    between atoms: N_24  and  C_25
REMARK    8  A    between atoms: C_25  and  C_26
REMARK                            x       y       z     vdW  Elec       q    Type
REMARK                         _______ _______ _______ _____ _____    ______ ____
ROOT
ATOM      1  C   UNL     1      -0.758  13.878  19.201  0.00  0.00    +0.000 C 
ATOM      2  C   UNL     1      -0.958  12.607  18.287  0.00  0.00    +0.000 C 
ATOM      3  C   UNL     1      -2.194  11.892  18.795  0.00  0.00    +0.000 C 
ATOM      4  C   UNL     1      -2.852  13.012  19.513  0.00  0.00    +0.000 C 
ATOM      5  C   UNL     1      -4.120  12.831  20.276  0.00  0.00    +0.000 C 
ATOM      6  C   UNL     1      -4.322  14.255  20.752  0.00  0.00    +0.000 C 
ATOM      7  C   UNL     1      -2.890  14.855  21.019  0.00  0.00    +0.000 C 
ATOM      8  N   UNL     1      -1.814  13.762  20.385  0.00  0.00    +0.000 N 
ENDROOT
BRANCH   1  14
ATOM      9  C   UNL     1       1.546  15.017  18.889  0.00  0.00    +0.000 A 
ATOM     10  C   UNL     1       2.235  16.182  18.486  0.00  0.00    +0.000 A 
ATOM     11  C   UNL     1       1.567  17.338  18.094  0.00  0.00    +0.000 A 
ATOM     12  C   UNL     1       0.178  17.374  18.091  0.00  0.00    +0.000 A 
ATOM     13  C   UNL     1      -0.503  16.227  18.473  0.00  0.00    +0.000 A 
ATOM     14  C   UNL     1       0.148  15.000  18.828  0.00  0.00    +0.000 A 
BRANCH   9  16
ATOM     15  C   UNL     1       2.773  13.126  18.222  0.00  0.00    +0.000 C 
ATOM     16  O   UNL     1       2.189  13.881  19.293  0.00  0.00    +0.000 OA
ENDBRANCH   9  16
ENDBRANCH   1  14
BRANCH   7  17
ATOM     17  C   UNL     1      -2.833  15.068  22.559  0.00  0.00    +0.000 A 
ATOM     18  C   UNL     1      -3.618  14.219  23.402  0.00  0.00    +0.000 A 
ATOM     19  C   UNL     1      -3.312  14.011  24.747  0.00  0.00    +0.000 A 
ATOM     20  C   UNL     1      -2.293  14.741  25.322  0.00  0.00    +0.000 A 
ATOM     21  C   UNL     1      -1.610  15.695  24.559  0.00  0.00    +0.000 A 
ATOM     22  C   UNL     1      -1.874  15.873  23.188  0.00  0.00    +0.000 A 
BRANCH  22  23
ATOM     23  O   UNL     1      -1.000  16.711  22.556  0.00  0.00    +0.000 OA
ATOM     24  C   UNL     1      -0.108  17.443  23.393  0.00  0.00    +0.000 C 
ENDBRANCH  22  23
ENDBRANCH   7  17
BRANCH   8  25
ATOM     25  C   UNL     1      -0.964  13.272  21.640  0.00  0.00    +0.000 C 
BRANCH  25  26
ATOM     26  C   UNL     1      -0.511  11.857  22.010  0.00  0.00    +0.000 A 
ATOM     27  C   UNL     1       0.558  11.241  21.301  0.00  0.00    +0.000 A 
ATOM     28  C   UNL     1       0.974   9.943  21.605  0.00  0.00    +0.000 A 
ATOM     29  C   UNL     1       0.321   9.231  22.604  0.00  0.00    +0.000 A 
ATOM     30  C   UNL     1      -0.721   9.826  23.316  0.00  0.00    +0.000 A 
ATOM     31  C   UNL     1      -1.115  11.139  23.043  0.00  0.00    +0.000 A 
ENDBRANCH  25  26
ENDBRANCH   8  25
TORSDOF 6
ENDMDL
MODEL 7
REMARK VINA RESULT:      -6.1      2.039      5.366
REMARK  Name = 
REMARK  8 active torsions:
REMARK  status: ('A' for Active; 'I' for Inactive)
REMARK    1  A    between atoms: C_1  and  O_2
REMARK    2  A    between atoms: O_2  and  C_3
REMARK    3  A    between atoms: C_8  and  C_9
REMARK    4  A    between atoms: C_15  and  C_16
REMARK    5  A    between atoms: C_21  and  O_22
REMARK    6  A    between atoms: O_22  and  C_23
REMARK    7  A    between atoms: N_24  and  C_25
REMARK    8  A    between atoms: C_25  and  C_26
REMARK                            x       y       z     vdW  Elec       q    Type
REMARK                         _______ _______ _______ _____ _____    ______ ____
ROOT
ATOM      1  C   UNL     1      -0.659  13.824  19.275  0.00  0.00    +0.000 C 
ATOM      2  C   UNL     1      -1.029  12.623  18.322  0.00  0.00    +0.000 C 
ATOM      3  C   UNL     1      -2.239  11.940  18.927  0.00  0.00    +0.000 C 
ATOM      4  C   UNL     1      -2.750  13.045  19.777  0.00  0.00    +0.000 C 
ATOM      5  C   UNL     1      -3.934  12.881  20.668  0.00  0.00    +0.000 C 
ATOM      6  C   UNL     1      -4.001  14.282  21.241  0.00  0.00    +0.000 C 
ATOM      7  C   UNL     1      -2.517  14.792  21.376  0.00  0.00    +0.000 C 
ATOM      8  N   UNL     1      -1.581  13.688  20.564  0.00  0.00    +0.000 N 
ENDROOT
BRANCH   1  14
ATOM      9  C   UNL     1       1.661  14.904  18.880  0.00  0.00    +0.000 A 
ATOM     10  C   UNL     1       2.365  16.048  18.444  0.00  0.00    +0.000 A 
ATOM     11  C   UNL     1       1.713  17.217  18.064  0.00  0.00    +0.000 A 
ATOM     12  C   UNL     1       0.326  17.287  18.106  0.00  0.00    +0.000 A 
ATOM     13  C   UNL     1      -0.370  16.160  18.520  0.00  0.00    +0.000 A 
ATOM     14  C   UNL     1       0.262  14.920  18.864  0.00  0.00    +0.000 A 
BRANCH   9  16
ATOM     15  C   UNL     1       2.989  13.868  20.520  0.00  0.00    +0.000 C 
ATOM     16  O   UNL     1       2.289  13.755  19.272  0.00  0.00    +0.000 OA
ENDBRANCH   9  16
ENDBRANCH   1  14
BRANCH   7  17
ATOM     17  C   UNL     1      -2.277  14.909  22.908  0.00  0.00    +0.000 A 
ATOM     18  C   UNL     1      -1.599  16.064  23.414  0.00  0.00    +0.000 A 
ATOM     19  C   UNL     1      -1.730  16.490  24.735  0.00  0.00    +0.000 A 
ATOM     20  C   UNL     1      -2.438  15.706  25.624  0.00  0.00    +0.000 A 
ATOM     21  C   UNL     1      -2.979  14.490  25.193  0.00  0.00    +0.000 A 
ATOM     22  C   UNL     1      -2.900  14.078  23.849  0.00  0.00    +0.000 A 
BRANCH  22  23
ATOM     23  O   UNL     1      -3.633  12.962  23.564  0.00  0.00    +0.000 OA
ATOM     24  C   UNL     1      -4.413  12.427  24.630  0.00  0.00    +0.000 C 
ENDBRANCH  22  23
ENDBRANCH   7  17
BRANCH   8  25
ATOM     25  C   UNL     1      -0.626  13.082  21.685  0.00  0.00    +0.000 C 
BRANCH  25  26
ATOM     26  C   UNL     1      -0.272  11.619  21.968  0.00  0.00    +0.000 A 
ATOM     27  C   UNL     1       0.694  10.949  21.167  0.00  0.00    +0.000 A 
ATOM     28  C   UNL     1       1.017   9.609  21.391  0.00  0.00    +0.000 A 
ATOM     29  C   UNL     1       0.368   8.909  22.402  0.00  0.00    +0.000 A 
ATOM     30  C   UNL     1      -0.574   9.555  23.204  0.00  0.00    +0.000 A 
ATOM     31  C   UNL     1      -0.870  10.908  23.009  0.00  0.00    +0.000 A 
ENDBRANCH  25  26
ENDBRANCH   8  25
TORSDOF 6
ENDMDL
MODEL 8
REMARK VINA RESULT:      -6.0      6.455      9.957
REMARK  Name = 
REMARK  8 active torsions:
REMARK  status: ('A' for Active; 'I' for Inactive)
REMARK    1  A    between atoms: C_1  and  O_2
REMARK    2  A    between atoms: O_2  and  C_3
REMARK    3  A    between atoms: C_8  and  C_9
REMARK    4  A    between atoms: C_15  and  C_16
REMARK    5  A    between atoms: C_21  and  O_22
REMARK    6  A    between atoms: O_22  and  C_23
REMARK    7  A    between atoms: N_24  and  C_25
REMARK    8  A    between atoms: C_25  and  C_26
REMARK                            x       y       z     vdW  Elec       q    Type
REMARK                         _______ _______ _______ _____ _____    ______ ____
ROOT
ATOM      1  C   UNL     1       7.491  16.358  20.471  0.00  0.00    +0.000 C 
ATOM      2  C   UNL     1       7.563  17.908  20.755  0.00  0.00    +0.000 C 
ATOM      3  C   UNL     1       8.829  18.417  20.094  0.00  0.00    +0.000 C 
ATOM      4  C   UNL     1       9.046  17.331  19.104  0.00  0.00    +0.000 C 
ATOM      5  C   UNL     1      10.232  17.303  18.203  0.00  0.00    +0.000 C 
ATOM      6  C   UNL     1       9.920  16.038  17.431  0.00  0.00    +0.000 C 
ATOM      7  C   UNL     1       9.210  15.053  18.434  0.00  0.00    +0.000 C 
ATOM      8  N   UNL     1       8.868  15.952  19.788  0.00  0.00    +0.000 N 
ENDROOT
BRANCH   1  14
ATOM      9  C   UNL     1       5.335  15.150  19.697  0.00  0.00    +0.000 A 
ATOM     10  C   UNL     1       4.209  14.394  20.088  0.00  0.00    +0.000 A 
ATOM     11  C   UNL     1       3.939  14.103  21.421  0.00  0.00    +0.000 A 
ATOM     12  C   UNL     1       4.789  14.561  22.421  0.00  0.00    +0.000 A 
ATOM     13  C   UNL     1       5.906  15.292  22.040  0.00  0.00    +0.000 A 
ATOM     14  C   UNL     1       6.248  15.563  20.675  0.00  0.00    +0.000 A 
BRANCH   9  16
ATOM     15  C   UNL     1       4.457  15.396  17.530  0.00  0.00    +0.000 C 
ATOM     16  O   UNL     1       5.603  15.457  18.393  0.00  0.00    +0.000 OA
ENDBRANCH   9  16
ENDBRANCH   1  14
BRANCH   7  17
ATOM     17  C   UNL     1      10.217  13.882  18.618  0.00  0.00    +0.000 A 
ATOM     18  C   UNL     1      11.533  14.174  19.100  0.00  0.00    +0.000 A 
ATOM     19  C   UNL     1      12.333  13.214  19.719  0.00  0.00    +0.000 A 
ATOM     20  C   UNL     1      11.897  11.906  19.763  0.00  0.00    +0.000 A 
ATOM     21  C   UNL     1      10.682  11.562  19.159  0.00  0.00    +0.000 A 
ATOM     22  C   UNL     1       9.842  12.532  18.580  0.00  0.00    +0.000 A 
BRANCH  22  23
ATOM     23  O   UNL     1       8.620  12.057  18.200  0.00  0.00    +0.000 OA
ATOM     24  C   UNL     1       8.502  10.642  18.075  0.00  0.00    +0.000 C 
ENDBRANCH  22  23
ENDBRANCH   7  17
BRANCH   8  25
ATOM     25  C   UNL     1       9.706  15.251  20.947  0.00  0.00    +0.000 C 
BRANCH  25  26
ATOM     26  C   UNL     1       9.208  14.440  22.147  0.00  0.00    +0.000 A 
ATOM     27  C   UNL     1       9.089  15.053  23.425  0.00  0.00    +0.000 A 
ATOM     28  C   UNL     1       8.659  14.328  24.538  0.00  0.00    +0.000 A 
ATOM     29  C   UNL     1       8.359  12.978  24.401  0.00  0.00    +0.000 A 
ATOM     30  C   UNL     1       8.459  12.365  23.151  0.00  0.00    +0.000 A 
ATOM     31  C   UNL     1       8.851  13.096  22.026  0.00  0.00    +0.000 A 
ENDBRANCH  25  26
ENDBRANCH   8  25
TORSDOF 6
ENDMDL
MODEL 9
REMARK VINA RESULT:      -6.0      1.757      4.548
REMARK  Name = 
REMARK  8 active torsions:
REMARK  status: ('A' for Active; 'I' for Inactive)
REMARK    1  A    between atoms: C_1  and  O_2
REMARK    2  A    between atoms: O_2  and  C_3
REMARK    3  A    between atoms: C_8  and  C_9
REMARK    4  A    between atoms: C_15  and  C_16
REMARK    5  A    between atoms: C_21  and  O_22
REMARK    6  A    between atoms: O_22  and  C_23
REMARK    7  A    between atoms: N_24  and  C_25
REMARK    8  A    between atoms: C_25  and  C_26
REMARK                            x       y       z     vdW  Elec       q    Type
REMARK                         _______ _______ _______ _____ _____    ______ ____
ROOT
ATOM      1  C   UNL     1      -1.659  11.373  19.372  0.00  0.00    +0.000 C 
ATOM      2  C   UNL     1      -0.542  10.284  19.607  0.00  0.00    +0.000 C 
ATOM      3  C   UNL     1      -0.047  10.464  21.028  0.00  0.00    +0.000 C 
ATOM      4  C   UNL     1      -1.208  11.189  21.606  0.00  0.00    +0.000 C 
ATOM      5  C   UNL     1      -1.218  11.679  23.014  0.00  0.00    +0.000 C 
ATOM      6  C   UNL     1      -2.605  12.288  23.048  0.00  0.00    +0.000 C 
ATOM      7  C   UNL     1      -2.878  12.884  21.616  0.00  0.00    +0.000 C 
ATOM      8  N   UNL     1      -1.652  12.322  20.648  0.00  0.00    +0.000 N 
ENDROOT
BRANCH   1  14
ATOM      9  C   UNL     1      -3.990  11.515  18.252  0.00  0.00    +0.000 A 
ATOM     10  C   UNL     1      -4.722  11.422  17.049  0.00  0.00    +0.000 A 
ATOM     11  C   UNL     1      -4.122  11.072  15.843  0.00  0.00    +0.000 A 
ATOM     12  C   UNL     1      -2.761  10.798  15.795  0.00  0.00    +0.000 A 
ATOM     13  C   UNL     1      -2.035  10.902  16.974  0.00  0.00    +0.000 A 
ATOM     14  C   UNL     1      -2.605  11.316  18.222  0.00  0.00    +0.000 A 
BRANCH   9  16
ATOM     15  C   UNL     1      -5.980  11.582  19.503  0.00  0.00    +0.000 C 
ATOM     16  O   UNL     1      -4.570  11.841  19.446  0.00  0.00    +0.000 OA
ENDBRANCH   9  16
ENDBRANCH   1  14
BRANCH   7  17
ATOM     17  C   UNL     1      -2.936  14.424  21.833  0.00  0.00    +0.000 A 
ATOM     18  C   UNL     1      -1.902  15.051  22.600  0.00  0.00    +0.000 A 
ATOM     19  C   UNL     1      -1.600  16.407  22.479  0.00  0.00    +0.000 A 
ATOM     20  C   UNL     1      -2.402  17.203  21.687  0.00  0.00    +0.000 A 
ATOM     21  C   UNL     1      -3.516  16.646  21.050  0.00  0.00    +0.000 A 
ATOM     22  C   UNL     1      -3.798  15.268  21.120  0.00  0.00    +0.000 A 
BRANCH  22  23
ATOM     23  O   UNL     1      -4.810  14.863  20.299  0.00  0.00    +0.000 OA
ATOM     24  C   UNL     1      -6.136  15.134  20.747  0.00  0.00    +0.000 C 
ENDBRANCH  22  23
ENDBRANCH   7  17
BRANCH   8  25
ATOM     25  C   UNL     1      -0.891  13.638  20.171  0.00  0.00    +0.000 C 
BRANCH  25  26
ATOM     26  C   UNL     1       0.607  13.862  19.949  0.00  0.00    +0.000 A 
ATOM     27  C   UNL     1       1.153  13.796  18.637  0.00  0.00    +0.000 A 
ATOM     28  C   UNL     1       2.519  13.974  18.412  0.00  0.00    +0.000 A 
ATOM     29  C   UNL     1       3.367  14.202  19.490  0.00  0.00    +0.000 A 
ATOM     30  C   UNL     1       2.845  14.282  20.782  0.00  0.00    +0.000 A 
ATOM     31  C   UNL     1       1.472  14.143  21.007  0.00  0.00    +0.000 A 
ENDBRANCH  25  26
ENDBRANCH   8  25
TORSDOF 6
ENDMDL
