MODEL 1
REMARK VINA RESULT:      -8.1      0.000      0.000
REMARK  Name = 
REMARK  6 active torsions:
REMARK  status: ('A' for Active; 'I' for Inactive)
REMARK    1  A    between atoms: C_1  and  N_2
REMARK    2  A    between atoms: C_3  and  C_5
REMARK    3  A    between atoms: C_9  and  S_10
REMARK    4  A    between atoms: S_10  and  C_11
REMARK    5  A    between atoms: C_12  and  N_13
REMARK    6  A    between atoms: N_18  and  C_19
REMARK                            x       y       z     vdW  Elec       q    Type
REMARK                         _______ _______ _______ _____ _____    ______ ____
ROOT
ATOM      1  C   UNL     1       6.926   4.542  16.262  0.00  0.00    +0.000 A 
ATOM      2  N   UNL     1       8.064   4.537  17.050  0.00  0.00    +0.000 NA
ATOM      3  N   UNL     1       7.698   4.414  18.318  0.00  0.00    +0.000 NA
ATOM      4  N   UNL     1       6.356   4.345  18.344  0.00  0.00    +0.000 N 
ATOM      5  C   UNL     1       5.826   4.447  17.089  0.00  0.00    +0.000 A 
ATOM      6  H   UNL     1       5.876   4.231  19.232  0.00  0.00    +0.000 HD
ENDROOT
BRANCH   1   9
ATOM      7  C   UNL     1       6.251   3.535  12.726  0.00  0.00    +0.000 C 
ATOM      8  N   UNL     1       6.283   3.630  14.161  0.00  0.00    +0.000 N 
ATOM      9  C   UNL     1       6.994   4.625  14.807  0.00  0.00    +0.000 C 
ATOM     10  O   UNL     1       7.623   5.488  14.206  0.00  0.00    +0.000 OA
ATOM     11  H   UNL     1       5.716   3.011  14.727  0.00  0.00    +0.000 HD
ENDBRANCH   1   9
BRANCH   5  12
ATOM     12  S   UNL     1       4.123   4.280  16.858  0.00  0.00    +0.000 S 
BRANCH  12  13
ATOM     13  C   UNL     1       3.583   4.300  18.513  0.00  0.00    +0.000 A 
ATOM     14  C   UNL     1       3.558   3.364  19.536  0.00  0.00    +0.000 A 
ATOM     15  N   UNL     1       2.872   3.847  20.637  0.00  0.00    +0.000 NA
ATOM     16  C   UNL     1       2.476   5.049  20.290  0.00  0.00    +0.000 A 
ATOM     17  N   UNL     1       2.884   5.372  19.024  0.00  0.00    +0.000 N 
ATOM     18  C   UNL     1       2.587   6.632  18.382  0.00  0.00    +0.000 C 
BRANCH  14  19
ATOM     19  N   UNL     1       4.101   2.022  19.566  0.00  0.00    +0.000 N 
ATOM     20  O   UNL     1       3.672   1.218  18.722  0.00  0.00    +0.000 OA
ATOM     21  O   UNL     1       4.970   1.771  20.410  0.00  0.00    +0.000 OA
ENDBRANCH  14  19
ENDBRANCH  12  13
ENDBRANCH   5  12
TORSDOF 4
ENDMDL
MODEL 2
REMARK VINA RESULT:      -7.7      2.200      2.861
REMARK  Name = 
REMARK  6 active torsions:
REMARK  status: ('A' for Active; 'I' for Inactive)
REMARK    1  A    between atoms: C_1  and  N_2
REMARK    2  A    between atoms: C_3  and  C_5
REMARK    3  A    between atoms: C_9  and  S_10
REMARK    4  A    between atoms: S_10  and  C_11
REMARK    5  A    between atoms: C_12  and  N_13
REMARK    6  A    between atoms: N_18  and  C_19
REMARK                            x       y       z     vdW  Elec       q    Type
REMARK                         _______ _______ _______ _____ _____    ______ ____
ROOT
ATOM      1  C   UNL     1       6.854   4.491  16.331  0.00  0.00    +0.000 A 
ATOM      2  N   UNL     1       7.971   4.603  17.139  0.00  0.00    +0.000 NA
ATOM      3  N   UNL     1       7.603   4.411  18.398  0.00  0.00    +0.000 NA
ATOM      4  N   UNL     1       6.279   4.183  18.398  0.00  0.00    +0.000 N 
ATOM      5  C   UNL     1       5.759   4.248  17.137  0.00  0.00    +0.000 A 
ATOM      6  H   UNL     1       5.801   3.995  19.275  0.00  0.00    +0.000 HD
ENDROOT
BRANCH   1   9
ATOM      7  C   UNL     1       6.251   3.548  12.765  0.00  0.00    +0.000 C 
ATOM      8  N   UNL     1       6.265   3.609  14.201  0.00  0.00    +0.000 N 
ATOM      9  C   UNL     1       6.933   4.612  14.880  0.00  0.00    +0.000 C 
ATOM     10  O   UNL     1       7.537   5.511  14.307  0.00  0.00    +0.000 OA
ATOM     11  H   UNL     1       5.714   2.957  14.746  0.00  0.00    +0.000 HD
ENDBRANCH   1   9
BRANCH   5  12
ATOM     12  S   UNL     1       4.092   3.886  16.872  0.00  0.00    +0.000 S 
BRANCH  12  13
ATOM     13  C   UNL     1       3.379   4.693  18.239  0.00  0.00    +0.000 A 
ATOM     14  C   UNL     1       3.168   6.021  18.580  0.00  0.00    +0.000 A 
ATOM     15  N   UNL     1       2.688   6.133  19.874  0.00  0.00    +0.000 NA
ATOM     16  C   UNL     1       2.619   4.901  20.319  0.00  0.00    +0.000 A 
ATOM     17  N   UNL     1       3.017   3.996  19.372  0.00  0.00    +0.000 N 
ATOM     18  C   UNL     1       3.045   2.568  19.589  0.00  0.00    +0.000 C 
BRANCH  14  19
ATOM     19  N   UNL     1       3.407   7.217  17.800  0.00  0.00    +0.000 N 
ATOM     20  O   UNL     1       2.477   8.037  17.719  0.00  0.00    +0.000 OA
ATOM     21  O   UNL     1       4.524   7.357  17.287  0.00  0.00    +0.000 OA
ENDBRANCH  14  19
ENDBRANCH  12  13
ENDBRANCH   5  12
TORSDOF 4
ENDMDL
MODEL 3
REMARK VINA RESULT:      -7.6      0.928      1.196
REMARK  Name = 
REMARK  6 active torsions:
REMARK  status: ('A' for Active; 'I' for Inactive)
REMARK    1  A    between atoms: C_1  and  N_2
REMARK    2  A    between atoms: C_3  and  C_5
REMARK    3  A    between atoms: C_9  and  S_10
REMARK    4  A    between atoms: S_10  and  C_11
REMARK    5  A    between atoms: C_12  and  N_13
REMARK    6  A    between atoms: N_18  and  C_19
REMARK                            x       y       z     vdW  Elec       q    Type
REMARK                         _______ _______ _______ _____ _____    ______ ____
ROOT
ATOM      1  C   UNL     1       6.852   4.477  16.286  0.00  0.00    +0.000 A 
ATOM      2  N   UNL     1       8.004   4.490  17.053  0.00  0.00    +0.000 NA
ATOM      3  N   UNL     1       7.659   4.463  18.333  0.00  0.00    +0.000 NA
ATOM      4  N   UNL     1       6.317   4.435  18.386  0.00  0.00    +0.000 N 
ATOM      5  C   UNL     1       5.765   4.470  17.137  0.00  0.00    +0.000 A 
ATOM      6  H   UNL     1       5.850   4.395  19.288  0.00  0.00    +0.000 HD
ENDROOT
BRANCH   1   9
ATOM      7  C   UNL     1       7.967   5.499  12.868  0.00  0.00    +0.000 C 
ATOM      8  N   UNL     1       7.801   5.355  14.289  0.00  0.00    +0.000 N 
ATOM      9  C   UNL     1       6.894   4.462  14.828  0.00  0.00    +0.000 C 
ATOM     10  O   UNL     1       6.191   3.733  14.138  0.00  0.00    +0.000 OA
ATOM     11  H   UNL     1       8.409   5.854  14.928  0.00  0.00    +0.000 HD
ENDBRANCH   1   9
BRANCH   5  12
ATOM     12  S   UNL     1       4.055   4.338  16.947  0.00  0.00    +0.000 S 
BRANCH  12  13
ATOM     13  C   UNL     1       3.561   4.288  18.615  0.00  0.00    +0.000 A 
ATOM     14  C   UNL     1       3.573   3.312  19.601  0.00  0.00    +0.000 A 
ATOM     15  N   UNL     1       2.914   3.746  20.739  0.00  0.00    +0.000 NA
ATOM     16  C   UNL     1       2.497   4.956  20.450  0.00  0.00    +0.000 A 
ATOM     17  N   UNL     1       2.866   5.332  19.187  0.00  0.00    +0.000 N 
ATOM     18  C   UNL     1       2.540   6.613  18.603  0.00  0.00    +0.000 C 
BRANCH  14  19
ATOM     19  N   UNL     1       4.130   1.977  19.563  0.00  0.00    +0.000 N 
ATOM     20  O   UNL     1       5.003   1.702  20.403  0.00  0.00    +0.000 OA
ATOM     21  O   UNL     1       3.686   1.191  18.717  0.00  0.00    +0.000 OA
ENDBRANCH  14  19
ENDBRANCH  12  13
ENDBRANCH   5  12
TORSDOF 4
ENDMDL
MODEL 4
REMARK VINA RESULT:      -7.6      1.000      1.261
REMARK  Name = 
REMARK  6 active torsions:
REMARK  status: ('A' for Active; 'I' for Inactive)
REMARK    1  A    between atoms: C_1  and  N_2
REMARK    2  A    between atoms: C_3  and  C_5
REMARK    3  A    between atoms: C_9  and  S_10
REMARK    4  A    between atoms: S_10  and  C_11
REMARK    5  A    between atoms: C_12  and  N_13
REMARK    6  A    between atoms: N_18  and  C_19
REMARK                            x       y       z     vdW  Elec       q    Type
REMARK                         _______ _______ _______ _____ _____    ______ ____
ROOT
ATOM      1  C   UNL     1       6.789   5.001  17.273  0.00  0.00    +0.000 A 
ATOM      2  N   UNL     1       7.853   4.787  18.131  0.00  0.00    +0.000 NA
ATOM      3  N   UNL     1       7.414   4.880  19.379  0.00  0.00    +0.000 NA
ATOM      4  N   UNL     1       6.099   5.149  19.322  0.00  0.00    +0.000 N 
ATOM      5  C   UNL     1       5.666   5.261  18.032  0.00  0.00    +0.000 A 
ATOM      6  H   UNL     1       5.568   5.243  20.183  0.00  0.00    +0.000 HD
ENDROOT
BRANCH   1   9
ATOM      7  C   UNL     1       6.176   3.721  13.815  0.00  0.00    +0.000 C 
ATOM      8  N   UNL     1       6.148   3.958  15.233  0.00  0.00    +0.000 N 
ATOM      9  C   UNL     1       6.938   4.927  15.824  0.00  0.00    +0.000 C 
ATOM     10  O   UNL     1       7.694   5.648  15.183  0.00  0.00    +0.000 OA
ATOM     11  H   UNL     1       5.484   3.468  15.820  0.00  0.00    +0.000 HD
ENDBRANCH   1   9
BRANCH   5  12
ATOM     12  S   UNL     1       3.988   5.502  17.704  0.00  0.00    +0.000 S 
BRANCH  12  13
ATOM     13  C   UNL     1       3.297   4.935  19.198  0.00  0.00    +0.000 A 
ATOM     14  C   UNL     1       3.239   3.704  19.834  0.00  0.00    +0.000 A 
ATOM     15  N   UNL     1       2.423   3.760  20.952  0.00  0.00    +0.000 NA
ATOM     16  C   UNL     1       1.983   4.995  20.991  0.00  0.00    +0.000 A 
ATOM     17  N   UNL     1       2.485   5.745  19.962  0.00  0.00    +0.000 N 
ATOM     18  C   UNL     1       2.167   7.140  19.756  0.00  0.00    +0.000 C 
BRANCH  14  19
ATOM     19  N   UNL     1       3.864   2.451  19.467  0.00  0.00    +0.000 N 
ATOM     20  O   UNL     1       4.964   2.194  19.983  0.00  0.00    +0.000 OA
ATOM     21  O   UNL     1       3.255   1.711  18.685  0.00  0.00    +0.000 OA
ENDBRANCH  14  19
ENDBRANCH  12  13
ENDBRANCH   5  12
TORSDOF 4
ENDMDL
MODEL 5
REMARK VINA RESULT:      -7.5      3.031      4.062
REMARK  Name = 
REMARK  6 active torsions:
REMARK  status: ('A' for Active; 'I' for Inactive)
REMARK    1  A    between atoms: C_1  and  N_2
REMARK    2  A    between atoms: C_3  and  C_5
REMARK    3  A    between atoms: C_9  and  S_10
REMARK    4  A    between atoms: S_10  and  C_11
REMARK    5  A    between atoms: C_12  and  N_13
REMARK    6  A    between atoms: N_18  and  C_19
REMARK                            x       y       z     vdW  Elec       q    Type
REMARK                         _______ _______ _______ _____ _____    ______ ____
ROOT
ATOM      1  C   UNL     1       7.106   5.607  17.087  0.00  0.00    +0.000 A 
ATOM      2  N   UNL     1       7.390   5.438  15.744  0.00  0.00    +0.000 NA
ATOM      3  N   UNL     1       6.731   4.374  15.304  0.00  0.00    +0.000 NA
ATOM      4  N   UNL     1       6.041   3.872  16.343  0.00  0.00    +0.000 N 
ATOM      5  C   UNL     1       6.263   4.589  17.484  0.00  0.00    +0.000 A 
ATOM      6  H   UNL     1       5.453   3.055  16.207  0.00  0.00    +0.000 HD
ENDROOT
BRANCH   1   9
ATOM      7  C   UNL     1       8.054   9.149  17.811  0.00  0.00    +0.000 C 
ATOM      8  N   UNL     1       7.551   7.941  17.217  0.00  0.00    +0.000 N 
ATOM      9  C   UNL     1       7.650   6.719  17.858  0.00  0.00    +0.000 C 
ATOM     10  O   UNL     1       8.156   6.592  18.967  0.00  0.00    +0.000 OA
ATOM     11  H   UNL     1       7.038   7.975  16.345  0.00  0.00    +0.000 HD
ENDBRANCH   1   9
BRANCH   5  12
ATOM     12  S   UNL     1       5.403   4.196  18.928  0.00  0.00    +0.000 S 
BRANCH  12  13
ATOM     13  C   UNL     1       3.766   4.252  18.339  0.00  0.00    +0.000 A 
ATOM     14  C   UNL     1       2.863   5.272  18.081  0.00  0.00    +0.000 A 
ATOM     15  N   UNL     1       1.615   4.764  17.761  0.00  0.00    +0.000 NA
ATOM     16  C   UNL     1       1.750   3.461  17.835  0.00  0.00    +0.000 A 
ATOM     17  N   UNL     1       3.027   3.101  18.172  0.00  0.00    +0.000 N 
ATOM     18  C   UNL     1       3.459   1.731  18.326  0.00  0.00    +0.000 C 
BRANCH  14  19
ATOM     19  N   UNL     1       3.058   6.706  18.136  0.00  0.00    +0.000 N 
ATOM     20  O   UNL     1       3.903   7.193  17.367  0.00  0.00    +0.000 OA
ATOM     21  O   UNL     1       2.357   7.353  18.924  0.00  0.00    +0.000 OA
ENDBRANCH  14  19
ENDBRANCH  12  13
ENDBRANCH   5  12
TORSDOF 4
ENDMDL
MODEL 6
REMARK VINA RESULT:      -7.5      1.280      1.338
REMARK  Name = 
REMARK  6 active torsions:
REMARK  status: ('A' for Active; 'I' for Inactive)
REMARK    1  A    between atoms: C_1  and  N_2
REMARK    2  A    between atoms: C_3  and  C_5
REMARK    3  A    between atoms: C_9  and  S_10
REMARK    4  A    between atoms: S_10  and  C_11
REMARK    5  A    between atoms: C_12  and  N_13
REMARK    6  A    between atoms: N_18  and  C_19
REMARK                            x       y       z     vdW  Elec       q    Type
REMARK                         _______ _______ _______ _____ _____    ______ ____
ROOT
ATOM      1  C   UNL     1       6.401   4.585  16.646  0.00  0.00    +0.000 A 
ATOM      2  N   UNL     1       7.620   4.793  17.267  0.00  0.00    +0.000 NA
ATOM      3  N   UNL     1       7.498   4.483  18.551  0.00  0.00    +0.000 NA
ATOM      4  N   UNL     1       6.229   4.085  18.748  0.00  0.00    +0.000 N 
ATOM      5  C   UNL     1       5.497   4.157  17.597  0.00  0.00    +0.000 A 
ATOM      6  H   UNL     1       5.934   3.786  19.673  0.00  0.00    +0.000 HD
ENDROOT
BRANCH   1   9
ATOM      7  C   UNL     1       6.190   3.662  13.030  0.00  0.00    +0.000 C 
ATOM      8  N   UNL     1       6.320   3.644  14.462  0.00  0.00    +0.000 N 
ATOM      9  C   UNL     1       6.216   4.800  15.215  0.00  0.00    +0.000 C 
ATOM     10  O   UNL     1       5.995   5.898  14.718  0.00  0.00    +0.000 OA
ATOM     11  H   UNL     1       6.413   2.766  14.957  0.00  0.00    +0.000 HD
ENDBRANCH   1   9
BRANCH   5  12
ATOM     12  S   UNL     1       3.864   3.598  17.579  0.00  0.00    +0.000 S 
BRANCH  12  13
ATOM     13  C   UNL     1       3.203   4.530  18.893  0.00  0.00    +0.000 A 
ATOM     14  C   UNL     1       2.586   4.213  20.093  0.00  0.00    +0.000 A 
ATOM     15  N   UNL     1       2.102   5.348  20.721  0.00  0.00    +0.000 NA
ATOM     16  C   UNL     1       2.407   6.337  19.915  0.00  0.00    +0.000 A 
ATOM     17  N   UNL     1       3.077   5.900  18.804  0.00  0.00    +0.000 N 
ATOM     18  C   UNL     1       3.533   6.772  17.747  0.00  0.00    +0.000 C 
BRANCH  14  19
ATOM     19  N   UNL     1       2.377   2.916  20.702  0.00  0.00    +0.000 N 
ATOM     20  O   UNL     1       1.822   2.047  20.010  0.00  0.00    +0.000 OA
ATOM     21  O   UNL     1       2.784   2.751  21.859  0.00  0.00    +0.000 OA
ENDBRANCH  14  19
ENDBRANCH  12  13
ENDBRANCH   5  12
TORSDOF 4
ENDMDL
MODEL 7
REMARK VINA RESULT:      -7.5      1.413      1.480
REMARK  Name = 
REMARK  6 active torsions:
REMARK  status: ('A' for Active; 'I' for Inactive)
REMARK    1  A    between atoms: C_1  and  N_2
REMARK    2  A    between atoms: C_3  and  C_5
REMARK    3  A    between atoms: C_9  and  S_10
REMARK    4  A    between atoms: S_10  and  C_11
REMARK    5  A    between atoms: C_12  and  N_13
REMARK    6  A    between atoms: N_18  and  C_19
REMARK                            x       y       z     vdW  Elec       q    Type
REMARK                         _______ _______ _______ _____ _____    ______ ____
ROOT
ATOM      1  C   UNL     1       6.726   4.831  17.325  0.00  0.00    +0.000 A 
ATOM      2  N   UNL     1       7.831   4.572  18.117  0.00  0.00    +0.000 NA
ATOM      3  N   UNL     1       7.592   5.030  19.338  0.00  0.00    +0.000 NA
ATOM      4  N   UNL     1       6.363   5.572  19.330  0.00  0.00    +0.000 N 
ATOM      5  C   UNL     1       5.791   5.497  18.091  0.00  0.00    +0.000 A 
ATOM      6  H   UNL     1       5.982   5.968  20.184  0.00  0.00    +0.000 HD
ENDROOT
BRANCH   1   9
ATOM      7  C   UNL     1       7.450   4.960  13.661  0.00  0.00    +0.000 C 
ATOM      8  N   UNL     1       7.410   5.203  15.077  0.00  0.00    +0.000 N 
ATOM      9  C   UNL     1       6.660   4.413  15.929  0.00  0.00    +0.000 C 
ATOM     10  O   UNL     1       6.000   3.458  15.539  0.00  0.00    +0.000 OA
ATOM     11  H   UNL     1       8.000   5.915  15.490  0.00  0.00    +0.000 HD
ENDBRANCH   1   9
BRANCH   5  12
ATOM     12  S   UNL     1       4.168   6.036  17.858  0.00  0.00    +0.000 S 
BRANCH  12  13
ATOM     13  C   UNL     1       3.391   5.277  19.219  0.00  0.00    +0.000 A 
ATOM     14  C   UNL     1       3.353   3.983  19.716  0.00  0.00    +0.000 A 
ATOM     15  N   UNL     1       2.448   3.877  20.759  0.00  0.00    +0.000 NA
ATOM     16  C   UNL     1       1.936   5.078  20.888  0.00  0.00    +0.000 A 
ATOM     17  N   UNL     1       2.475   5.959  19.990  0.00  0.00    +0.000 N 
ATOM     18  C   UNL     1       2.095   7.351  19.905  0.00  0.00    +0.000 C 
BRANCH  14  19
ATOM     19  N   UNL     1       4.076   2.809  19.275  0.00  0.00    +0.000 N 
ATOM     20  O   UNL     1       3.833   2.389  18.132  0.00  0.00    +0.000 OA
ATOM     21  O   UNL     1       4.904   2.317  20.053  0.00  0.00    +0.000 OA
ENDBRANCH  14  19
ENDBRANCH  12  13
ENDBRANCH   5  12
TORSDOF 4
ENDMDL
MODEL 8
REMARK VINA RESULT:      -7.5      2.054      2.671
REMARK  Name = 
REMARK  6 active torsions:
REMARK  status: ('A' for Active; 'I' for Inactive)
REMARK    1  A    between atoms: C_1  and  N_2
REMARK    2  A    between atoms: C_3  and  C_5
REMARK    3  A    between atoms: C_9  and  S_10
REMARK    4  A    between atoms: S_10  and  C_11
REMARK    5  A    between atoms: C_12  and  N_13
REMARK    6  A    between atoms: N_18  and  C_19
REMARK                            x       y       z     vdW  Elec       q    Type
REMARK                         _______ _______ _______ _____ _____    ______ ____
ROOT
ATOM      1  C   UNL     1       6.763   4.502  16.382  0.00  0.00    +0.000 A 
ATOM      2  N   UNL     1       7.853   4.562  17.232  0.00  0.00    +0.000 NA
ATOM      3  N   UNL     1       7.425   4.413  18.477  0.00  0.00    +0.000 NA
ATOM      4  N   UNL     1       6.091   4.262  18.428  0.00  0.00    +0.000 N 
ATOM      5  C   UNL     1       5.625   4.337  17.146  0.00  0.00    +0.000 A 
ATOM      6  H   UNL     1       5.569   4.116  19.288  0.00  0.00    +0.000 HD
ENDROOT
BRANCH   1   9
ATOM      7  C   UNL     1       6.230   3.550  12.807  0.00  0.00    +0.000 C 
ATOM      8  N   UNL     1       6.193   3.632  14.242  0.00  0.00    +0.000 N 
ATOM      9  C   UNL     1       6.906   4.595  14.933  0.00  0.00    +0.000 C 
ATOM     10  O   UNL     1       7.595   5.440  14.373  0.00  0.00    +0.000 OA
ATOM     11  H   UNL     1       5.576   3.030  14.773  0.00  0.00    +0.000 HD
ENDBRANCH   1   9
BRANCH   5  12
ATOM     12  S   UNL     1       3.952   4.068  16.820  0.00  0.00    +0.000 S 
BRANCH  12  13
ATOM     13  C   UNL     1       3.318   4.058  18.441  0.00  0.00    +0.000 A 
ATOM     14  C   UNL     1       2.940   5.043  19.341  0.00  0.00    +0.000 A 
ATOM     15  N   UNL     1       2.639   4.499  20.579  0.00  0.00    +0.000 NA
ATOM     16  C   UNL     1       2.842   3.211  20.441  0.00  0.00    +0.000 A 
ATOM     17  N   UNL     1       3.244   2.892  19.172  0.00  0.00    +0.000 N 
ATOM     18  C   UNL     1       3.541   1.546  18.739  0.00  0.00    +0.000 C 
BRANCH  14  19
ATOM     19  N   UNL     1       2.861   6.476  19.153  0.00  0.00    +0.000 N 
ATOM     20  O   UNL     1       2.224   7.126  19.999  0.00  0.00    +0.000 OA
ATOM     21  O   UNL     1       3.450   6.963  18.179  0.00  0.00    +0.000 OA
ENDBRANCH  14  19
ENDBRANCH  12  13
ENDBRANCH   5  12
TORSDOF 4
ENDMDL
MODEL 9
REMARK VINA RESULT:      -7.2      1.351      1.467
REMARK  Name = 
REMARK  6 active torsions:
REMARK  status: ('A' for Active; 'I' for Inactive)
REMARK    1  A    between atoms: C_1  and  N_2
REMARK    2  A    between atoms: C_3  and  C_5
REMARK    3  A    between atoms: C_9  and  S_10
REMARK    4  A    between atoms: S_10  and  C_11
REMARK    5  A    between atoms: C_12  and  N_13
REMARK    6  A    between atoms: N_18  and  C_19
REMARK                            x       y       z     vdW  Elec       q    Type
REMARK                         _______ _______ _______ _____ _____    ______ ____
ROOT
ATOM      1  C   UNL     1       6.025   5.187  17.234  0.00  0.00    +0.000 A 
ATOM      2  N   UNL     1       7.236   5.225  17.902  0.00  0.00    +0.000 NA
ATOM      3  N   UNL     1       7.003   5.145  19.204  0.00  0.00    +0.000 NA
ATOM      4  N   UNL     1       5.672   5.059  19.369  0.00  0.00    +0.000 N 
ATOM      5  C   UNL     1       5.015   5.108  18.172  0.00  0.00    +0.000 A 
ATOM      6  H   UNL     1       5.286   4.972  20.305  0.00  0.00    +0.000 HD
ENDROOT
BRANCH   1   9
ATOM      7  C   UNL     1       6.250   3.854  13.750  0.00  0.00    +0.000 C 
ATOM      8  N   UNL     1       6.253   4.011  15.179  0.00  0.00    +0.000 N 
ATOM      9  C   UNL     1       5.943   5.218  15.778  0.00  0.00    +0.000 C 
ATOM     10  O   UNL     1       5.636   6.217  15.138  0.00  0.00    +0.000 OA
ATOM     11  H   UNL     1       6.407   3.211  15.781  0.00  0.00    +0.000 HD
ENDBRANCH   1   9
BRANCH   5  12
ATOM     12  S   UNL     1       3.301   4.910  18.121  0.00  0.00    +0.000 S 
BRANCH  12  13
ATOM     13  C   UNL     1       3.036   4.114  19.646  0.00  0.00    +0.000 A 
ATOM     14  C   UNL     1       3.339   2.857  20.150  0.00  0.00    +0.000 A 
ATOM     15  N   UNL     1       2.763   2.667  21.394  0.00  0.00    +0.000 NA
ATOM     16  C   UNL     1       2.112   3.779  21.641  0.00  0.00    +0.000 A 
ATOM     17  N   UNL     1       2.250   4.685  20.624  0.00  0.00    +0.000 N 
ATOM     18  C   UNL     1       1.638   5.994  20.626  0.00  0.00    +0.000 C 
BRANCH  14  19
ATOM     19  N   UNL     1       4.108   1.789  19.547  0.00  0.00    +0.000 N 
ATOM     20  O   UNL     1       3.683   1.317  18.479  0.00  0.00    +0.000 OA
ATOM     21  O   UNL     1       5.145   1.432  20.120  0.00  0.00    +0.000 OA
ENDBRANCH  14  19
ENDBRANCH  12  13
ENDBRANCH   5  12
TORSDOF 4
ENDMDL
