MODEL 1
REMARK VINA RESULT:      -7.6      0.000      0.000
REMARK  Name = 
REMARK  9 active torsions:
REMARK  status: ('A' for Active; 'I' for Inactive)
REMARK    1  A    between atoms: C_1  and  O_2
REMARK    2  A    between atoms: O_2  and  C_3
REMARK    3  A    between atoms: C_5  and  N_6
REMARK    4  A    between atoms: C_7  and  C_9
REMARK    5  A    between atoms: C_12  and  C_13
REMARK    6  A    between atoms: C_13  and  N_14
REMARK    7  A    between atoms: C_17  and  O_18
REMARK    8  A    between atoms: C_23  and  O_24
REMARK    9  A    between atoms: O_24  and  C_25
REMARK                            x       y       z     vdW  Elec       q    Type
REMARK                         _______ _______ _______ _____ _____    ______ ____
ROOT
ATOM      1  N   UNL     1       2.495   7.089  18.779  0.00  0.00    +0.000 N 
ATOM      2  C   UNL     1       1.957   7.084  20.054  0.00  0.00    +0.000 C 
ATOM      3  O   UNL     1       1.987   6.155  20.854  0.00  0.00    +0.000 OA
ATOM      4  H   UNL     1       2.555   7.981  18.305  0.00  0.00    +0.000 HD
ENDROOT
BRANCH   1   7
ATOM      5  C   UNL     1       4.871   4.866  16.905  0.00  0.00    +0.000 A 
ATOM      6  C   UNL     1       4.345   6.000  17.535  0.00  0.00    +0.000 A 
ATOM      7  C   UNL     1       3.068   5.985  18.097  0.00  0.00    +0.000 A 
ATOM      8  C   UNL     1       2.317   4.805  18.016  0.00  0.00    +0.000 A 
ATOM      9  C   UNL     1       2.834   3.660  17.392  0.00  0.00    +0.000 A 
ATOM     10  C   UNL     1       4.113   3.697  16.834  0.00  0.00    +0.000 A 
BRANCH   5  12
ATOM     11  C   UNL     1       7.218   4.659  17.269  0.00  0.00    +0.000 C 
ATOM     12  O   UNL     1       6.141   5.023  16.416  0.00  0.00    +0.000 OA
ENDBRANCH   5  12
BRANCH   9  13
ATOM     13  O   UNL     1       2.001   2.572  17.401  0.00  0.00    +0.000 OA
ATOM     14  C   UNL     1       1.232   2.362  18.582  0.00  0.00    +0.000 C 
ENDBRANCH   9  13
ENDBRANCH   1   7
BRANCH   2  15
ATOM     15  C   UNL     1       1.339   8.366  20.508  0.00  0.00    +0.000 A 
ATOM     16  C   UNL     1       1.056   8.635  21.851  0.00  0.00    +0.000 A 
ATOM     17  C   UNL     1       0.467   9.857  22.214  0.00  0.00    +0.000 A 
ATOM     18  C   UNL     1       0.161  10.824  21.243  0.00  0.00    +0.000 A 
ATOM     19  C   UNL     1       0.487  10.558  19.905  0.00  0.00    +0.000 A 
ATOM     20  C   UNL     1       1.075   9.344  19.542  0.00  0.00    +0.000 A 
BRANCH  18  21
ATOM     21  C   UNL     1      -0.599  12.093  21.591  0.00  0.00    +0.000 C 
BRANCH  21  22
ATOM     22  N   UNL     1      -0.877  12.284  23.026  0.00  0.00    +0.000 NA
ATOM     23  C   UNL     1      -1.192  13.690  23.350  0.00  0.00    +0.000 C 
ATOM     24  C   UNL     1      -2.677  13.786  23.688  0.00  0.00    +0.000 C 
ATOM     25  C   UNL     1      -3.257  12.449  23.273  0.00  0.00    +0.000 C 
ATOM     26  C   UNL     1      -2.068  11.506  23.426  0.00  0.00    +0.000 C 
BRANCH  25  27
ATOM     27  O   UNL     1      -4.369  12.084  24.073  0.00  0.00    +0.000 OA
ATOM     28  H   UNL     1      -5.117  12.661  23.841  0.00  0.00    +0.000 HD
ENDBRANCH  25  27
ENDBRANCH  21  22
ENDBRANCH  18  21
ENDBRANCH   2  15
TORSDOF 7
ENDMDL
MODEL 2
REMARK VINA RESULT:      -7.4      1.434      1.755
REMARK  Name = 
REMARK  9 active torsions:
REMARK  status: ('A' for Active; 'I' for Inactive)
REMARK    1  A    between atoms: C_1  and  O_2
REMARK    2  A    between atoms: O_2  and  C_3
REMARK    3  A    between atoms: C_5  and  N_6
REMARK    4  A    between atoms: C_7  and  C_9
REMARK    5  A    between atoms: C_12  and  C_13
REMARK    6  A    between atoms: C_13  and  N_14
REMARK    7  A    between atoms: C_17  and  O_18
REMARK    8  A    between atoms: C_23  and  O_24
REMARK    9  A    between atoms: O_24  and  C_25
REMARK                            x       y       z     vdW  Elec       q    Type
REMARK                         _______ _______ _______ _____ _____    ______ ____
ROOT
ATOM      1  N   UNL     1       2.239   6.863  19.451  0.00  0.00    +0.000 N 
ATOM      2  C   UNL     1       2.194   8.021  18.694  0.00  0.00    +0.000 C 
ATOM      3  O   UNL     1       2.729   8.201  17.605  0.00  0.00    +0.000 OA
ATOM      4  H   UNL     1       1.603   6.797  20.236  0.00  0.00    +0.000 HD
ENDROOT
BRANCH   1   7
ATOM      5  C   UNL     1       5.108   4.462  19.129  0.00  0.00    +0.000 A 
ATOM      6  C   UNL     1       4.398   5.643  19.375  0.00  0.00    +0.000 A 
ATOM      7  C   UNL     1       3.017   5.707  19.185  0.00  0.00    +0.000 A 
ATOM      8  C   UNL     1       2.351   4.558  18.737  0.00  0.00    +0.000 A 
ATOM      9  C   UNL     1       3.049   3.367  18.492  0.00  0.00    +0.000 A 
ATOM     10  C   UNL     1       4.430   3.325  18.687  0.00  0.00    +0.000 A 
BRANCH   5  12
ATOM     11  C   UNL     1       7.192   5.518  18.654  0.00  0.00    +0.000 C 
ATOM     12  O   UNL     1       6.452   4.542  19.377  0.00  0.00    +0.000 OA
ENDBRANCH   5  12
BRANCH   9  13
ATOM     13  O   UNL     1       2.272   2.318  18.076  0.00  0.00    +0.000 OA
ATOM     14  C   UNL     1       1.012   2.157  18.722  0.00  0.00    +0.000 C 
ENDBRANCH   9  13
ENDBRANCH   1   7
BRANCH   2  15
ATOM     15  C   UNL     1       1.353   9.127  19.242  0.00  0.00    +0.000 A 
ATOM     16  C   UNL     1       0.943  10.219  18.469  0.00  0.00    +0.000 A 
ATOM     17  C   UNL     1       0.160  11.232  19.044  0.00  0.00    +0.000 A 
ATOM     18  C   UNL     1      -0.227  11.164  20.393  0.00  0.00    +0.000 A 
ATOM     19  C   UNL     1       0.156  10.044  21.145  0.00  0.00    +0.000 A 
ATOM     20  C   UNL     1       0.935   9.034  20.574  0.00  0.00    +0.000 A 
BRANCH  18  21
ATOM     21  C   UNL     1      -0.957  12.310  21.074  0.00  0.00    +0.000 C 
BRANCH  21  22
ATOM     22  N   UNL     1      -0.889  12.311  22.546  0.00  0.00    +0.000 NA
ATOM     23  C   UNL     1      -1.044  13.667  23.109  0.00  0.00    +0.000 C 
ATOM     24  C   UNL     1      -2.406  13.753  23.793  0.00  0.00    +0.000 C 
ATOM     25  C   UNL     1      -3.138  12.500  23.360  0.00  0.00    +0.000 C 
ATOM     26  C   UNL     1      -2.000  11.515  23.111  0.00  0.00    +0.000 C 
BRANCH  25  27
ATOM     27  O   UNL     1      -4.057  12.057  24.344  0.00  0.00    +0.000 OA
ATOM     28  H   UNL     1      -3.563  11.580  25.034  0.00  0.00    +0.000 HD
ENDBRANCH  25  27
ENDBRANCH  21  22
ENDBRANCH  18  21
ENDBRANCH   2  15
TORSDOF 7
ENDMDL
MODEL 3
REMARK VINA RESULT:      -7.4      1.086      2.748
REMARK  Name = 
REMARK  9 active torsions:
REMARK  status: ('A' for Active; 'I' for Inactive)
REMARK    1  A    between atoms: C_1  and  O_2
REMARK    2  A    between atoms: O_2  and  C_3
REMARK    3  A    between atoms: C_5  and  N_6
REMARK    4  A    between atoms: C_7  and  C_9
REMARK    5  A    between atoms: C_12  and  C_13
REMARK    6  A    between atoms: C_13  and  N_14
REMARK    7  A    between atoms: C_17  and  O_18
REMARK    8  A    between atoms: C_23  and  O_24
REMARK    9  A    between atoms: O_24  and  C_25
REMARK                            x       y       z     vdW  Elec       q    Type
REMARK                         _______ _______ _______ _____ _____    ______ ____
ROOT
ATOM      1  N   UNL     1       3.019   7.050  18.170  0.00  0.00    +0.000 N 
ATOM      2  C   UNL     1       2.401   7.049  19.409  0.00  0.00    +0.000 C 
ATOM      3  O   UNL     1       2.475   6.167  20.259  0.00  0.00    +0.000 OA
ATOM      4  H   UNL     1       3.016   7.920  17.653  0.00  0.00    +0.000 HD
ENDROOT
BRANCH   1   7
ATOM      5  C   UNL     1       4.215   3.625  17.203  0.00  0.00    +0.000 A 
ATOM      6  C   UNL     1       3.484   4.636  17.838  0.00  0.00    +0.000 A 
ATOM      7  C   UNL     1       3.748   5.984  17.587  0.00  0.00    +0.000 A 
ATOM      8  C   UNL     1       4.768   6.305  16.682  0.00  0.00    +0.000 A 
ATOM      9  C   UNL     1       5.505   5.303  16.035  0.00  0.00    +0.000 A 
ATOM     10  C   UNL     1       5.226   3.961  16.302  0.00  0.00    +0.000 A 
BRANCH   5  12
ATOM     11  C   UNL     1       2.475   2.154  17.903  0.00  0.00    +0.000 C 
ATOM     12  O   UNL     1       3.833   2.352  17.534  0.00  0.00    +0.000 OA
ENDBRANCH   5  12
BRANCH   9  13
ATOM     13  O   UNL     1       6.458   5.758  15.163  0.00  0.00    +0.000 OA
ATOM     14  C   UNL     1       6.965   4.820  14.218  0.00  0.00    +0.000 C 
ENDBRANCH   9  13
ENDBRANCH   1   7
BRANCH   2  15
ATOM     15  C   UNL     1       1.623   8.276  19.753  0.00  0.00    +0.000 A 
ATOM     16  C   UNL     1       1.329   9.273  18.817  0.00  0.00    +0.000 A 
ATOM     17  C   UNL     1       0.601  10.409  19.205  0.00  0.00    +0.000 A 
ATOM     18  C   UNL     1       0.153  10.559  20.528  0.00  0.00    +0.000 A 
ATOM     19  C   UNL     1       0.420   9.534  21.446  0.00  0.00    +0.000 A 
ATOM     20  C   UNL     1       1.143   8.401  21.062  0.00  0.00    +0.000 A 
BRANCH  18  21
ATOM     21  C   UNL     1      -0.516  11.838  21.004  0.00  0.00    +0.000 C 
BRANCH  21  22
ATOM     22  N   UNL     1      -0.523  12.035  22.464  0.00  0.00    +0.000 NA
ATOM     23  C   UNL     1      -0.724  13.451  22.833  0.00  0.00    +0.000 C 
ATOM     24  C   UNL     1      -2.120  13.600  23.432  0.00  0.00    +0.000 C 
ATOM     25  C   UNL     1      -2.813  12.287  23.135  0.00  0.00    +0.000 C 
ATOM     26  C   UNL     1      -1.651  11.301  23.076  0.00  0.00    +0.000 C 
BRANCH  25  27
ATOM     27  O   UNL     1      -3.776  11.961  24.123  0.00  0.00    +0.000 OA
ATOM     28  H   UNL     1      -4.088  12.787  24.532  0.00  0.00    +0.000 HD
ENDBRANCH  25  27
ENDBRANCH  21  22
ENDBRANCH  18  21
ENDBRANCH   2  15
TORSDOF 7
ENDMDL
MODEL 4
REMARK VINA RESULT:      -7.4      1.581      2.006
REMARK  Name = 
REMARK  9 active torsions:
REMARK  status: ('A' for Active; 'I' for Inactive)
REMARK    1  A    between atoms: C_1  and  O_2
REMARK    2  A    between atoms: O_2  and  C_3
REMARK    3  A    between atoms: C_5  and  N_6
REMARK    4  A    between atoms: C_7  and  C_9
REMARK    5  A    between atoms: C_12  and  C_13
REMARK    6  A    between atoms: C_13  and  N_14
REMARK    7  A    between atoms: C_17  and  O_18
REMARK    8  A    between atoms: C_23  and  O_24
REMARK    9  A    between atoms: O_24  and  C_25
REMARK                            x       y       z     vdW  Elec       q    Type
REMARK                         _______ _______ _______ _____ _____    ______ ____
ROOT
ATOM      1  N   UNL     1       2.357   7.151  18.858  0.00  0.00    +0.000 N 
ATOM      2  C   UNL     1       1.945   8.429  18.519  0.00  0.00    +0.000 C 
ATOM      3  O   UNL     1       2.132   8.994  17.446  0.00  0.00    +0.000 OA
ATOM      4  H   UNL     1       1.976   6.752  19.706  0.00  0.00    +0.000 HD
ENDROOT
BRANCH   1   7
ATOM      5  C   UNL     1       5.193   5.799  16.802  0.00  0.00    +0.000 A 
ATOM      6  C   UNL     1       4.399   6.698  17.523  0.00  0.00    +0.000 A 
ATOM      7  C   UNL     1       3.187   6.297  18.088  0.00  0.00    +0.000 A 
ATOM      8  C   UNL     1       2.779   4.968  17.917  0.00  0.00    +0.000 A 
ATOM      9  C   UNL     1       3.568   4.055  17.202  0.00  0.00    +0.000 A 
ATOM     10  C   UNL     1       4.775   4.477  16.643  0.00  0.00    +0.000 A 
BRANCH   5  12
ATOM     11  C   UNL     1       7.282   6.847  17.272  0.00  0.00    +0.000 C 
ATOM     12  O   UNL     1       6.361   6.328  16.321  0.00  0.00    +0.000 OA
ENDBRANCH   5  12
BRANCH   9  13
ATOM     13  O   UNL     1       3.058   2.785  17.129  0.00  0.00    +0.000 OA
ATOM     14  C   UNL     1       2.125   2.408  18.138  0.00  0.00    +0.000 C 
ENDBRANCH   9  13
ENDBRANCH   1   7
BRANCH   2  15
ATOM     15  C   UNL     1       1.140   9.151  19.548  0.00  0.00    +0.000 A 
ATOM     16  C   UNL     1       0.270  10.199  19.229  0.00  0.00    +0.000 A 
ATOM     17  C   UNL     1      -0.455  10.844  20.244  0.00  0.00    +0.000 A 
ATOM     18  C   UNL     1      -0.324  10.447  21.585  0.00  0.00    +0.000 A 
ATOM     19  C   UNL     1       0.520   9.368  21.885  0.00  0.00    +0.000 A 
ATOM     20  C   UNL     1       1.241   8.723  20.877  0.00  0.00    +0.000 A 
BRANCH  18  21
ATOM     21  C   UNL     1      -0.991  11.215  22.714  0.00  0.00    +0.000 C 
BRANCH  21  22
ATOM     22  N   UNL     1      -1.802  12.371  22.293  0.00  0.00    +0.000 NA
ATOM     23  C   UNL     1      -3.035  12.507  23.094  0.00  0.00    +0.000 C 
ATOM     24  C   UNL     1      -2.891  13.729  23.997  0.00  0.00    +0.000 C 
ATOM     25  C   UNL     1      -1.431  14.119  23.894  0.00  0.00    +0.000 C 
ATOM     26  C   UNL     1      -1.051  13.628  22.501  0.00  0.00    +0.000 C 
BRANCH  25  27
ATOM     27  O   UNL     1      -1.244  15.514  24.067  0.00  0.00    +0.000 OA
ATOM     28  H   UNL     1      -0.930  15.671  24.974  0.00  0.00    +0.000 HD
ENDBRANCH  25  27
ENDBRANCH  21  22
ENDBRANCH  18  21
ENDBRANCH   2  15
TORSDOF 7
ENDMDL
MODEL 5
REMARK VINA RESULT:      -7.3      1.417      1.652
REMARK  Name = 
REMARK  9 active torsions:
REMARK  status: ('A' for Active; 'I' for Inactive)
REMARK    1  A    between atoms: C_1  and  O_2
REMARK    2  A    between atoms: O_2  and  C_3
REMARK    3  A    between atoms: C_5  and  N_6
REMARK    4  A    between atoms: C_7  and  C_9
REMARK    5  A    between atoms: C_12  and  C_13
REMARK    6  A    between atoms: C_13  and  N_14
REMARK    7  A    between atoms: C_17  and  O_18
REMARK    8  A    between atoms: C_23  and  O_24
REMARK    9  A    between atoms: O_24  and  C_25
REMARK                            x       y       z     vdW  Elec       q    Type
REMARK                         _______ _______ _______ _____ _____    ______ ____
ROOT
ATOM      1  N   UNL     1       2.222   7.250  19.135  0.00  0.00    +0.000 N 
ATOM      2  C   UNL     1       1.816   8.546  18.869  0.00  0.00    +0.000 C 
ATOM      3  O   UNL     1       1.966   9.154  17.813  0.00  0.00    +0.000 OA
ATOM      4  H   UNL     1       1.871   6.820  19.981  0.00  0.00    +0.000 HD
ENDROOT
BRANCH   1   7
ATOM      5  C   UNL     1       4.923   5.960  16.869  0.00  0.00    +0.000 A 
ATOM      6  C   UNL     1       4.173   6.839  17.659  0.00  0.00    +0.000 A 
ATOM      7  C   UNL     1       3.004   6.417  18.294  0.00  0.00    +0.000 A 
ATOM      8  C   UNL     1       2.593   5.089  18.122  0.00  0.00    +0.000 A 
ATOM      9  C   UNL     1       3.337   4.197  17.338  0.00  0.00    +0.000 A 
ATOM     10  C   UNL     1       4.503   4.639  16.709  0.00  0.00    +0.000 A 
BRANCH   5  12
ATOM     11  C   UNL     1       7.212   6.567  17.146  0.00  0.00    +0.000 C 
ATOM     12  O   UNL     1       6.054   6.507  16.324  0.00  0.00    +0.000 OA
ENDBRANCH   5  12
BRANCH   9  13
ATOM     13  O   UNL     1       2.831   2.926  17.271  0.00  0.00    +0.000 OA
ATOM     14  C   UNL     1       3.263   2.008  18.272  0.00  0.00    +0.000 C 
ENDBRANCH   9  13
ENDBRANCH   1   7
BRANCH   2  15
ATOM     15  C   UNL     1       1.068   9.235  19.962  0.00  0.00    +0.000 A 
ATOM     16  C   UNL     1       1.026   8.749  21.273  0.00  0.00    +0.000 A 
ATOM     17  C   UNL     1       0.297   9.438  22.255  0.00  0.00    +0.000 A 
ATOM     18  C   UNL     1      -0.393  10.621  21.941  0.00  0.00    +0.000 A 
ATOM     19  C   UNL     1      -0.310  11.118  20.633  0.00  0.00    +0.000 A 
ATOM     20  C   UNL     1       0.417  10.435  19.654  0.00  0.00    +0.000 A 
BRANCH  18  21
ATOM     21  C   UNL     1      -1.298  11.308  22.950  0.00  0.00    +0.000 C 
BRANCH  21  22
ATOM     22  N   UNL     1      -1.884  12.584  22.499  0.00  0.00    +0.000 NA
ATOM     23  C   UNL     1      -3.276  12.422  22.033  0.00  0.00    +0.000 C 
ATOM     24  C   UNL     1      -4.205  13.073  23.054  0.00  0.00    +0.000 C 
ATOM     25  C   UNL     1      -3.325  13.361  24.253  0.00  0.00    +0.000 C 
ATOM     26  C   UNL     1      -1.948  13.544  23.621  0.00  0.00    +0.000 C 
BRANCH  25  27
ATOM     27  O   UNL     1      -3.767  14.500  24.972  0.00  0.00    +0.000 OA
ATOM     28  H   UNL     1      -3.254  14.561  25.796  0.00  0.00    +0.000 HD
ENDBRANCH  25  27
ENDBRANCH  21  22
ENDBRANCH  18  21
ENDBRANCH   2  15
TORSDOF 7
ENDMDL
MODEL 6
REMARK VINA RESULT:      -7.3      1.067      1.462
REMARK  Name = 
REMARK  9 active torsions:
REMARK  status: ('A' for Active; 'I' for Inactive)
REMARK    1  A    between atoms: C_1  and  O_2
REMARK    2  A    between atoms: O_2  and  C_3
REMARK    3  A    between atoms: C_5  and  N_6
REMARK    4  A    between atoms: C_7  and  C_9
REMARK    5  A    between atoms: C_12  and  C_13
REMARK    6  A    between atoms: C_13  and  N_14
REMARK    7  A    between atoms: C_17  and  O_18
REMARK    8  A    between atoms: C_23  and  O_24
REMARK    9  A    between atoms: O_24  and  C_25
REMARK                            x       y       z     vdW  Elec       q    Type
REMARK                         _______ _______ _______ _____ _____    ______ ____
ROOT
ATOM      1  N   UNL     1       2.984   7.181  18.073  0.00  0.00    +0.000 N 
ATOM      2  C   UNL     1       2.445   7.172  19.348  0.00  0.00    +0.000 C 
ATOM      3  O   UNL     1       2.627   6.318  20.210  0.00  0.00    +0.000 OA
ATOM      4  H   UNL     1       2.895   8.037  17.539  0.00  0.00    +0.000 HD
ENDROOT
BRANCH   1   7
ATOM      5  C   UNL     1       5.544   5.314  16.058  0.00  0.00    +0.000 A 
ATOM      6  C   UNL     1       4.810   6.377  16.599  0.00  0.00    +0.000 A 
ATOM      7  C   UNL     1       3.741   6.147  17.466  0.00  0.00    +0.000 A 
ATOM      8  C   UNL     1       3.414   4.823  17.784  0.00  0.00    +0.000 A 
ATOM      9  C   UNL     1       4.143   3.749  17.254  0.00  0.00    +0.000 A 
ATOM     10  C   UNL     1       5.208   4.001  16.387  0.00  0.00    +0.000 A 
BRANCH   5  12
ATOM     11  C   UNL     1       7.020   4.748  14.274  0.00  0.00    +0.000 C 
ATOM     12  O   UNL     1       6.574   5.692  15.238  0.00  0.00    +0.000 OA
ENDBRANCH   5  12
BRANCH   9  13
ATOM     13  O   UNL     1       3.727   2.510  17.664  0.00  0.00    +0.000 OA
ATOM     14  C   UNL     1       2.321   2.314  17.789  0.00  0.00    +0.000 C 
ENDBRANCH   9  13
ENDBRANCH   1   7
BRANCH   2  15
ATOM     15  C   UNL     1       1.616   8.358  19.716  0.00  0.00    +0.000 A 
ATOM     16  C   UNL     1       1.285   9.363  18.800  0.00  0.00    +0.000 A 
ATOM     17  C   UNL     1       0.508  10.458  19.209  0.00  0.00    +0.000 A 
ATOM     18  C   UNL     1       0.048  10.560  20.533  0.00  0.00    +0.000 A 
ATOM     19  C   UNL     1       0.353   9.526  21.429  0.00  0.00    +0.000 A 
ATOM     20  C   UNL     1       1.124   8.433  21.024  0.00  0.00    +0.000 A 
BRANCH  18  21
ATOM     21  C   UNL     1      -0.676  11.798  21.034  0.00  0.00    +0.000 C 
BRANCH  21  22
ATOM     22  N   UNL     1      -0.633  12.003  22.493  0.00  0.00    +0.000 NA
ATOM     23  C   UNL     1      -0.813  13.422  22.861  0.00  0.00    +0.000 C 
ATOM     24  C   UNL     1      -2.186  13.582  23.507  0.00  0.00    +0.000 C 
ATOM     25  C   UNL     1      -2.897  12.271  23.239  0.00  0.00    +0.000 C 
ATOM     26  C   UNL     1      -1.743  11.278  23.146  0.00  0.00    +0.000 C 
BRANCH  25  27
ATOM     27  O   UNL     1      -3.827  11.956  24.262  0.00  0.00    +0.000 OA
ATOM     28  H   UNL     1      -4.013  11.001  24.225  0.00  0.00    +0.000 HD
ENDBRANCH  25  27
ENDBRANCH  21  22
ENDBRANCH  18  21
ENDBRANCH   2  15
TORSDOF 7
ENDMDL
MODEL 7
REMARK VINA RESULT:      -7.2      1.453      2.868
REMARK  Name = 
REMARK  9 active torsions:
REMARK  status: ('A' for Active; 'I' for Inactive)
REMARK    1  A    between atoms: C_1  and  O_2
REMARK    2  A    between atoms: O_2  and  C_3
REMARK    3  A    between atoms: C_5  and  N_6
REMARK    4  A    between atoms: C_7  and  C_9
REMARK    5  A    between atoms: C_12  and  C_13
REMARK    6  A    between atoms: C_13  and  N_14
REMARK    7  A    between atoms: C_17  and  O_18
REMARK    8  A    between atoms: C_23  and  O_24
REMARK    9  A    between atoms: O_24  and  C_25
REMARK                            x       y       z     vdW  Elec       q    Type
REMARK                         _______ _______ _______ _____ _____    ______ ____
ROOT
ATOM      1  N   UNL     1       2.233   7.225  19.257  0.00  0.00    +0.000 N 
ATOM      2  C   UNL     1       1.713   8.462  18.915  0.00  0.00    +0.000 C 
ATOM      3  O   UNL     1       1.743   8.982  17.804  0.00  0.00    +0.000 OA
ATOM      4  H   UNL     1       1.975   6.848  20.160  0.00  0.00    +0.000 HD
ENDROOT
BRANCH   1   7
ATOM      5  C   UNL     1       3.474   4.273  17.296  0.00  0.00    +0.000 A 
ATOM      6  C   UNL     1       2.681   5.051  18.149  0.00  0.00    +0.000 A 
ATOM      7  C   UNL     1       3.014   6.377  18.431  0.00  0.00    +0.000 A 
ATOM      8  C   UNL     1       4.166   6.915  17.843  0.00  0.00    +0.000 A 
ATOM      9  C   UNL     1       4.965   6.148  16.983  0.00  0.00    +0.000 A 
ATOM     10  C   UNL     1       4.616   4.824  16.715  0.00  0.00    +0.000 A 
BRANCH   5  12
ATOM     11  C   UNL     1       3.207   2.063  18.152  0.00  0.00    +0.000 C 
ATOM     12  O   UNL     1       3.015   2.997  17.098  0.00  0.00    +0.000 OA
ENDBRANCH   5  12
BRANCH   9  13
ATOM     13  O   UNL     1       6.050   6.806  16.464  0.00  0.00    +0.000 OA
ATOM     14  C   UNL     1       7.129   7.069  17.357  0.00  0.00    +0.000 C 
ENDBRANCH   9  13
ENDBRANCH   1   7
BRANCH   2  15
ATOM     15  C   UNL     1       0.993   9.191  20.000  0.00  0.00    +0.000 A 
ATOM     16  C   UNL     1       0.909   8.707  21.310  0.00  0.00    +0.000 A 
ATOM     17  C   UNL     1       0.210   9.436  22.285  0.00  0.00    +0.000 A 
ATOM     18  C   UNL     1      -0.407  10.657  21.966  0.00  0.00    +0.000 A 
ATOM     19  C   UNL     1      -0.280  11.151  20.660  0.00  0.00    +0.000 A 
ATOM     20  C   UNL     1       0.417  10.428  19.687  0.00  0.00    +0.000 A 
BRANCH  18  21
ATOM     21  C   UNL     1      -1.282  11.396  22.965  0.00  0.00    +0.000 C 
BRANCH  21  22
ATOM     22  N   UNL     1      -1.853  12.665  22.481  0.00  0.00    +0.000 NA
ATOM     23  C   UNL     1      -3.225  12.496  21.961  0.00  0.00    +0.000 C 
ATOM     24  C   UNL     1      -4.195  13.153  22.939  0.00  0.00    +0.000 C 
ATOM     25  C   UNL     1      -3.364  13.453  24.169  0.00  0.00    +0.000 C 
ATOM     26  C   UNL     1      -1.964  13.634  23.591  0.00  0.00    +0.000 C 
BRANCH  25  27
ATOM     27  O   UNL     1      -3.837  14.597  24.861  0.00  0.00    +0.000 OA
ATOM     28  H   UNL     1      -3.086  15.195  25.017  0.00  0.00    +0.000 HD
ENDBRANCH  25  27
ENDBRANCH  21  22
ENDBRANCH  18  21
ENDBRANCH   2  15
TORSDOF 7
ENDMDL
MODEL 8
REMARK VINA RESULT:      -7.2      2.883      3.996
REMARK  Name = 
REMARK  9 active torsions:
REMARK  status: ('A' for Active; 'I' for Inactive)
REMARK    1  A    between atoms: C_1  and  O_2
REMARK    2  A    between atoms: O_2  and  C_3
REMARK    3  A    between atoms: C_5  and  N_6
REMARK    4  A    between atoms: C_7  and  C_9
REMARK    5  A    between atoms: C_12  and  C_13
REMARK    6  A    between atoms: C_13  and  N_14
REMARK    7  A    between atoms: C_17  and  O_18
REMARK    8  A    between atoms: C_23  and  O_24
REMARK    9  A    between atoms: O_24  and  C_25
REMARK                            x       y       z     vdW  Elec       q    Type
REMARK                         _______ _______ _______ _____ _____    ______ ____
ROOT
ATOM      1  N   UNL     1       4.008   7.050  17.627  0.00  0.00    +0.000 N 
ATOM      2  C   UNL     1       3.054   6.810  18.602  0.00  0.00    +0.000 C 
ATOM      3  O   UNL     1       2.959   5.803  19.296  0.00  0.00    +0.000 OA
ATOM      4  H   UNL     1       4.074   7.994  17.266  0.00  0.00    +0.000 HD
ENDROOT
BRANCH   1   7
ATOM      5  C   UNL     1       5.940   4.690  15.438  0.00  0.00    +0.000 A 
ATOM      6  C   UNL     1       4.936   5.563  15.871  0.00  0.00    +0.000 A 
ATOM      7  C   UNL     1       4.975   6.132  17.145  0.00  0.00    +0.000 A 
ATOM      8  C   UNL     1       6.047   5.809  17.987  0.00  0.00    +0.000 A 
ATOM      9  C   UNL     1       7.063   4.940  17.564  0.00  0.00    +0.000 A 
ATOM     10  C   UNL     1       7.003   4.379  16.287  0.00  0.00    +0.000 A 
BRANCH   5  12
ATOM     11  C   UNL     1       6.911   4.263  13.303  0.00  0.00    +0.000 C 
ATOM     12  O   UNL     1       5.778   4.223  14.161  0.00  0.00    +0.000 OA
ENDBRANCH   5  12
BRANCH   9  13
ATOM     13  O   UNL     1       8.059   4.726  18.481  0.00  0.00    +0.000 OA
ATOM     14  C   UNL     1       8.076   5.580  19.621  0.00  0.00    +0.000 C 
ENDBRANCH   9  13
ENDBRANCH   1   7
BRANCH   2  15
ATOM     15  C   UNL     1       2.096   7.924  18.867  0.00  0.00    +0.000 A 
ATOM     16  C   UNL     1       1.579   8.735  17.851  0.00  0.00    +0.000 A 
ATOM     17  C   UNL     1       0.687   9.773  18.166  0.00  0.00    +0.000 A 
ATOM     18  C   UNL     1       0.298  10.009  19.495  0.00  0.00    +0.000 A 
ATOM     19  C   UNL     1       0.792   9.163  20.498  0.00  0.00    +0.000 A 
ATOM     20  C   UNL     1       1.678   8.128  20.187  0.00  0.00    +0.000 A 
BRANCH  18  21
ATOM     21  C   UNL     1      -0.556  11.207  19.876  0.00  0.00    +0.000 C 
BRANCH  21  22
ATOM     22  N   UNL     1       0.194  12.398  20.312  0.00  0.00    +0.000 NA
ATOM     23  C   UNL     1       1.421  12.605  19.517  0.00  0.00    +0.000 C 
ATOM     24  C   UNL     1       1.218  13.827  18.626  0.00  0.00    +0.000 C 
ATOM     25  C   UNL     1      -0.260  14.142  18.729  0.00  0.00    +0.000 C 
ATOM     26  C   UNL     1      -0.618  13.617  20.116  0.00  0.00    +0.000 C 
BRANCH  25  27
ATOM     27  O   UNL     1      -0.518  15.527  18.570  0.00  0.00    +0.000 OA
ATOM     28  H   UNL     1      -1.465  15.643  18.381  0.00  0.00    +0.000 HD
ENDBRANCH  25  27
ENDBRANCH  21  22
ENDBRANCH  18  21
ENDBRANCH   2  15
TORSDOF 7
ENDMDL
MODEL 9
REMARK VINA RESULT:      -7.2      1.327      1.437
REMARK  Name = 
REMARK  9 active torsions:
REMARK  status: ('A' for Active; 'I' for Inactive)
REMARK    1  A    between atoms: C_1  and  O_2
REMARK    2  A    between atoms: O_2  and  C_3
REMARK    3  A    between atoms: C_5  and  N_6
REMARK    4  A    between atoms: C_7  and  C_9
REMARK    5  A    between atoms: C_12  and  C_13
REMARK    6  A    between atoms: C_13  and  N_14
REMARK    7  A    between atoms: C_17  and  O_18
REMARK    8  A    between atoms: C_23  and  O_24
REMARK    9  A    between atoms: O_24  and  C_25
REMARK                            x       y       z     vdW  Elec       q    Type
REMARK                         _______ _______ _______ _____ _____    ______ ____
ROOT
ATOM      1  N   UNL     1       2.228   7.384  18.878  0.00  0.00    +0.000 N 
ATOM      2  C   UNL     1       1.962   8.612  18.296  0.00  0.00    +0.000 C 
ATOM      3  O   UNL     1       2.260   8.958  17.157  0.00  0.00    +0.000 OA
ATOM      4  H   UNL     1       1.764   7.178  19.754  0.00  0.00    +0.000 HD
ENDROOT
BRANCH   1   7
ATOM      5  C   UNL     1       5.023   5.441  17.294  0.00  0.00    +0.000 A 
ATOM      6  C   UNL     1       4.284   6.522  17.791  0.00  0.00    +0.000 A 
ATOM      7  C   UNL     1       3.008   6.337  18.327  0.00  0.00    +0.000 A 
ATOM      8  C   UNL     1       2.478   5.040  18.354  0.00  0.00    +0.000 A 
ATOM      9  C   UNL     1       3.209   3.949  17.864  0.00  0.00    +0.000 A 
ATOM     10  C   UNL     1       4.482   4.156  17.330  0.00  0.00    +0.000 A 
BRANCH   5  12
ATOM     11  C   UNL     1       6.798   4.964  15.775  0.00  0.00    +0.000 C 
ATOM     12  O   UNL     1       6.264   5.771  16.817  0.00  0.00    +0.000 OA
ENDBRANCH   5  12
BRANCH   9  13
ATOM     13  O   UNL     1       2.578   2.737  17.969  0.00  0.00    +0.000 OA
ATOM     14  C   UNL     1       3.407   1.598  18.186  0.00  0.00    +0.000 C 
ENDBRANCH   9  13
ENDBRANCH   1   7
BRANCH   2  15
ATOM     15  C   UNL     1       1.179   9.574  19.127  0.00  0.00    +0.000 A 
ATOM     16  C   UNL     1       0.784   9.293  20.440  0.00  0.00    +0.000 A 
ATOM     17  C   UNL     1       0.041  10.236  21.167  0.00  0.00    +0.000 A 
ATOM     18  C   UNL     1      -0.311  11.470  20.595  0.00  0.00    +0.000 A 
ATOM     19  C   UNL     1       0.125  11.755  19.294  0.00  0.00    +0.000 A 
ATOM     20  C   UNL     1       0.866  10.819  18.568  0.00  0.00    +0.000 A 
BRANCH  18  21
ATOM     21  C   UNL     1      -1.229  12.448  21.310  0.00  0.00    +0.000 C 
BRANCH  21  22
ATOM     22  N   UNL     1      -1.186  12.387  22.782  0.00  0.00    +0.000 NA
ATOM     23  C   UNL     1      -1.330  13.721  23.399  0.00  0.00    +0.000 C 
ATOM     24  C   UNL     1      -2.701  13.800  24.063  0.00  0.00    +0.000 C 
ATOM     25  C   UNL     1      -3.445  12.578  23.566  0.00  0.00    +0.000 C 
ATOM     26  C   UNL     1      -2.318  11.587  23.295  0.00  0.00    +0.000 C 
BRANCH  25  27
ATOM     27  O   UNL     1      -4.388  12.110  24.516  0.00  0.00    +0.000 OA
ATOM     28  H   UNL     1      -4.872  12.875  24.871  0.00  0.00    +0.000 HD
ENDBRANCH  25  27
ENDBRANCH  21  22
ENDBRANCH  18  21
ENDBRANCH   2  15
TORSDOF 7
ENDMDL
