MODEL 1
REMARK VINA RESULT:      -7.2      0.000      0.000
REMARK  Name = 
REMARK  13 active torsions:
REMARK  status: ('A' for Active; 'I' for Inactive)
REMARK    1  A    between atoms: C_1  and  O_2
REMARK    2  A    between atoms: O_2  and  C_3
REMARK    3  A    between atoms: C_7  and  C_8
REMARK    4  A    between atoms: C_8  and  C_9
REMARK    5  A    between atoms: C_9  and  C_10
REMARK    6  A    between atoms: C_15  and  O_16
REMARK    7  A    between atoms: O_16  and  C_17
REMARK    8  A    between atoms: C_17  and  C_18
REMARK    9  A    between atoms: C_18  and  C_19
REMARK   10  A    between atoms: C_19  and  C_20
REMARK   11  A    between atoms: C_20  and  C_21
REMARK   12  A    between atoms: C_21  and  N_22
REMARK   13  A    between atoms: N_25  and  C_26
REMARK                            x       y       z     vdW  Elec       q    Type
REMARK                         _______ _______ _______ _____ _____    ______ ____
ROOT
ATOM      1  C   UNL     1       2.675   4.272  18.385  0.00  0.00    +0.000 A 
ATOM      2  C   UNL     1       2.630   2.866  18.256  0.00  0.00    +0.000 A 
ATOM      3  C   UNL     1       1.853   2.078  19.109  0.00  0.00    +0.000 A 
ATOM      4  C   UNL     1       1.127   2.681  20.125  0.00  0.00    +0.000 A 
ATOM      5  C   UNL     1       1.194   4.063  20.297  0.00  0.00    +0.000 A 
ATOM      6  C   UNL     1       1.981   4.868  19.452  0.00  0.00    +0.000 A 
ENDROOT
BRANCH   1   7
ATOM      7  C   UNL     1       3.467   5.086  17.386  0.00  0.00    +0.000 C 
BRANCH   7   8
ATOM      8  C   UNL     1       4.838   4.580  16.929  0.00  0.00    +0.000 C 
BRANCH   8  13
ATOM      9  C   UNL     1       7.312   7.400  17.623  0.00  0.00    +0.000 A 
ATOM     10  C   UNL     1       8.031   6.880  18.697  0.00  0.00    +0.000 A 
ATOM     11  C   UNL     1       7.707   5.628  19.221  0.00  0.00    +0.000 A 
ATOM     12  C   UNL     1       6.664   4.886  18.665  0.00  0.00    +0.000 A 
ATOM     13  C   UNL     1       5.938   5.393  17.577  0.00  0.00    +0.000 A 
ATOM     14  C   UNL     1       6.288   6.645  17.049  0.00  0.00    +0.000 A 
BRANCH   9  16
ATOM     15  C   UNL     1       8.466   9.391  18.121  0.00  0.00    +0.000 C 
ATOM     16  O   UNL     1       7.712   8.633  17.180  0.00  0.00    +0.000 OA
ENDBRANCH   9  16
ENDBRANCH   8  13
ENDBRANCH   7   8
ENDBRANCH   1   7
BRANCH   6  17
ATOM     17  O   UNL     1       1.857   6.211  19.710  0.00  0.00    +0.000 OA
BRANCH  17  18
ATOM     18  C   UNL     1       1.552   6.622  21.044  0.00  0.00    +0.000 C 
BRANCH  18  19
ATOM     19  C   UNL     1       1.426   8.149  21.093  0.00  0.00    +0.000 C 
BRANCH  19  20
ATOM     20  C   UNL     1       0.024   8.613  21.486  0.00  0.00    +0.000 C 
BRANCH  20  21
ATOM     21  C   UNL     1       0.034   9.812  22.451  0.00  0.00    +0.000 C 
BRANCH  21  22
ATOM     22  C   UNL     1      -0.781  11.013  21.942  0.00  0.00    +0.000 C 
BRANCH  22  23
ATOM     23  N   UNL     1      -0.553  11.351  20.525  0.00  0.00    +0.000 NA
ATOM     24  C   UNL     1       0.722  12.092  20.390  0.00  0.00    +0.000 C 
ATOM     25  C   UNL     1       1.015  12.523  18.934  0.00  0.00    +0.000 C 
ATOM     26  N   UNL     1      -0.057  13.305  18.290  0.00  0.00    +0.000 NA
ATOM     27  C   UNL     1      -0.110  14.674  18.792  0.00  0.00    +0.000 C 
ATOM     28  C   UNL     1      -1.340  12.602  18.478  0.00  0.00    +0.000 C 
ATOM     29  C   UNL     1      -1.646  12.144  19.928  0.00  0.00    +0.000 C 
ENDBRANCH  22  23
ENDBRANCH  21  22
ENDBRANCH  20  21
ENDBRANCH  19  20
ENDBRANCH  18  19
ENDBRANCH  17  18
ENDBRANCH   6  17
TORSDOF 11
ENDMDL
MODEL 2
REMARK VINA RESULT:      -7.1      1.951      2.730
REMARK  Name = 
REMARK  13 active torsions:
REMARK  status: ('A' for Active; 'I' for Inactive)
REMARK    1  A    between atoms: C_1  and  O_2
REMARK    2  A    between atoms: O_2  and  C_3
REMARK    3  A    between atoms: C_7  and  C_8
REMARK    4  A    between atoms: C_8  and  C_9
REMARK    5  A    between atoms: C_9  and  C_10
REMARK    6  A    between atoms: C_15  and  O_16
REMARK    7  A    between atoms: O_16  and  C_17
REMARK    8  A    between atoms: C_17  and  C_18
REMARK    9  A    between atoms: C_18  and  C_19
REMARK   10  A    between atoms: C_19  and  C_20
REMARK   11  A    between atoms: C_20  and  C_21
REMARK   12  A    between atoms: C_21  and  N_22
REMARK   13  A    between atoms: N_25  and  C_26
REMARK                            x       y       z     vdW  Elec       q    Type
REMARK                         _______ _______ _______ _____ _____    ______ ____
ROOT
ATOM      1  C   UNL     1       2.235   3.563  18.760  0.00  0.00    +0.000 A 
ATOM      2  C   UNL     1       2.197   2.301  19.394  0.00  0.00    +0.000 A 
ATOM      3  C   UNL     1       1.753   2.157  20.710  0.00  0.00    +0.000 A 
ATOM      4  C   UNL     1       1.364   3.279  21.427  0.00  0.00    +0.000 A 
ATOM      5  C   UNL     1       1.436   4.538  20.834  0.00  0.00    +0.000 A 
ATOM      6  C   UNL     1       1.892   4.699  19.511  0.00  0.00    +0.000 A 
ENDROOT
BRANCH   1   7
ATOM      7  C   UNL     1       2.647   3.653  17.307  0.00  0.00    +0.000 C 
BRANCH   7   8
ATOM      8  C   UNL     1       3.950   2.988  16.856  0.00  0.00    +0.000 C 
BRANCH   8  13
ATOM      9  C   UNL     1       6.856   5.132  15.628  0.00  0.00    +0.000 A 
ATOM     10  C   UNL     1       7.222   5.799  16.796  0.00  0.00    +0.000 A 
ATOM     11  C   UNL     1       6.519   5.579  17.981  0.00  0.00    +0.000 A 
ATOM     12  C   UNL     1       5.448   4.684  18.004  0.00  0.00    +0.000 A 
ATOM     13  C   UNL     1       5.075   4.000  16.838  0.00  0.00    +0.000 A 
ATOM     14  C   UNL     1       5.804   4.217  15.658  0.00  0.00    +0.000 A 
BRANCH   9  16
ATOM     15  C   UNL     1       7.248   4.691  13.349  0.00  0.00    +0.000 C 
ATOM     16  O   UNL     1       7.612   5.413  14.521  0.00  0.00    +0.000 OA
ENDBRANCH   9  16
ENDBRANCH   8  13
ENDBRANCH   7   8
ENDBRANCH   1   7
BRANCH   6  17
ATOM     17  O   UNL     1       1.812   5.995  19.063  0.00  0.00    +0.000 OA
BRANCH  17  18
ATOM     18  C   UNL     1       2.926   6.861  19.284  0.00  0.00    +0.000 C 
BRANCH  18  19
ATOM     19  C   UNL     1       3.075   7.816  18.093  0.00  0.00    +0.000 C 
BRANCH  19  20
ATOM     20  C   UNL     1       1.732   8.335  17.582  0.00  0.00    +0.000 C 
BRANCH  20  21
ATOM     21  C   UNL     1       1.345   9.699  18.181  0.00  0.00    +0.000 C 
BRANCH  21  22
ATOM     22  C   UNL     1       0.914   9.618  19.655  0.00  0.00    +0.000 C 
BRANCH  22  23
ATOM     23  N   UNL     1      -0.348  10.317  19.963  0.00  0.00    +0.000 NA
ATOM     24  C   UNL     1      -0.725  11.185  18.824  0.00  0.00    +0.000 C 
ATOM     25  C   UNL     1      -2.021  11.989  19.086  0.00  0.00    +0.000 C 
ATOM     26  N   UNL     1      -2.011  12.800  20.318  0.00  0.00    +0.000 NA
ATOM     27  C   UNL     1      -1.179  13.992  20.178  0.00  0.00    +0.000 C 
ATOM     28  C   UNL     1      -1.572  11.954  21.443  0.00  0.00    +0.000 C 
ATOM     29  C   UNL     1      -0.285  11.126  21.196  0.00  0.00    +0.000 C 
ENDBRANCH  22  23
ENDBRANCH  21  22
ENDBRANCH  20  21
ENDBRANCH  19  20
ENDBRANCH  18  19
ENDBRANCH  17  18
ENDBRANCH   6  17
TORSDOF 11
ENDMDL
MODEL 3
REMARK VINA RESULT:      -7.1      3.297      8.660
REMARK  Name = 
REMARK  13 active torsions:
REMARK  status: ('A' for Active; 'I' for Inactive)
REMARK    1  A    between atoms: C_1  and  O_2
REMARK    2  A    between atoms: O_2  and  C_3
REMARK    3  A    between atoms: C_7  and  C_8
REMARK    4  A    between atoms: C_8  and  C_9
REMARK    5  A    between atoms: C_9  and  C_10
REMARK    6  A    between atoms: C_15  and  O_16
REMARK    7  A    between atoms: O_16  and  C_17
REMARK    8  A    between atoms: C_17  and  C_18
REMARK    9  A    between atoms: C_18  and  C_19
REMARK   10  A    between atoms: C_19  and  C_20
REMARK   11  A    between atoms: C_20  and  C_21
REMARK   12  A    between atoms: C_21  and  N_22
REMARK   13  A    between atoms: N_25  and  C_26
REMARK                            x       y       z     vdW  Elec       q    Type
REMARK                         _______ _______ _______ _____ _____    ______ ____
ROOT
ATOM      1  C   UNL     1       1.460   8.161  19.984  0.00  0.00    +0.000 A 
ATOM      2  C   UNL     1       1.440   9.179  19.005  0.00  0.00    +0.000 A 
ATOM      3  C   UNL     1       2.101   9.031  17.783  0.00  0.00    +0.000 A 
ATOM      4  C   UNL     1       2.818   7.871  17.530  0.00  0.00    +0.000 A 
ATOM      5  C   UNL     1       2.887   6.874  18.501  0.00  0.00    +0.000 A 
ATOM      6  C   UNL     1       2.234   7.014  19.741  0.00  0.00    +0.000 A 
ENDROOT
BRANCH   1   7
ATOM      7  C   UNL     1       0.660   8.337  21.256  0.00  0.00    +0.000 C 
BRANCH   7   8
ATOM      8  C   UNL     1       0.935   9.550  22.150  0.00  0.00    +0.000 C 
BRANCH   8  13
ATOM      9  C   UNL     1      -1.514  12.172  20.853  0.00  0.00    +0.000 A 
ATOM     10  C   UNL     1      -2.312  12.386  21.975  0.00  0.00    +0.000 A 
ATOM     11  C   UNL     1      -2.081  11.668  23.150  0.00  0.00    +0.000 A 
ATOM     12  C   UNL     1      -1.043  10.737  23.208  0.00  0.00    +0.000 A 
ATOM     13  C   UNL     1      -0.227  10.518  22.089  0.00  0.00    +0.000 A 
ATOM     14  C   UNL     1      -0.460  11.261  20.921  0.00  0.00    +0.000 A 
BRANCH   9  16
ATOM     15  C   UNL     1      -0.852  12.885  18.709  0.00  0.00    +0.000 C 
ATOM     16  O   UNL     1      -1.819  12.929  19.753  0.00  0.00    +0.000 OA
ENDBRANCH   9  16
ENDBRANCH   8  13
ENDBRANCH   7   8
ENDBRANCH   1   7
BRANCH   6  17
ATOM     17  O   UNL     1       2.335   5.900  20.537  0.00  0.00    +0.000 OA
BRANCH  17  18
ATOM     18  C   UNL     1       1.255   4.964  20.538  0.00  0.00    +0.000 C 
BRANCH  18  19
ATOM     19  C   UNL     1       1.235   4.205  19.206  0.00  0.00    +0.000 C 
BRANCH  19  20
ATOM     20  C   UNL     1       1.240   2.687  19.393  0.00  0.00    +0.000 C 
BRANCH  20  21
ATOM     21  C   UNL     1       2.642   2.068  19.250  0.00  0.00    +0.000 C 
BRANCH  21  22
ATOM     22  C   UNL     1       3.347   2.449  17.937  0.00  0.00    +0.000 C 
BRANCH  22  23
ATOM     23  N   UNL     1       4.074   3.732  17.983  0.00  0.00    +0.000 NA
ATOM     24  C   UNL     1       4.794   3.941  16.706  0.00  0.00    +0.000 C 
ATOM     25  C   UNL     1       5.619   5.249  16.689  0.00  0.00    +0.000 C 
ATOM     26  N   UNL     1       6.576   5.395  17.802  0.00  0.00    +0.000 NA
ATOM     27  C   UNL     1       7.744   4.536  17.632  0.00  0.00    +0.000 C 
ATOM     28  C   UNL     1       5.876   5.124  19.072  0.00  0.00    +0.000 C 
ATOM     29  C   UNL     1       5.028   3.826  19.105  0.00  0.00    +0.000 C 
ENDBRANCH  22  23
ENDBRANCH  21  22
ENDBRANCH  20  21
ENDBRANCH  19  20
ENDBRANCH  18  19
ENDBRANCH  17  18
ENDBRANCH   6  17
TORSDOF 11
ENDMDL
MODEL 4
REMARK VINA RESULT:      -7.1      4.968      7.863
REMARK  Name = 
REMARK  13 active torsions:
REMARK  status: ('A' for Active; 'I' for Inactive)
REMARK    1  A    between atoms: C_1  and  O_2
REMARK    2  A    between atoms: O_2  and  C_3
REMARK    3  A    between atoms: C_7  and  C_8
REMARK    4  A    between atoms: C_8  and  C_9
REMARK    5  A    between atoms: C_9  and  C_10
REMARK    6  A    between atoms: C_15  and  O_16
REMARK    7  A    between atoms: O_16  and  C_17
REMARK    8  A    between atoms: C_17  and  C_18
REMARK    9  A    between atoms: C_18  and  C_19
REMARK   10  A    between atoms: C_19  and  C_20
REMARK   11  A    between atoms: C_20  and  C_21
REMARK   12  A    between atoms: C_21  and  N_22
REMARK   13  A    between atoms: N_25  and  C_26
REMARK                            x       y       z     vdW  Elec       q    Type
REMARK                         _______ _______ _______ _____ _____    ______ ____
ROOT
ATOM      1  C   UNL     1       5.469   5.560  16.872  0.00  0.00    +0.000 A 
ATOM      2  C   UNL     1       4.878   5.294  15.617  0.00  0.00    +0.000 A 
ATOM      3  C   UNL     1       5.612   4.739  14.566  0.00  0.00    +0.000 A 
ATOM      4  C   UNL     1       6.960   4.466  14.743  0.00  0.00    +0.000 A 
ATOM      5  C   UNL     1       7.572   4.762  15.959  0.00  0.00    +0.000 A 
ATOM      6  C   UNL     1       6.847   5.330  17.024  0.00  0.00    +0.000 A 
ENDROOT
BRANCH   1   7
ATOM      7  C   UNL     1       4.611   6.084  18.003  0.00  0.00    +0.000 C 
BRANCH   7   8
ATOM      8  C   UNL     1       3.089   5.942  17.913  0.00  0.00    +0.000 C 
BRANCH   8  13
ATOM      9  C   UNL     1       3.056   2.921  20.242  0.00  0.00    +0.000 A 
ATOM     10  C   UNL     1       1.883   2.280  19.849  0.00  0.00    +0.000 A 
ATOM     11  C   UNL     1       1.082   2.831  18.847  0.00  0.00    +0.000 A 
ATOM     12  C   UNL     1       1.458   4.024  18.229  0.00  0.00    +0.000 A 
ATOM     13  C   UNL     1       2.641   4.675  18.608  0.00  0.00    +0.000 A 
ATOM     14  C   UNL     1       3.445   4.099  19.604  0.00  0.00    +0.000 A 
BRANCH   9  16
ATOM     15  C   UNL     1       4.856   1.495  20.765  0.00  0.00    +0.000 C 
ATOM     16  O   UNL     1       3.773   2.296  21.228  0.00  0.00    +0.000 OA
ENDBRANCH   9  16
ENDBRANCH   8  13
ENDBRANCH   7   8
ENDBRANCH   1   7
BRANCH   6  17
ATOM     17  O   UNL     1       7.587   5.471  18.172  0.00  0.00    +0.000 OA
BRANCH  17  18
ATOM     18  C   UNL     1       7.792   6.786  18.693  0.00  0.00    +0.000 C 
BRANCH  18  19
ATOM     19  C   UNL     1       7.992   7.770  17.534  0.00  0.00    +0.000 C 
BRANCH  19  20
ATOM     20  C   UNL     1       7.837   9.228  17.966  0.00  0.00    +0.000 C 
BRANCH  20  21
ATOM     21  C   UNL     1       9.089   9.785  18.666  0.00  0.00    +0.000 C 
BRANCH  21  22
ATOM     22  C   UNL     1       9.694  11.007  17.954  0.00  0.00    +0.000 C 
BRANCH  22  23
ATOM     23  N   UNL     1       9.627  12.261  18.726  0.00  0.00    +0.000 NA
ATOM     24  C   UNL     1       8.570  13.134  18.165  0.00  0.00    +0.000 C 
ATOM     25  C   UNL     1       8.464  14.494  18.895  0.00  0.00    +0.000 C 
ATOM     26  N   UNL     1       9.723  15.260  18.968  0.00  0.00    +0.000 NA
ATOM     27  C   UNL     1      10.069  15.861  17.683  0.00  0.00    +0.000 C 
ATOM     28  C   UNL     1      10.793  14.375  19.465  0.00  0.00    +0.000 C 
ATOM     29  C   UNL     1      10.905  12.999  18.760  0.00  0.00    +0.000 C 
ENDBRANCH  22  23
ENDBRANCH  21  22
ENDBRANCH  20  21
ENDBRANCH  19  20
ENDBRANCH  18  19
ENDBRANCH  17  18
ENDBRANCH   6  17
TORSDOF 11
ENDMDL
MODEL 5
REMARK VINA RESULT:      -7.1      3.546      7.633
REMARK  Name = 
REMARK  13 active torsions:
REMARK  status: ('A' for Active; 'I' for Inactive)
REMARK    1  A    between atoms: C_1  and  O_2
REMARK    2  A    between atoms: O_2  and  C_3
REMARK    3  A    between atoms: C_7  and  C_8
REMARK    4  A    between atoms: C_8  and  C_9
REMARK    5  A    between atoms: C_9  and  C_10
REMARK    6  A    between atoms: C_15  and  O_16
REMARK    7  A    between atoms: O_16  and  C_17
REMARK    8  A    between atoms: C_17  and  C_18
REMARK    9  A    between atoms: C_18  and  C_19
REMARK   10  A    between atoms: C_19  and  C_20
REMARK   11  A    between atoms: C_20  and  C_21
REMARK   12  A    between atoms: C_21  and  N_22
REMARK   13  A    between atoms: N_25  and  C_26
REMARK                            x       y       z     vdW  Elec       q    Type
REMARK                         _______ _______ _______ _____ _____    ______ ____
ROOT
ATOM      1  C   UNL     1       3.128   5.883  17.842  0.00  0.00    +0.000 A 
ATOM      2  C   UNL     1       2.015   5.119  18.258  0.00  0.00    +0.000 A 
ATOM      3  C   UNL     1       1.941   3.745  18.021  0.00  0.00    +0.000 A 
ATOM      4  C   UNL     1       2.968   3.113  17.336  0.00  0.00    +0.000 A 
ATOM      5  C   UNL     1       4.054   3.857  16.878  0.00  0.00    +0.000 A 
ATOM      6  C   UNL     1       4.137   5.244  17.102  0.00  0.00    +0.000 A 
ENDROOT
BRANCH   1   7
ATOM      7  C   UNL     1       3.197   7.352  18.196  0.00  0.00    +0.000 C 
BRANCH   7   8
ATOM      8  C   UNL     1       1.982   8.244  17.924  0.00  0.00    +0.000 C 
BRANCH   8  13
ATOM      9  C   UNL     1       0.183  10.483  20.435  0.00  0.00    +0.000 A 
ATOM     10  C   UNL     1       0.438   9.818  21.632  0.00  0.00    +0.000 A 
ATOM     11  C   UNL     1       1.171   8.630  21.636  0.00  0.00    +0.000 A 
ATOM     12  C   UNL     1       1.659   8.107  20.437  0.00  0.00    +0.000 A 
ATOM     13  C   UNL     1       1.418   8.770  19.226  0.00  0.00    +0.000 A 
ATOM     14  C   UNL     1       0.695   9.973  19.241  0.00  0.00    +0.000 A 
BRANCH   9  16
ATOM     15  C   UNL     1      -0.376  12.339  21.771  0.00  0.00    +0.000 C 
ATOM     16  O   UNL     1      -0.540  11.642  20.540  0.00  0.00    +0.000 OA
ENDBRANCH   9  16
ENDBRANCH   8  13
ENDBRANCH   7   8
ENDBRANCH   1   7
BRANCH   6  17
ATOM     17  O   UNL     1       5.314   5.796  16.661  0.00  0.00    +0.000 OA
BRANCH  17  18
ATOM     18  C   UNL     1       6.504   5.555  17.414  0.00  0.00    +0.000 C 
BRANCH  18  19
ATOM     19  C   UNL     1       7.546   6.630  17.085  0.00  0.00    +0.000 C 
BRANCH  19  20
ATOM     20  C   UNL     1       7.901   7.496  18.293  0.00  0.00    +0.000 C 
BRANCH  20  21
ATOM     21  C   UNL     1       8.084   8.982  17.937  0.00  0.00    +0.000 C 
BRANCH  21  22
ATOM     22  C   UNL     1       9.217   9.664  18.722  0.00  0.00    +0.000 C 
BRANCH  22  23
ATOM     23  N   UNL     1       8.911  11.034  19.172  0.00  0.00    +0.000 NA
ATOM     24  C   UNL     1       9.526  12.011  18.244  0.00  0.00    +0.000 C 
ATOM     25  C   UNL     1       9.287  13.478  18.671  0.00  0.00    +0.000 C 
ATOM     26  N   UNL     1       9.710  13.801  20.047  0.00  0.00    +0.000 NA
ATOM     27  C   UNL     1      11.162  13.897  20.162  0.00  0.00    +0.000 C 
ATOM     28  C   UNL     1       9.153  12.793  20.968  0.00  0.00    +0.000 C 
ATOM     29  C   UNL     1       9.365  11.315  20.549  0.00  0.00    +0.000 C 
ENDBRANCH  22  23
ENDBRANCH  21  22
ENDBRANCH  20  21
ENDBRANCH  19  20
ENDBRANCH  18  19
ENDBRANCH  17  18
ENDBRANCH   6  17
TORSDOF 11
ENDMDL
MODEL 6
REMARK VINA RESULT:      -7.1      2.349      3.025
REMARK  Name = 
REMARK  13 active torsions:
REMARK  status: ('A' for Active; 'I' for Inactive)
REMARK    1  A    between atoms: C_1  and  O_2
REMARK    2  A    between atoms: O_2  and  C_3
REMARK    3  A    between atoms: C_7  and  C_8
REMARK    4  A    between atoms: C_8  and  C_9
REMARK    5  A    between atoms: C_9  and  C_10
REMARK    6  A    between atoms: C_15  and  O_16
REMARK    7  A    between atoms: O_16  and  C_17
REMARK    8  A    between atoms: C_17  and  C_18
REMARK    9  A    between atoms: C_18  and  C_19
REMARK   10  A    between atoms: C_19  and  C_20
REMARK   11  A    between atoms: C_20  and  C_21
REMARK   12  A    between atoms: C_21  and  N_22
REMARK   13  A    between atoms: N_25  and  C_26
REMARK                            x       y       z     vdW  Elec       q    Type
REMARK                         _______ _______ _______ _____ _____    ______ ____
ROOT
ATOM      1  C   UNL     1       2.244   3.855  18.915  0.00  0.00    +0.000 A 
ATOM      2  C   UNL     1       1.651   2.640  19.325  0.00  0.00    +0.000 A 
ATOM      3  C   UNL     1       1.335   2.395  20.663  0.00  0.00    +0.000 A 
ATOM      4  C   UNL     1       1.633   3.352  21.622  0.00  0.00    +0.000 A 
ATOM      5  C   UNL     1       2.258   4.539  21.244  0.00  0.00    +0.000 A 
ATOM      6  C   UNL     1       2.591   4.795  19.900  0.00  0.00    +0.000 A 
ENDROOT
BRANCH   1   7
ATOM      7  C   UNL     1       2.490   4.104  17.443  0.00  0.00    +0.000 C 
BRANCH   7   8
ATOM      8  C   UNL     1       3.548   3.272  16.712  0.00  0.00    +0.000 C 
BRANCH   8  13
ATOM      9  C   UNL     1       6.871   4.869  15.731  0.00  0.00    +0.000 A 
ATOM     10  C   UNL     1       7.451   5.091  16.978  0.00  0.00    +0.000 A 
ATOM     11  C   UNL     1       6.765   4.749  18.144  0.00  0.00    +0.000 A 
ATOM     12  C   UNL     1       5.495   4.176  18.066  0.00  0.00    +0.000 A 
ATOM     13  C   UNL     1       4.903   3.939  16.817  0.00  0.00    +0.000 A 
ATOM     14  C   UNL     1       5.613   4.271  15.653  0.00  0.00    +0.000 A 
BRANCH   9  16
ATOM     15  C   UNL     1       7.103   4.831  13.388  0.00  0.00    +0.000 C 
ATOM     16  O   UNL     1       7.628   5.235  14.649  0.00  0.00    +0.000 OA
ENDBRANCH   9  16
ENDBRANCH   8  13
ENDBRANCH   7   8
ENDBRANCH   1   7
BRANCH   6  17
ATOM     17  O   UNL     1       3.118   6.047  19.700  0.00  0.00    +0.000 OA
BRANCH  17  18
ATOM     18  C   UNL     1       2.222   7.155  19.600  0.00  0.00    +0.000 C 
BRANCH  18  19
ATOM     19  C   UNL     1       2.405   7.842  18.242  0.00  0.00    +0.000 C 
BRANCH  19  20
ATOM     20  C   UNL     1       1.406   8.976  18.015  0.00  0.00    +0.000 C 
BRANCH  20  21
ATOM     21  C   UNL     1       2.066  10.365  17.989  0.00  0.00    +0.000 C 
BRANCH  21  22
ATOM     22  C   UNL     1       1.314  11.415  18.823  0.00  0.00    +0.000 C 
BRANCH  22  23
ATOM     23  N   UNL     1       2.133  12.570  19.237  0.00  0.00    +0.000 NA
ATOM     24  C   UNL     1       1.510  13.225  20.410  0.00  0.00    +0.000 C 
ATOM     25  C   UNL     1       2.287  14.476  20.882  0.00  0.00    +0.000 C 
ATOM     26  N   UNL     1       2.520  15.494  19.839  0.00  0.00    +0.000 NA
ATOM     27  C   UNL     1       1.305  16.241  19.527  0.00  0.00    +0.000 C 
ATOM     28  C   UNL     1       3.080  14.833  18.645  0.00  0.00    +0.000 C 
ATOM     29  C   UNL     1       2.327  13.566  18.165  0.00  0.00    +0.000 C 
ENDBRANCH  22  23
ENDBRANCH  21  22
ENDBRANCH  20  21
ENDBRANCH  19  20
ENDBRANCH  18  19
ENDBRANCH  17  18
ENDBRANCH   6  17
TORSDOF 11
ENDMDL
MODEL 7
REMARK VINA RESULT:      -7.1      4.286      8.340
REMARK  Name = 
REMARK  13 active torsions:
REMARK  status: ('A' for Active; 'I' for Inactive)
REMARK    1  A    between atoms: C_1  and  O_2
REMARK    2  A    between atoms: O_2  and  C_3
REMARK    3  A    between atoms: C_7  and  C_8
REMARK    4  A    between atoms: C_8  and  C_9
REMARK    5  A    between atoms: C_9  and  C_10
REMARK    6  A    between atoms: C_15  and  O_16
REMARK    7  A    between atoms: O_16  and  C_17
REMARK    8  A    between atoms: C_17  and  C_18
REMARK    9  A    between atoms: C_18  and  C_19
REMARK   10  A    between atoms: C_19  and  C_20
REMARK   11  A    between atoms: C_20  and  C_21
REMARK   12  A    between atoms: C_21  and  N_22
REMARK   13  A    between atoms: N_25  and  C_26
REMARK                            x       y       z     vdW  Elec       q    Type
REMARK                         _______ _______ _______ _____ _____    ______ ____
ROOT
ATOM      1  C   UNL     1       5.224   6.075  16.613  0.00  0.00    +0.000 A 
ATOM      2  C   UNL     1       4.973   5.305  15.457  0.00  0.00    +0.000 A 
ATOM      3  C   UNL     1       5.895   4.364  14.990  0.00  0.00    +0.000 A 
ATOM      4  C   UNL     1       7.099   4.198  15.658  0.00  0.00    +0.000 A 
ATOM      5  C   UNL     1       7.384   4.980  16.776  0.00  0.00    +0.000 A 
ATOM      6  C   UNL     1       6.468   5.938  17.251  0.00  0.00    +0.000 A 
ENDROOT
BRANCH   1   7
ATOM      7  C   UNL     1       4.158   7.021  17.123  0.00  0.00    +0.000 C 
BRANCH   7   8
ATOM      8  C   UNL     1       3.304   6.605  18.324  0.00  0.00    +0.000 C 
BRANCH   8  13
ATOM      9  C   UNL     1       1.020   8.827  20.422  0.00  0.00    +0.000 A 
ATOM     10  C   UNL     1       0.604   9.766  19.480  0.00  0.00    +0.000 A 
ATOM     11  C   UNL     1       1.077   9.703  18.168  0.00  0.00    +0.000 A 
ATOM     12  C   UNL     1       1.963   8.693  17.792  0.00  0.00    +0.000 A 
ATOM     13  C   UNL     1       2.383   7.737  18.727  0.00  0.00    +0.000 A 
ATOM     14  C   UNL     1       1.884   7.802  20.038  0.00  0.00    +0.000 A 
BRANCH   9  16
ATOM     15  C   UNL     1       0.161  10.310  22.036  0.00  0.00    +0.000 C 
ATOM     16  O   UNL     1       0.495   8.972  21.679  0.00  0.00    +0.000 OA
ENDBRANCH   9  16
ENDBRANCH   8  13
ENDBRANCH   7   8
ENDBRANCH   1   7
BRANCH   6  17
ATOM     17  O   UNL     1       6.876   6.552  18.410  0.00  0.00    +0.000 OA
BRANCH  17  18
ATOM     18  C   UNL     1       8.164   7.169  18.437  0.00  0.00    +0.000 C 
BRANCH  18  19
ATOM     19  C   UNL     1       8.058   8.598  17.890  0.00  0.00    +0.000 C 
BRANCH  19  20
ATOM     20  C   UNL     1       8.782   9.619  18.767  0.00  0.00    +0.000 C 
BRANCH  20  21
ATOM     21  C   UNL     1       9.480  10.724  17.954  0.00  0.00    +0.000 C 
BRANCH  21  22
ATOM     22  C   UNL     1       9.086  12.145  18.390  0.00  0.00    +0.000 C 
BRANCH  22  23
ATOM     23  N   UNL     1      10.118  13.169  18.142  0.00  0.00    +0.000 NA
ATOM     24  C   UNL     1      11.209  13.025  19.132  0.00  0.00    +0.000 C 
ATOM     25  C   UNL     1      12.315  14.093  18.967  0.00  0.00    +0.000 C 
ATOM     26  N   UNL     1      11.839  15.489  18.989  0.00  0.00    +0.000 NA
ATOM     27  C   UNL     1      11.480  15.921  20.336  0.00  0.00    +0.000 C 
ATOM     28  C   UNL     1      10.708  15.622  18.051  0.00  0.00    +0.000 C 
ATOM     29  C   UNL     1       9.597  14.550  18.187  0.00  0.00    +0.000 C 
ENDBRANCH  22  23
ENDBRANCH  21  22
ENDBRANCH  20  21
ENDBRANCH  19  20
ENDBRANCH  18  19
ENDBRANCH  17  18
ENDBRANCH   6  17
TORSDOF 11
ENDMDL
MODEL 8
REMARK VINA RESULT:      -7.0      1.489      2.085
REMARK  Name = 
REMARK  13 active torsions:
REMARK  status: ('A' for Active; 'I' for Inactive)
REMARK    1  A    between atoms: C_1  and  O_2
REMARK    2  A    between atoms: O_2  and  C_3
REMARK    3  A    between atoms: C_7  and  C_8
REMARK    4  A    between atoms: C_8  and  C_9
REMARK    5  A    between atoms: C_9  and  C_10
REMARK    6  A    between atoms: C_15  and  O_16
REMARK    7  A    between atoms: O_16  and  C_17
REMARK    8  A    between atoms: C_17  and  C_18
REMARK    9  A    between atoms: C_18  and  C_19
REMARK   10  A    between atoms: C_19  and  C_20
REMARK   11  A    between atoms: C_20  and  C_21
REMARK   12  A    between atoms: C_21  and  N_22
REMARK   13  A    between atoms: N_25  and  C_26
REMARK                            x       y       z     vdW  Elec       q    Type
REMARK                         _______ _______ _______ _____ _____    ______ ____
ROOT
ATOM      1  C   UNL     1       3.206   3.413  18.215  0.00  0.00    +0.000 A 
ATOM      2  C   UNL     1       2.940   2.195  18.880  0.00  0.00    +0.000 A 
ATOM      3  C   UNL     1       1.878   2.069  19.778  0.00  0.00    +0.000 A 
ATOM      4  C   UNL     1       1.078   3.168  20.049  0.00  0.00    +0.000 A 
ATOM      5  C   UNL     1       1.351   4.390  19.437  0.00  0.00    +0.000 A 
ATOM      6  C   UNL     1       2.424   4.534  18.537  0.00  0.00    +0.000 A 
ENDROOT
BRANCH   1   7
ATOM      7  C   UNL     1       4.318   3.474  17.190  0.00  0.00    +0.000 C 
BRANCH   7   8
ATOM      8  C   UNL     1       4.642   4.812  16.519  0.00  0.00    +0.000 C 
BRANCH   8  13
ATOM      9  C   UNL     1       7.207   7.445  17.539  0.00  0.00    +0.000 A 
ATOM     10  C   UNL     1       7.957   6.751  18.485  0.00  0.00    +0.000 A 
ATOM     11  C   UNL     1       7.626   5.437  18.819  0.00  0.00    +0.000 A 
ATOM     12  C   UNL     1       6.544   4.809  18.199  0.00  0.00    +0.000 A 
ATOM     13  C   UNL     1       5.786   5.493  17.238  0.00  0.00    +0.000 A 
ATOM     14  C   UNL     1       6.143   6.808  16.899  0.00  0.00    +0.000 A 
BRANCH   9  16
ATOM     15  C   UNL     1       8.483   9.289  18.259  0.00  0.00    +0.000 C 
ATOM     16  O   UNL     1       7.616   8.727  17.278  0.00  0.00    +0.000 OA
ENDBRANCH   9  16
ENDBRANCH   8  13
ENDBRANCH   7   8
ENDBRANCH   1   7
BRANCH   6  17
ATOM     17  O   UNL     1       2.489   5.781  17.964  0.00  0.00    +0.000 OA
BRANCH  17  18
ATOM     18  C   UNL     1       2.697   6.911  18.813  0.00  0.00    +0.000 C 
BRANCH  18  19
ATOM     19  C   UNL     1       2.805   8.180  17.959  0.00  0.00    +0.000 C 
BRANCH  19  20
ATOM     20  C   UNL     1       1.445   8.818  17.678  0.00  0.00    +0.000 C 
BRANCH  20  21
ATOM     21  C   UNL     1       0.960   9.731  18.818  0.00  0.00    +0.000 C 
BRANCH  21  22
ATOM     22  C   UNL     1       1.480  11.174  18.708  0.00  0.00    +0.000 C 
BRANCH  22  23
ATOM     23  N   UNL     1       0.965  12.090  19.742  0.00  0.00    +0.000 NA
ATOM     24  C   UNL     1       0.065  11.352  20.657  0.00  0.00    +0.000 C 
ATOM     25  C   UNL     1      -0.554  12.255  21.750  0.00  0.00    +0.000 C 
ATOM     26  N   UNL     1      -1.265  13.444  21.243  0.00  0.00    +0.000 NA
ATOM     27  C   UNL     1      -2.555  13.098  20.656  0.00  0.00    +0.000 C 
ATOM     28  C   UNL     1      -0.395  14.148  20.282  0.00  0.00    +0.000 C 
ATOM     29  C   UNL     1       0.250  13.258  19.189  0.00  0.00    +0.000 C 
ENDBRANCH  22  23
ENDBRANCH  21  22
ENDBRANCH  20  21
ENDBRANCH  19  20
ENDBRANCH  18  19
ENDBRANCH  17  18
ENDBRANCH   6  17
TORSDOF 11
ENDMDL
MODEL 9
REMARK VINA RESULT:      -7.0      3.423      7.447
REMARK  Name = 
REMARK  13 active torsions:
REMARK  status: ('A' for Active; 'I' for Inactive)
REMARK    1  A    between atoms: C_1  and  O_2
REMARK    2  A    between atoms: O_2  and  C_3
REMARK    3  A    between atoms: C_7  and  C_8
REMARK    4  A    between atoms: C_8  and  C_9
REMARK    5  A    between atoms: C_9  and  C_10
REMARK    6  A    between atoms: C_15  and  O_16
REMARK    7  A    between atoms: O_16  and  C_17
REMARK    8  A    between atoms: C_17  and  C_18
REMARK    9  A    between atoms: C_18  and  C_19
REMARK   10  A    between atoms: C_19  and  C_20
REMARK   11  A    between atoms: C_20  and  C_21
REMARK   12  A    between atoms: C_21  and  N_22
REMARK   13  A    between atoms: N_25  and  C_26
REMARK                            x       y       z     vdW  Elec       q    Type
REMARK                         _______ _______ _______ _____ _____    ______ ____
ROOT
ATOM      1  C   UNL     1       2.790   4.688  19.074  0.00  0.00    +0.000 A 
ATOM      2  C   UNL     1       1.571   4.039  18.776  0.00  0.00    +0.000 A 
ATOM      3  C   UNL     1       1.533   2.698  18.386  0.00  0.00    +0.000 A 
ATOM      4  C   UNL     1       2.717   1.989  18.261  0.00  0.00    +0.000 A 
ATOM      5  C   UNL     1       3.934   2.623  18.507  0.00  0.00    +0.000 A 
ATOM      6  C   UNL     1       3.988   3.976  18.891  0.00  0.00    +0.000 A 
ENDROOT
BRANCH   1   7
ATOM      7  C   UNL     1       2.771   6.117  19.571  0.00  0.00    +0.000 C 
BRANCH   7   8
ATOM      8  C   UNL     1       2.502   7.250  18.577  0.00  0.00    +0.000 C 
BRANCH   8  13
ATOM      9  C   UNL     1       0.791  10.608  19.166  0.00  0.00    +0.000 A 
ATOM     10  C   UNL     1       0.433  10.505  20.508  0.00  0.00    +0.000 A 
ATOM     11  C   UNL     1       0.719   9.343  21.226  0.00  0.00    +0.000 A 
ATOM     12  C   UNL     1       1.373   8.279  20.602  0.00  0.00    +0.000 A 
ATOM     13  C   UNL     1       1.747   8.373  19.254  0.00  0.00    +0.000 A 
ATOM     14  C   UNL     1       1.470   9.555  18.551  0.00  0.00    +0.000 A 
BRANCH   9  16
ATOM     15  C   UNL     1      -0.434  12.616  19.281  0.00  0.00    +0.000 C 
ATOM     16  O   UNL     1       0.471  11.791  18.553  0.00  0.00    +0.000 OA
ENDBRANCH   9  16
ENDBRANCH   8  13
ENDBRANCH   7   8
ENDBRANCH   1   7
BRANCH   6  17
ATOM     17  O   UNL     1       5.259   4.409  19.179  0.00  0.00    +0.000 OA
BRANCH  17  18
ATOM     18  C   UNL     1       6.057   4.931  18.115  0.00  0.00    +0.000 C 
BRANCH  18  19
ATOM     19  C   UNL     1       7.159   5.826  18.693  0.00  0.00    +0.000 C 
BRANCH  19  20
ATOM     20  C   UNL     1       7.571   6.947  17.738  0.00  0.00    +0.000 C 
BRANCH  20  21
ATOM     21  C   UNL     1       8.392   8.052  18.425  0.00  0.00    +0.000 C 
BRANCH  21  22
ATOM     22  C   UNL     1       8.213   9.437  17.779  0.00  0.00    +0.000 C 
BRANCH  22  23
ATOM     23  N   UNL     1       8.491  10.572  18.679  0.00  0.00    +0.000 NA
ATOM     24  C   UNL     1       9.113  11.674  17.910  0.00  0.00    +0.000 C 
ATOM     25  C   UNL     1       9.477  12.891  18.793  0.00  0.00    +0.000 C 
ATOM     26  N   UNL     1      10.332  12.583  19.955  0.00  0.00    +0.000 NA
ATOM     27  C   UNL     1      11.714  12.327  19.561  0.00  0.00    +0.000 C 
ATOM     28  C   UNL     1       9.749  11.442  20.687  0.00  0.00    +0.000 C 
ATOM     29  C   UNL     1       9.360  10.218  19.819  0.00  0.00    +0.000 C 
ENDBRANCH  22  23
ENDBRANCH  21  22
ENDBRANCH  20  21
ENDBRANCH  19  20
ENDBRANCH  18  19
ENDBRANCH  17  18
ENDBRANCH   6  17
TORSDOF 11
ENDMDL
