MODEL 1
REMARK VINA RESULT:      -6.7      0.000      0.000
REMARK  Name = 
REMARK  8 active torsions:
REMARK  status: ('A' for Active; 'I' for Inactive)
REMARK    1  A    between atoms: N_4  and  C_5
REMARK    2  A    between atoms: C_5  and  C_6
REMARK    3  A    between atoms: C_6  and  C_7
REMARK    4  A    between atoms: C_7  and  C_8
REMARK    5  A    between atoms: C_8  and  C_9
REMARK    6  A    between atoms: C_9  and  C_10
REMARK    7  A    between atoms: C_10  and  C_11
REMARK    8  A    between atoms: N_13  and  C_14
REMARK                            x       y       z     vdW  Elec       q    Type
REMARK                         _______ _______ _______ _____ _____    ______ ____
ROOT
ATOM      1  C   UNL     1       7.254   4.485  16.887  0.00  0.00    +0.000 C 
ENDROOT
BRANCH   1   2
ATOM      2  C   UNL     1       7.063   5.517  15.778  0.00  0.00    +0.000 C 
BRANCH   2   3
ATOM      3  C   UNL     1       5.810   5.195  14.962  0.00  0.00    +0.000 C 
BRANCH   3   4
ATOM      4  C   UNL     1       5.895   3.820  14.299  0.00  0.00    +0.000 C 
BRANCH   4   5
ATOM      5  C   UNL     1       6.286   3.950  12.828  0.00  0.00    +0.000 C 
BRANCH   5   9
ATOM      6  N   UNL     1       6.285   0.780  11.060  0.00  0.00    +0.000 N 
ATOM      7  C   UNL     1       5.773   1.953  11.495  0.00  0.00    +0.000 C 
ATOM      8  O   UNL     1       4.626   2.286  11.231  0.00  0.00    +0.000 OA
ATOM      9  N   UNL     1       6.647   2.674  12.249  0.00  0.00    +0.000 N 
ATOM     10  H   UNL     1       5.690   0.216  10.469  0.00  0.00    +0.000 HD
ATOM     11  H   UNL     1       7.252   0.526  11.165  0.00  0.00    +0.000 HD
ATOM     12  H   UNL     1       7.587   2.331  12.367  0.00  0.00    +0.000 HD
ENDBRANCH   5   9
ENDBRANCH   4   5
ENDBRANCH   3   4
ENDBRANCH   2   3
ENDBRANCH   1   2
BRANCH   1  13
ATOM     13  C   UNL     1       7.086   5.094  18.273  0.00  0.00    +0.000 C 
BRANCH  13  14
ATOM     14  C   UNL     1       5.672   4.870  18.754  0.00  0.00    +0.000 C 
ATOM     15  O   UNL     1       5.271   5.472  19.748  0.00  0.00    +0.000 OA
ATOM     16  N   UNL     1       4.972   3.911  18.034  0.00  0.00    +0.000 N 
ATOM     17  H   UNL     1       5.490   3.363  17.358  0.00  0.00    +0.000 HD
BRANCH  16  18
ATOM     18  C   UNL     1       3.632   3.537  18.267  0.00  0.00    +0.000 A 
ATOM     19  C   UNL     1       2.552   4.212  17.686  0.00  0.00    +0.000 A 
ATOM     20  C   UNL     1       1.237   3.835  17.957  0.00  0.00    +0.000 A 
ATOM     21  C   UNL     1       0.982   2.767  18.807  0.00  0.00    +0.000 A 
ATOM     22  C   UNL     1       2.048   2.061  19.373  0.00  0.00    +0.000 A 
ATOM     23  C   UNL     1       3.367   2.441  19.098  0.00  0.00    +0.000 A 
ENDBRANCH  16  18
ENDBRANCH  13  14
ENDBRANCH   1  13
TORSDOF 8
ENDMDL
MODEL 2
REMARK VINA RESULT:      -6.6      1.352      1.650
REMARK  Name = 
REMARK  8 active torsions:
REMARK  status: ('A' for Active; 'I' for Inactive)
REMARK    1  A    between atoms: N_4  and  C_5
REMARK    2  A    between atoms: C_5  and  C_6
REMARK    3  A    between atoms: C_6  and  C_7
REMARK    4  A    between atoms: C_7  and  C_8
REMARK    5  A    between atoms: C_8  and  C_9
REMARK    6  A    between atoms: C_9  and  C_10
REMARK    7  A    between atoms: C_10  and  C_11
REMARK    8  A    between atoms: N_13  and  C_14
REMARK                            x       y       z     vdW  Elec       q    Type
REMARK                         _______ _______ _______ _____ _____    ______ ____
ROOT
ATOM      1  C   UNL     1       5.540   6.255  16.048  0.00  0.00    +0.000 C 
ENDROOT
BRANCH   1   2
ATOM      2  C   UNL     1       6.628   5.241  16.395  0.00  0.00    +0.000 C 
BRANCH   2   3
ATOM      3  C   UNL     1       6.387   3.927  15.652  0.00  0.00    +0.000 C 
BRANCH   3   4
ATOM      4  C   UNL     1       5.515   4.120  14.412  0.00  0.00    +0.000 C 
BRANCH   4   5
ATOM      5  C   UNL     1       6.372   4.179  13.149  0.00  0.00    +0.000 C 
BRANCH   5   9
ATOM      6  N   UNL     1       5.972   1.091  11.285  0.00  0.00    +0.000 N 
ATOM      7  C   UNL     1       5.633   2.325  11.720  0.00  0.00    +0.000 C 
ATOM      8  O   UNL     1       4.583   2.854  11.384  0.00  0.00    +0.000 OA
ATOM      9  N   UNL     1       6.556   2.872  12.558  0.00  0.00    +0.000 N 
ATOM     10  H   UNL     1       5.337   0.647  10.635  0.00  0.00    +0.000 HD
ATOM     11  H   UNL     1       6.871   0.673  11.452  0.00  0.00    +0.000 HD
ATOM     12  H   UNL     1       7.413   2.371  12.732  0.00  0.00    +0.000 HD
ENDBRANCH   5   9
ENDBRANCH   4   5
ENDBRANCH   3   4
ENDBRANCH   2   3
ENDBRANCH   1   2
BRANCH   1  13
ATOM     13  C   UNL     1       4.992   6.955  17.286  0.00  0.00    +0.000 C 
BRANCH  13  14
ATOM     14  C   UNL     1       4.369   5.933  18.208  0.00  0.00    +0.000 C 
ATOM     15  O   UNL     1       4.996   5.551  19.195  0.00  0.00    +0.000 OA
ATOM     16  N   UNL     1       3.135   5.461  17.782  0.00  0.00    +0.000 N 
ATOM     17  H   UNL     1       2.825   5.728  16.856  0.00  0.00    +0.000 HD
BRANCH  16  18
ATOM     18  C   UNL     1       2.339   4.525  18.476  0.00  0.00    +0.000 A 
ATOM     19  C   UNL     1       2.045   3.258  17.958  0.00  0.00    +0.000 A 
ATOM     20  C   UNL     1       1.232   2.366  18.656  0.00  0.00    +0.000 A 
ATOM     21  C   UNL     1       0.708   2.724  19.891  0.00  0.00    +0.000 A 
ATOM     22  C   UNL     1       1.014   3.973  20.439  0.00  0.00    +0.000 A 
ATOM     23  C   UNL     1       1.832   4.867  19.736  0.00  0.00    +0.000 A 
ENDBRANCH  16  18
ENDBRANCH  13  14
ENDBRANCH   1  13
TORSDOF 8
ENDMDL
MODEL 3
REMARK VINA RESULT:      -6.6      5.904      8.702
REMARK  Name = 
REMARK  8 active torsions:
REMARK  status: ('A' for Active; 'I' for Inactive)
REMARK    1  A    between atoms: N_4  and  C_5
REMARK    2  A    between atoms: C_5  and  C_6
REMARK    3  A    between atoms: C_6  and  C_7
REMARK    4  A    between atoms: C_7  and  C_8
REMARK    5  A    between atoms: C_8  and  C_9
REMARK    6  A    between atoms: C_9  and  C_10
REMARK    7  A    between atoms: C_10  and  C_11
REMARK    8  A    between atoms: N_13  and  C_14
REMARK                            x       y       z     vdW  Elec       q    Type
REMARK                         _______ _______ _______ _____ _____    ______ ____
ROOT
ATOM      1  C   UNL     1       7.692   7.742  17.562  0.00  0.00    +0.000 C 
ENDROOT
BRANCH   1   2
ATOM      2  C   UNL     1       8.517   8.667  18.454  0.00  0.00    +0.000 C 
BRANCH   2   3
ATOM      3  C   UNL     1       8.359  10.120  18.003  0.00  0.00    +0.000 C 
BRANCH   3   4
ATOM      4  C   UNL     1       9.644  10.925  18.200  0.00  0.00    +0.000 C 
BRANCH   4   5
ATOM      5  C   UNL     1       9.330  12.406  18.404  0.00  0.00    +0.000 C 
BRANCH   5   9
ATOM      6  N   UNL     1      11.073  14.699  16.196  0.00  0.00    +0.000 N 
ATOM      7  C   UNL     1      10.850  14.013  17.339  0.00  0.00    +0.000 C 
ATOM      8  O   UNL     1      11.575  14.146  18.315  0.00  0.00    +0.000 OA
ATOM      9  N   UNL     1       9.754  13.209  17.278  0.00  0.00    +0.000 N 
ATOM     10  H   UNL     1      11.893  15.290  16.173  0.00  0.00    +0.000 HD
ATOM     11  H   UNL     1      10.567  14.533  15.343  0.00  0.00    +0.000 HD
ATOM     12  H   UNL     1       9.251  13.134  16.407  0.00  0.00    +0.000 HD
ENDBRANCH   5   9
ENDBRANCH   4   5
ENDBRANCH   3   4
ENDBRANCH   2   3
ENDBRANCH   1   2
BRANCH   1  13
ATOM     13  C   UNL     1       7.615   6.326  18.119  0.00  0.00    +0.000 C 
BRANCH  13  14
ATOM     14  C   UNL     1       7.540   5.339  16.978  0.00  0.00    +0.000 C 
ATOM     15  O   UNL     1       8.002   4.209  17.127  0.00  0.00    +0.000 OA
ATOM     16  N   UNL     1       7.001   5.861  15.810  0.00  0.00    +0.000 N 
ATOM     17  H   UNL     1       6.833   6.858  15.776  0.00  0.00    +0.000 HD
BRANCH  16  18
ATOM     18  C   UNL     1       6.800   5.139  14.614  0.00  0.00    +0.000 A 
ATOM     19  C   UNL     1       5.730   4.252  14.442  0.00  0.00    +0.000 A 
ATOM     20  C   UNL     1       5.574   3.533  13.257  0.00  0.00    +0.000 A 
ATOM     21  C   UNL     1       6.482   3.699  12.219  0.00  0.00    +0.000 A 
ATOM     22  C   UNL     1       7.539   4.602  12.361  0.00  0.00    +0.000 A 
ATOM     23  C   UNL     1       7.693   5.324  13.551  0.00  0.00    +0.000 A 
ENDBRANCH  16  18
ENDBRANCH  13  14
ENDBRANCH   1  13
TORSDOF 8
ENDMDL
MODEL 4
REMARK VINA RESULT:      -6.5      1.359      1.582
REMARK  Name = 
REMARK  8 active torsions:
REMARK  status: ('A' for Active; 'I' for Inactive)
REMARK    1  A    between atoms: N_4  and  C_5
REMARK    2  A    between atoms: C_5  and  C_6
REMARK    3  A    between atoms: C_6  and  C_7
REMARK    4  A    between atoms: C_7  and  C_8
REMARK    5  A    between atoms: C_8  and  C_9
REMARK    6  A    between atoms: C_9  and  C_10
REMARK    7  A    between atoms: C_10  and  C_11
REMARK    8  A    between atoms: N_13  and  C_14
REMARK                            x       y       z     vdW  Elec       q    Type
REMARK                         _______ _______ _______ _____ _____    ______ ____
ROOT
ATOM      1  C   UNL     1       6.189   6.764  17.504  0.00  0.00    +0.000 C 
ENDROOT
BRANCH   1   2
ATOM      2  C   UNL     1       6.937   6.220  16.289  0.00  0.00    +0.000 C 
BRANCH   2   3
ATOM      3  C   UNL     1       5.966   5.526  15.333  0.00  0.00    +0.000 C 
BRANCH   3   4
ATOM      4  C   UNL     1       6.684   4.576  14.374  0.00  0.00    +0.000 C 
BRANCH   4   5
ATOM      5  C   UNL     1       5.686   3.888  13.444  0.00  0.00    +0.000 C 
BRANCH   5   9
ATOM      6  N   UNL     1       6.408   1.249  11.060  0.00  0.00    +0.000 N 
ATOM      7  C   UNL     1       5.693   2.254  11.613  0.00  0.00    +0.000 C 
ATOM      8  O   UNL     1       4.605   2.585  11.163  0.00  0.00    +0.000 OA
ATOM      9  N   UNL     1       6.298   2.811  12.697  0.00  0.00    +0.000 N 
ATOM     10  H   UNL     1       6.022   0.817  10.232  0.00  0.00    +0.000 HD
ATOM     11  H   UNL     1       7.349   1.024  11.334  0.00  0.00    +0.000 HD
ATOM     12  H   UNL     1       7.220   2.496  12.957  0.00  0.00    +0.000 HD
ENDBRANCH   5   9
ENDBRANCH   4   5
ENDBRANCH   3   4
ENDBRANCH   2   3
ENDBRANCH   1   2
BRANCH   1  13
ATOM     13  C   UNL     1       6.563   6.028  18.785  0.00  0.00    +0.000 C 
BRANCH  13  14
ATOM     14  C   UNL     1       5.496   5.009  19.110  0.00  0.00    +0.000 C 
ATOM     15  O   UNL     1       5.825   3.851  19.360  0.00  0.00    +0.000 OA
ATOM     16  N   UNL     1       4.199   5.495  19.015  0.00  0.00    +0.000 N 
ATOM     17  H   UNL     1       4.072   6.418  18.620  0.00  0.00    +0.000 HD
BRANCH  16  18
ATOM     18  C   UNL     1       3.030   4.754  19.292  0.00  0.00    +0.000 A 
ATOM     19  C   UNL     1       2.479   4.672  20.576  0.00  0.00    +0.000 A 
ATOM     20  C   UNL     1       1.338   3.909  20.823  0.00  0.00    +0.000 A 
ATOM     21  C   UNL     1       0.723   3.223  19.784  0.00  0.00    +0.000 A 
ATOM     22  C   UNL     1       1.242   3.316  18.489  0.00  0.00    +0.000 A 
ATOM     23  C   UNL     1       2.387   4.084  18.243  0.00  0.00    +0.000 A 
ENDBRANCH  16  18
ENDBRANCH  13  14
ENDBRANCH   1  13
TORSDOF 8
ENDMDL
MODEL 5
REMARK VINA RESULT:      -6.4      4.773      6.864
REMARK  Name = 
REMARK  8 active torsions:
REMARK  status: ('A' for Active; 'I' for Inactive)
REMARK    1  A    between atoms: N_4  and  C_5
REMARK    2  A    between atoms: C_5  and  C_6
REMARK    3  A    between atoms: C_6  and  C_7
REMARK    4  A    between atoms: C_7  and  C_8
REMARK    5  A    between atoms: C_8  and  C_9
REMARK    6  A    between atoms: C_9  and  C_10
REMARK    7  A    between atoms: C_10  and  C_11
REMARK    8  A    between atoms: N_13  and  C_14
REMARK                            x       y       z     vdW  Elec       q    Type
REMARK                         _______ _______ _______ _____ _____    ______ ____
ROOT
ATOM      1  C   UNL     1       7.577   5.620  18.397  0.00  0.00    +0.000 C 
ENDROOT
BRANCH   1   2
ATOM      2  C   UNL     1       7.588   6.968  17.679  0.00  0.00    +0.000 C 
BRANCH   2   3
ATOM      3  C   UNL     1       8.360   8.001  18.500  0.00  0.00    +0.000 C 
BRANCH   3   4
ATOM      4  C   UNL     1       8.214   9.412  17.931  0.00  0.00    +0.000 C 
BRANCH   4   5
ATOM      5  C   UNL     1       9.175  10.379  18.621  0.00  0.00    +0.000 C 
BRANCH   5   9
ATOM      6  N   UNL     1       9.803  13.688  17.270  0.00  0.00    +0.000 N 
ATOM      7  C   UNL     1      10.122  12.443  17.691  0.00  0.00    +0.000 C 
ATOM      8  O   UNL     1      11.279  12.047  17.694  0.00  0.00    +0.000 OA
ATOM      9  N   UNL     1       9.045  11.727  18.113  0.00  0.00    +0.000 N 
ATOM     10  H   UNL     1      10.561  14.256  16.916  0.00  0.00    +0.000 HD
ATOM     11  H   UNL     1       8.857  14.006  17.151  0.00  0.00    +0.000 HD
ATOM     12  H   UNL     1       8.125  12.130  18.023  0.00  0.00    +0.000 HD
ENDBRANCH   5   9
ENDBRANCH   4   5
ENDBRANCH   3   4
ENDBRANCH   2   3
ENDBRANCH   1   2
BRANCH   1  13
ATOM     13  C   UNL     1       6.986   4.513  17.532  0.00  0.00    +0.000 C 
BRANCH  13  14
ATOM     14  C   UNL     1       5.495   4.439  17.759  0.00  0.00    +0.000 C 
ATOM     15  O   UNL     1       4.738   5.029  16.990  0.00  0.00    +0.000 OA
ATOM     16  N   UNL     1       5.128   3.742  18.903  0.00  0.00    +0.000 N 
ATOM     17  H   UNL     1       5.865   3.468  19.540  0.00  0.00    +0.000 HD
BRANCH  16  18
ATOM     18  C   UNL     1       3.802   3.509  19.323  0.00  0.00    +0.000 A 
ATOM     19  C   UNL     1       3.139   2.299  19.083  0.00  0.00    +0.000 A 
ATOM     20  C   UNL     1       1.818   2.110  19.487  0.00  0.00    +0.000 A 
ATOM     21  C   UNL     1       1.141   3.126  20.149  0.00  0.00    +0.000 A 
ATOM     22  C   UNL     1       1.795   4.330  20.423  0.00  0.00    +0.000 A 
ATOM     23  C   UNL     1       3.122   4.518  20.018  0.00  0.00    +0.000 A 
ENDBRANCH  16  18
ENDBRANCH  13  14
ENDBRANCH   1  13
TORSDOF 8
ENDMDL
MODEL 6
REMARK VINA RESULT:      -6.4      1.569      1.663
REMARK  Name = 
REMARK  8 active torsions:
REMARK  status: ('A' for Active; 'I' for Inactive)
REMARK    1  A    between atoms: N_4  and  C_5
REMARK    2  A    between atoms: C_5  and  C_6
REMARK    3  A    between atoms: C_6  and  C_7
REMARK    4  A    between atoms: C_7  and  C_8
REMARK    5  A    between atoms: C_8  and  C_9
REMARK    6  A    between atoms: C_9  and  C_10
REMARK    7  A    between atoms: C_10  and  C_11
REMARK    8  A    between atoms: N_13  and  C_14
REMARK                            x       y       z     vdW  Elec       q    Type
REMARK                         _______ _______ _______ _____ _____    ______ ____
ROOT
ATOM      1  C   UNL     1       7.557   5.473  17.899  0.00  0.00    +0.000 C 
ENDROOT
BRANCH   1   2
ATOM      2  C   UNL     1       6.890   5.995  16.628  0.00  0.00    +0.000 C 
BRANCH   2   3
ATOM      3  C   UNL     1       7.149   5.041  15.462  0.00  0.00    +0.000 C 
BRANCH   3   4
ATOM      4  C   UNL     1       5.852   4.473  14.886  0.00  0.00    +0.000 C 
BRANCH   4   5
ATOM      5  C   UNL     1       6.122   3.707  13.592  0.00  0.00    +0.000 C 
BRANCH   5   9
ATOM      6  N   UNL     1       3.754   3.158  10.897  0.00  0.00    +0.000 N 
ATOM      7  C   UNL     1       4.830   2.891  11.671  0.00  0.00    +0.000 C 
ATOM      8  O   UNL     1       5.552   1.929  11.450  0.00  0.00    +0.000 OA
ATOM      9  N   UNL     1       5.015   3.801  12.666  0.00  0.00    +0.000 N 
ATOM     10  H   UNL     1       3.550   2.498  10.158  0.00  0.00    +0.000 HD
ATOM     11  H   UNL     1       3.081   3.873  11.113  0.00  0.00    +0.000 HD
ATOM     12  H   UNL     1       4.332   4.533  12.791  0.00  0.00    +0.000 HD
ENDBRANCH   5   9
ENDBRANCH   4   5
ENDBRANCH   3   4
ENDBRANCH   2   3
ENDBRANCH   1   2
BRANCH   1  13
ATOM     13  C   UNL     1       6.712   5.735  19.140  0.00  0.00    +0.000 C 
BRANCH  13  14
ATOM     14  C   UNL     1       5.573   4.745  19.192  0.00  0.00    +0.000 C 
ATOM     15  O   UNL     1       5.813   3.544  19.077  0.00  0.00    +0.000 OA
ATOM     16  N   UNL     1       4.317   5.328  19.295  0.00  0.00    +0.000 N 
ATOM     17  H   UNL     1       4.258   6.334  19.194  0.00  0.00    +0.000 HD
BRANCH  16  18
ATOM     18  C   UNL     1       3.098   4.623  19.387  0.00  0.00    +0.000 A 
ATOM     19  C   UNL     1       2.445   4.102  18.264  0.00  0.00    +0.000 A 
ATOM     20  C   UNL     1       1.227   3.434  18.384  0.00  0.00    +0.000 A 
ATOM     21  C   UNL     1       0.647   3.267  19.635  0.00  0.00    +0.000 A 
ATOM     22  C   UNL     1       1.299   3.755  20.772  0.00  0.00    +0.000 A 
ATOM     23  C   UNL     1       2.522   4.424  20.648  0.00  0.00    +0.000 A 
ENDBRANCH  16  18
ENDBRANCH  13  14
ENDBRANCH   1  13
TORSDOF 8
ENDMDL
MODEL 7
REMARK VINA RESULT:      -6.4      1.199      1.412
REMARK  Name = 
REMARK  8 active torsions:
REMARK  status: ('A' for Active; 'I' for Inactive)
REMARK    1  A    between atoms: N_4  and  C_5
REMARK    2  A    between atoms: C_5  and  C_6
REMARK    3  A    between atoms: C_6  and  C_7
REMARK    4  A    between atoms: C_7  and  C_8
REMARK    5  A    between atoms: C_8  and  C_9
REMARK    6  A    between atoms: C_9  and  C_10
REMARK    7  A    between atoms: C_10  and  C_11
REMARK    8  A    between atoms: N_13  and  C_14
REMARK                            x       y       z     vdW  Elec       q    Type
REMARK                         _______ _______ _______ _____ _____    ______ ____
ROOT
ATOM      1  C   UNL     1       6.529   4.656  16.464  0.00  0.00    +0.000 C 
ENDROOT
BRANCH   1   2
ATOM      2  C   UNL     1       5.663   5.272  15.367  0.00  0.00    +0.000 C 
BRANCH   2   3
ATOM      3  C   UNL     1       5.659   4.377  14.127  0.00  0.00    +0.000 C 
BRANCH   3   4
ATOM      4  C   UNL     1       7.049   4.254  13.503  0.00  0.00    +0.000 C 
BRANCH   4   5
ATOM      5  C   UNL     1       6.948   3.933  12.012  0.00  0.00    +0.000 C 
BRANCH   5   9
ATOM      6  N   UNL     1       6.131   0.482  11.245  0.00  0.00    +0.000 N 
ATOM      7  C   UNL     1       5.889   1.800  11.420  0.00  0.00    +0.000 C 
ATOM      8  O   UNL     1       4.764   2.264  11.293  0.00  0.00    +0.000 OA
ATOM      9  N   UNL     1       6.999   2.510  11.761  0.00  0.00    +0.000 N 
ATOM     10  H   UNL     1       5.349  -0.092  10.961  0.00  0.00    +0.000 HD
ATOM     11  H   UNL     1       7.056   0.086  11.233  0.00  0.00    +0.000 HD
ATOM     12  H   UNL     1       7.889   2.038  11.791  0.00  0.00    +0.000 HD
ENDBRANCH   5   9
ENDBRANCH   4   5
ENDBRANCH   3   4
ENDBRANCH   2   3
ENDBRANCH   1   2
BRANCH   1  13
ATOM     13  C   UNL     1       6.318   5.336  17.811  0.00  0.00    +0.000 C 
BRANCH  13  14
ATOM     14  C   UNL     1       5.304   4.557  18.615  0.00  0.00    +0.000 C 
ATOM     15  O   UNL     1       5.693   3.709  19.416  0.00  0.00    +0.000 OA
ATOM     16  N   UNL     1       3.984   4.846  18.296  0.00  0.00    +0.000 N 
ATOM     17  H   UNL     1       3.814   5.431  17.488  0.00  0.00    +0.000 HD
BRANCH  16  18
ATOM     18  C   UNL     1       2.853   4.275  18.919  0.00  0.00    +0.000 A 
ATOM     19  C   UNL     1       2.447   4.631  20.210  0.00  0.00    +0.000 A 
ATOM     20  C   UNL     1       1.340   4.028  20.809  0.00  0.00    +0.000 A 
ATOM     21  C   UNL     1       0.616   3.066  20.119  0.00  0.00    +0.000 A 
ATOM     22  C   UNL     1       0.988   2.718  18.817  0.00  0.00    +0.000 A 
ATOM     23  C   UNL     1       2.099   3.326  18.217  0.00  0.00    +0.000 A 
ENDBRANCH  16  18
ENDBRANCH  13  14
ENDBRANCH   1  13
TORSDOF 8
ENDMDL
MODEL 8
REMARK VINA RESULT:      -6.4      3.377      6.090
REMARK  Name = 
REMARK  8 active torsions:
REMARK  status: ('A' for Active; 'I' for Inactive)
REMARK    1  A    between atoms: N_4  and  C_5
REMARK    2  A    between atoms: C_5  and  C_6
REMARK    3  A    between atoms: C_6  and  C_7
REMARK    4  A    between atoms: C_7  and  C_8
REMARK    5  A    between atoms: C_8  and  C_9
REMARK    6  A    between atoms: C_9  and  C_10
REMARK    7  A    between atoms: C_10  and  C_11
REMARK    8  A    between atoms: N_13  and  C_14
REMARK                            x       y       z     vdW  Elec       q    Type
REMARK                         _______ _______ _______ _____ _____    ______ ____
ROOT
ATOM      1  C   UNL     1       1.655   5.585  20.495  0.00  0.00    +0.000 C 
ENDROOT
BRANCH   1   2
ATOM      2  C   UNL     1       2.534   4.352  20.694  0.00  0.00    +0.000 C 
BRANCH   2   3
ATOM      3  C   UNL     1       1.687   3.161  21.141  0.00  0.00    +0.000 C 
BRANCH   3   4
ATOM      4  C   UNL     1       0.586   2.828  20.134  0.00  0.00    +0.000 C 
BRANCH   4   5
ATOM      5  C   UNL     1       1.177   2.578  18.747  0.00  0.00    +0.000 C 
BRANCH   5   9
ATOM      6  N   UNL     1       4.171   0.579  18.289  0.00  0.00    +0.000 N 
ATOM      7  C   UNL     1       3.391   1.679  18.188  0.00  0.00    +0.000 C 
ATOM      8  O   UNL     1       3.779   2.685  17.611  0.00  0.00    +0.000 OA
ATOM      9  N   UNL     1       2.168   1.524  18.764  0.00  0.00    +0.000 N 
ATOM     10  H   UNL     1       5.104   0.646  17.905  0.00  0.00    +0.000 HD
ATOM     11  H   UNL     1       3.929  -0.222  18.847  0.00  0.00    +0.000 HD
ATOM     12  H   UNL     1       1.966   0.669  19.258  0.00  0.00    +0.000 HD
ENDBRANCH   5   9
ENDBRANCH   4   5
ENDBRANCH   3   4
ENDBRANCH   2   3
ENDBRANCH   1   2
BRANCH   1  13
ATOM     13  C   UNL     1       2.380   6.692  19.741  0.00  0.00    +0.000 C 
BRANCH  13  14
ATOM     14  C   UNL     1       3.038   6.116  18.510  0.00  0.00    +0.000 C 
ATOM     15  O   UNL     1       2.341   5.590  17.644  0.00  0.00    +0.000 OA
ATOM     16  N   UNL     1       4.425   6.180  18.524  0.00  0.00    +0.000 N 
ATOM     17  H   UNL     1       4.872   6.472  19.384  0.00  0.00    +0.000 HD
BRANCH  16  18
ATOM     18  C   UNL     1       5.271   5.734  17.486  0.00  0.00    +0.000 A 
ATOM     19  C   UNL     1       4.994   5.977  16.135  0.00  0.00    +0.000 A 
ATOM     20  C   UNL     1       5.836   5.499  15.131  0.00  0.00    +0.000 A 
ATOM     21  C   UNL     1       6.976   4.780  15.464  0.00  0.00    +0.000 A 
ATOM     22  C   UNL     1       7.285   4.554  16.808  0.00  0.00    +0.000 A 
ATOM     23  C   UNL     1       6.439   5.035  17.815  0.00  0.00    +0.000 A 
ENDBRANCH  16  18
ENDBRANCH  13  14
ENDBRANCH   1  13
TORSDOF 8
ENDMDL
MODEL 9
REMARK VINA RESULT:      -6.4      1.450      1.658
REMARK  Name = 
REMARK  8 active torsions:
REMARK  status: ('A' for Active; 'I' for Inactive)
REMARK    1  A    between atoms: N_4  and  C_5
REMARK    2  A    between atoms: C_5  and  C_6
REMARK    3  A    between atoms: C_6  and  C_7
REMARK    4  A    between atoms: C_7  and  C_8
REMARK    5  A    between atoms: C_8  and  C_9
REMARK    6  A    between atoms: C_9  and  C_10
REMARK    7  A    between atoms: C_10  and  C_11
REMARK    8  A    between atoms: N_13  and  C_14
REMARK                            x       y       z     vdW  Elec       q    Type
REMARK                         _______ _______ _______ _____ _____    ______ ____
ROOT
ATOM      1  C   UNL     1       6.805   5.210  18.367  0.00  0.00    +0.000 C 
ENDROOT
BRANCH   1   2
ATOM      2  C   UNL     1       7.644   4.659  17.217  0.00  0.00    +0.000 C 
BRANCH   2   3
ATOM      3  C   UNL     1       6.740   4.070  16.133  0.00  0.00    +0.000 C 
BRANCH   3   4
ATOM      4  C   UNL     1       6.815   4.862  14.828  0.00  0.00    +0.000 C 
BRANCH   4   5
ATOM      5  C   UNL     1       5.757   4.378  13.838  0.00  0.00    +0.000 C 
BRANCH   5   9
ATOM      6  N   UNL     1       6.078   1.630  11.489  0.00  0.00    +0.000 N 
ATOM      7  C   UNL     1       5.544   2.760  12.005  0.00  0.00    +0.000 C 
ATOM      8  O   UNL     1       4.567   3.293  11.498  0.00  0.00    +0.000 OA
ATOM      9  N   UNL     1       6.186   3.196  13.122  0.00  0.00    +0.000 N 
ATOM     10  H   UNL     1       5.660   1.275  10.640  0.00  0.00    +0.000 HD
ATOM     11  H   UNL     1       6.941   1.228  11.814  0.00  0.00    +0.000 HD
ATOM     12  H   UNL     1       7.013   2.710  13.431  0.00  0.00    +0.000 HD
ENDBRANCH   5   9
ENDBRANCH   4   5
ENDBRANCH   3   4
ENDBRANCH   2   3
ENDBRANCH   1   2
BRANCH   1  13
ATOM     13  C   UNL     1       5.884   6.338  17.917  0.00  0.00    +0.000 C 
BRANCH  13  14
ATOM     14  C   UNL     1       4.445   5.922  18.112  0.00  0.00    +0.000 C 
ATOM     15  O   UNL     1       3.548   6.615  17.636  0.00  0.00    +0.000 OA
ATOM     16  N   UNL     1       4.282   4.794  18.906  0.00  0.00    +0.000 N 
ATOM     17  H   UNL     1       5.100   4.435  19.382  0.00  0.00    +0.000 HD
BRANCH  16  18
ATOM     18  C   UNL     1       3.045   4.190  19.217  0.00  0.00    +0.000 A 
ATOM     19  C   UNL     1       2.341   3.404  18.299  0.00  0.00    +0.000 A 
ATOM     20  C   UNL     1       1.107   2.843  18.628  0.00  0.00    +0.000 A 
ATOM     21  C   UNL     1       0.563   3.053  19.888  0.00  0.00    +0.000 A 
ATOM     22  C   UNL     1       1.266   3.811  20.829  0.00  0.00    +0.000 A 
ATOM     23  C   UNL     1       2.505   4.372  20.497  0.00  0.00    +0.000 A 
ENDBRANCH  16  18
ENDBRANCH  13  14
ENDBRANCH   1  13
TORSDOF 8
ENDMDL
