MODEL 1
REMARK VINA RESULT:      -6.9      0.000      0.000
REMARK  Name = 
REMARK  11 active torsions:
REMARK  status: ('A' for Active; 'I' for Inactive)
REMARK    1  A    between atoms: C_1  and  C_2
REMARK    2  A    between atoms: C_2  and  O_3
REMARK    3  A    between atoms: O_3  and  C_4
REMARK    4  A    between atoms: C_7  and  C_9
REMARK    5  A    between atoms: C_9  and  S_10
REMARK    6  A    between atoms: S_10  and  C_11
REMARK    7  A    between atoms: C_14  and  S_15
REMARK    8  A    between atoms: S_15  and  C_16
REMARK    9  A    between atoms: C_16  and  C_17
REMARK   10  A    between atoms: C_17  and  C_18
REMARK   11  A    between atoms: C_18  and  O_20
REMARK                            x       y       z     vdW  Elec       q    Type
REMARK                         _______ _______ _______ _____ _____    ______ ____
ROOT
ATOM      1  C   UNL     1       5.744   4.506  17.733  0.00  0.00    +0.000 A 
ATOM      2  N   UNL     1       5.982   4.217  18.995  0.00  0.00    +0.000 NA
ATOM      3  N   UNL     1       5.004   3.392  19.530  0.00  0.00    +0.000 NA
ATOM      4  C   UNL     1       4.072   3.096  18.649  0.00  0.00    +0.000 A 
ATOM      5  S   UNL     1       4.307   3.811  17.109  0.00  0.00    +0.000 S 
ENDROOT
BRANCH   1   6
ATOM      6  S   UNL     1       6.787   5.519  16.759  0.00  0.00    +0.000 S 
BRANCH   6   7
ATOM      7  C   UNL     1       5.836   5.626  15.219  0.00  0.00    +0.000 C 
BRANCH   7  11
ATOM      8  C   UNL     1       6.379   3.422  12.257  0.00  0.00    +0.000 C 
ATOM      9  O   UNL     1       7.457   3.573  11.710  0.00  0.00    +0.000 OA
ATOM     10  N   UNL     1       5.975   3.944  13.457  0.00  0.00    +0.000 N 
ATOM     11  C   UNL     1       6.617   5.000  14.076  0.00  0.00    +0.000 C 
ATOM     12  O   UNL     1       7.757   5.379  13.824  0.00  0.00    +0.000 OA
ATOM     13  H   UNL     1       5.007   3.765  13.672  0.00  0.00    +0.000 HD
BRANCH   8  14
ATOM     14  O   UNL     1       5.358   2.682  11.741  0.00  0.00    +0.000 OA
BRANCH  14  16
ATOM     15  C   UNL     1       3.637   3.593  10.350  0.00  0.00    +0.000 C 
ATOM     16  C   UNL     1       4.066   3.313  11.778  0.00  0.00    +0.000 C 
ENDBRANCH  14  16
ENDBRANCH   8  14
ENDBRANCH   7  11
ENDBRANCH   6   7
ENDBRANCH   1   6
BRANCH   4  17
ATOM     17  S   UNL     1       2.692   2.082  19.006  0.00  0.00    +0.000 S 
BRANCH  17  18
ATOM     18  C   UNL     1       1.314   3.272  18.965  0.00  0.00    +0.000 C 
BRANCH  18  19
ATOM     19  C   UNL     1       0.795   3.577  20.366  0.00  0.00    +0.000 C 
BRANCH  19  20
ATOM     20  C   UNL     1       1.933   3.866  21.308  0.00  0.00    +0.000 C 
ATOM     21  O   UNL     1       2.276   3.152  22.238  0.00  0.00    +0.000 OA
BRANCH  20  22
ATOM     22  O   UNL     1       2.551   5.039  21.030  0.00  0.00    +0.000 OA
ATOM     23  H   UNL     1       2.279   5.440  20.181  0.00  0.00    +0.000 HD
ENDBRANCH  20  22
ENDBRANCH  19  20
ENDBRANCH  18  19
ENDBRANCH  17  18
ENDBRANCH   4  17
TORSDOF 10
ENDMDL
MODEL 2
REMARK VINA RESULT:      -6.5      2.344      2.537
REMARK  Name = 
REMARK  11 active torsions:
REMARK  status: ('A' for Active; 'I' for Inactive)
REMARK    1  A    between atoms: C_1  and  C_2
REMARK    2  A    between atoms: C_2  and  O_3
REMARK    3  A    between atoms: O_3  and  C_4
REMARK    4  A    between atoms: C_7  and  C_9
REMARK    5  A    between atoms: C_9  and  S_10
REMARK    6  A    between atoms: S_10  and  C_11
REMARK    7  A    between atoms: C_14  and  S_15
REMARK    8  A    between atoms: S_15  and  C_16
REMARK    9  A    between atoms: C_16  and  C_17
REMARK   10  A    between atoms: C_17  and  C_18
REMARK   11  A    between atoms: C_18  and  O_20
REMARK                            x       y       z     vdW  Elec       q    Type
REMARK                         _______ _______ _______ _____ _____    ______ ____
ROOT
ATOM      1  C   UNL     1       4.809   6.123  17.916  0.00  0.00    +0.000 A 
ATOM      2  N   UNL     1       3.654   6.639  17.549  0.00  0.00    +0.000 NA
ATOM      3  N   UNL     1       2.625   6.258  18.397  0.00  0.00    +0.000 NA
ATOM      4  C   UNL     1       3.048   5.473  19.365  0.00  0.00    +0.000 A 
ATOM      5  S   UNL     1       4.725   5.126  19.308  0.00  0.00    +0.000 S 
ENDROOT
BRANCH   1   6
ATOM      6  S   UNL     1       6.311   6.410  17.066  0.00  0.00    +0.000 S 
BRANCH   6   7
ATOM      7  C   UNL     1       6.759   4.727  16.564  0.00  0.00    +0.000 C 
BRANCH   7  11
ATOM      8  C   UNL     1       6.270   3.674  13.018  0.00  0.00    +0.000 C 
ATOM      9  O   UNL     1       6.975   4.263  12.217  0.00  0.00    +0.000 OA
ATOM     10  N   UNL     1       6.356   3.709  14.383  0.00  0.00    +0.000 N 
ATOM     11  C   UNL     1       7.049   4.685  15.072  0.00  0.00    +0.000 C 
ATOM     12  O   UNL     1       7.905   5.419  14.587  0.00  0.00    +0.000 OA
ATOM     13  H   UNL     1       5.610   3.216  14.849  0.00  0.00    +0.000 HD
BRANCH   8  14
ATOM     14  O   UNL     1       5.240   2.854  12.668  0.00  0.00    +0.000 OA
BRANCH  14  16
ATOM     15  C   UNL     1       3.688   3.290  10.899  0.00  0.00    +0.000 C 
ATOM     16  C   UNL     1       5.039   2.695  11.253  0.00  0.00    +0.000 C 
ENDBRANCH  14  16
ENDBRANCH   8  14
ENDBRANCH   7  11
ENDBRANCH   6   7
ENDBRANCH   1   6
BRANCH   4  17
ATOM     17  S   UNL     1       2.000   4.811  20.599  0.00  0.00    +0.000 S 
BRANCH  17  18
ATOM     18  C   UNL     1       1.178   3.444  19.720  0.00  0.00    +0.000 C 
BRANCH  18  19
ATOM     19  C   UNL     1       2.095   2.232  19.586  0.00  0.00    +0.000 C 
BRANCH  19  20
ATOM     20  C   UNL     1       2.682   2.153  18.202  0.00  0.00    +0.000 C 
ATOM     21  O   UNL     1       2.235   2.716  17.215  0.00  0.00    +0.000 OA
BRANCH  20  22
ATOM     22  O   UNL     1       3.779   1.360  18.150  0.00  0.00    +0.000 OA
ATOM     23  H   UNL     1       4.581   1.765  18.536  0.00  0.00    +0.000 HD
ENDBRANCH  20  22
ENDBRANCH  19  20
ENDBRANCH  18  19
ENDBRANCH  17  18
ENDBRANCH   4  17
TORSDOF 10
ENDMDL
MODEL 3
REMARK VINA RESULT:      -6.3      2.156      2.296
REMARK  Name = 
REMARK  11 active torsions:
REMARK  status: ('A' for Active; 'I' for Inactive)
REMARK    1  A    between atoms: C_1  and  C_2
REMARK    2  A    between atoms: C_2  and  O_3
REMARK    3  A    between atoms: O_3  and  C_4
REMARK    4  A    between atoms: C_7  and  C_9
REMARK    5  A    between atoms: C_9  and  S_10
REMARK    6  A    between atoms: S_10  and  C_11
REMARK    7  A    between atoms: C_14  and  S_15
REMARK    8  A    between atoms: S_15  and  C_16
REMARK    9  A    between atoms: C_16  and  C_17
REMARK   10  A    between atoms: C_17  and  C_18
REMARK   11  A    between atoms: C_18  and  O_20
REMARK                            x       y       z     vdW  Elec       q    Type
REMARK                         _______ _______ _______ _____ _____    ______ ____
ROOT
ATOM      1  C   UNL     1       4.429   6.198  17.630  0.00  0.00    +0.000 A 
ATOM      2  N   UNL     1       3.441   7.030  17.885  0.00  0.00    +0.000 NA
ATOM      3  N   UNL     1       2.682   6.614  18.969  0.00  0.00    +0.000 NA
ATOM      4  C   UNL     1       3.130   5.489  19.483  0.00  0.00    +0.000 A 
ATOM      5  S   UNL     1       4.498   4.843  18.677  0.00  0.00    +0.000 S 
ENDROOT
BRANCH   1   6
ATOM      6  S   UNL     1       5.579   6.431  16.332  0.00  0.00    +0.000 S 
BRANCH   6   7
ATOM      7  C   UNL     1       6.027   4.717  15.946  0.00  0.00    +0.000 C 
BRANCH   7  11
ATOM      8  C   UNL     1       6.473   3.630  12.405  0.00  0.00    +0.000 C 
ATOM      9  O   UNL     1       7.386   4.186  11.820  0.00  0.00    +0.000 OA
ATOM     10  N   UNL     1       6.190   3.681  13.743  0.00  0.00    +0.000 N 
ATOM     11  C   UNL     1       6.705   4.645  14.588  0.00  0.00    +0.000 C 
ATOM     12  O   UNL     1       7.684   5.346  14.347  0.00  0.00    +0.000 OA
ATOM     13  H   UNL     1       5.330   3.219  13.994  0.00  0.00    +0.000 HD
BRANCH   8  14
ATOM     14  O   UNL     1       5.547   2.837  11.796  0.00  0.00    +0.000 OA
BRANCH  14  16
ATOM     15  C   UNL     1       3.602   3.385  10.514  0.00  0.00    +0.000 C 
ATOM     16  C   UNL     1       4.186   3.288  11.911  0.00  0.00    +0.000 C 
ENDBRANCH  14  16
ENDBRANCH   8  14
ENDBRANCH   7  11
ENDBRANCH   6   7
ENDBRANCH   1   6
BRANCH   4  17
ATOM     17  S   UNL     1       2.393   4.692  20.854  0.00  0.00    +0.000 S 
BRANCH  17  18
ATOM     18  C   UNL     1       0.853   4.032  20.140  0.00  0.00    +0.000 C 
BRANCH  18  19
ATOM     19  C   UNL     1       1.051   3.590  18.694  0.00  0.00    +0.000 C 
BRANCH  19  20
ATOM     20  C   UNL     1       1.723   2.245  18.630  0.00  0.00    +0.000 C 
ATOM     21  O   UNL     1       1.866   1.483  19.574  0.00  0.00    +0.000 OA
BRANCH  20  22
ATOM     22  O   UNL     1       2.185   1.955  17.390  0.00  0.00    +0.000 OA
ATOM     23  H   UNL     1       1.482   1.867  16.715  0.00  0.00    +0.000 HD
ENDBRANCH  20  22
ENDBRANCH  19  20
ENDBRANCH  18  19
ENDBRANCH  17  18
ENDBRANCH   4  17
TORSDOF 10
ENDMDL
MODEL 4
REMARK VINA RESULT:      -6.3      1.774      2.291
REMARK  Name = 
REMARK  11 active torsions:
REMARK  status: ('A' for Active; 'I' for Inactive)
REMARK    1  A    between atoms: C_1  and  C_2
REMARK    2  A    between atoms: C_2  and  O_3
REMARK    3  A    between atoms: O_3  and  C_4
REMARK    4  A    between atoms: C_7  and  C_9
REMARK    5  A    between atoms: C_9  and  S_10
REMARK    6  A    between atoms: S_10  and  C_11
REMARK    7  A    between atoms: C_14  and  S_15
REMARK    8  A    between atoms: S_15  and  C_16
REMARK    9  A    between atoms: C_16  and  C_17
REMARK   10  A    between atoms: C_17  and  C_18
REMARK   11  A    between atoms: C_18  and  O_20
REMARK                            x       y       z     vdW  Elec       q    Type
REMARK                         _______ _______ _______ _____ _____    ______ ____
ROOT
ATOM      1  C   UNL     1       5.076   5.127  18.742  0.00  0.00    +0.000 A 
ATOM      2  N   UNL     1       4.133   6.020  18.526  0.00  0.00    +0.000 NA
ATOM      3  N   UNL     1       2.917   5.426  18.223  0.00  0.00    +0.000 NA
ATOM      4  C   UNL     1       2.996   4.112  18.223  0.00  0.00    +0.000 A 
ATOM      5  S   UNL     1       4.558   3.502  18.578  0.00  0.00    +0.000 S 
ENDROOT
BRANCH   1   6
ATOM      6  S   UNL     1       6.725   5.541  19.155  0.00  0.00    +0.000 S 
BRANCH   6   7
ATOM      7  C   UNL     1       7.646   4.607  17.904  0.00  0.00    +0.000 C 
BRANCH   7  11
ATOM      8  C   UNL     1       6.744   4.613  14.283  0.00  0.00    +0.000 C 
ATOM      9  O   UNL     1       6.700   5.722  13.778  0.00  0.00    +0.000 OA
ATOM     10  N   UNL     1       7.221   4.283  15.523  0.00  0.00    +0.000 N 
ATOM     11  C   UNL     1       7.421   5.211  16.527  0.00  0.00    +0.000 C 
ATOM     12  O   UNL     1       7.511   6.424  16.361  0.00  0.00    +0.000 OA
ATOM     13  H   UNL     1       7.074   3.317  15.771  0.00  0.00    +0.000 HD
BRANCH   8  14
ATOM     14  O   UNL     1       6.306   3.478  13.671  0.00  0.00    +0.000 OA
BRANCH  14  16
ATOM     15  C   UNL     1       5.653   2.256  11.719  0.00  0.00    +0.000 C 
ATOM     16  C   UNL     1       6.337   3.509  12.232  0.00  0.00    +0.000 C 
ENDBRANCH  14  16
ENDBRANCH   8  14
ENDBRANCH   7  11
ENDBRANCH   6   7
ENDBRANCH   1   6
BRANCH   4  17
ATOM     17  S   UNL     1       1.642   3.063  17.873  0.00  0.00    +0.000 S 
BRANCH  17  18
ATOM     18  C   UNL     1       1.414   2.182  19.450  0.00  0.00    +0.000 C 
BRANCH  18  19
ATOM     19  C   UNL     1       0.928   3.119  20.551  0.00  0.00    +0.000 C 
BRANCH  19  20
ATOM     20  C   UNL     1       2.065   3.532  21.446  0.00  0.00    +0.000 C 
ATOM     21  O   UNL     1       2.440   4.680  21.626  0.00  0.00    +0.000 OA
BRANCH  20  22
ATOM     22  O   UNL     1       2.666   2.473  22.042  0.00  0.00    +0.000 OA
ATOM     23  H   UNL     1       2.135   1.652  22.021  0.00  0.00    +0.000 HD
ENDBRANCH  20  22
ENDBRANCH  19  20
ENDBRANCH  18  19
ENDBRANCH  17  18
ENDBRANCH   4  17
TORSDOF 10
ENDMDL
MODEL 5
REMARK VINA RESULT:      -6.1      1.767      1.890
REMARK  Name = 
REMARK  11 active torsions:
REMARK  status: ('A' for Active; 'I' for Inactive)
REMARK    1  A    between atoms: C_1  and  C_2
REMARK    2  A    between atoms: C_2  and  O_3
REMARK    3  A    between atoms: O_3  and  C_4
REMARK    4  A    between atoms: C_7  and  C_9
REMARK    5  A    between atoms: C_9  and  S_10
REMARK    6  A    between atoms: S_10  and  C_11
REMARK    7  A    between atoms: C_14  and  S_15
REMARK    8  A    between atoms: S_15  and  C_16
REMARK    9  A    between atoms: C_16  and  C_17
REMARK   10  A    between atoms: C_17  and  C_18
REMARK   11  A    between atoms: C_18  and  O_20
REMARK                            x       y       z     vdW  Elec       q    Type
REMARK                         _______ _______ _______ _____ _____    ______ ____
ROOT
ATOM      1  C   UNL     1       5.621   5.499  18.103  0.00  0.00    +0.000 A 
ATOM      2  N   UNL     1       5.594   4.839  19.242  0.00  0.00    +0.000 NA
ATOM      3  N   UNL     1       4.420   5.069  19.945  0.00  0.00    +0.000 NA
ATOM      4  C   UNL     1       3.615   5.891  19.306  0.00  0.00    +0.000 A 
ATOM      5  S   UNL     1       4.231   6.458  17.810  0.00  0.00    +0.000 S 
ENDROOT
BRANCH   1   6
ATOM      6  S   UNL     1       6.955   5.425  16.973  0.00  0.00    +0.000 S 
BRANCH   6   7
ATOM      7  C   UNL     1       6.416   4.084  15.879  0.00  0.00    +0.000 C 
BRANCH   7  11
ATOM      8  C   UNL     1       6.469   3.697  12.168  0.00  0.00    +0.000 C 
ATOM      9  O   UNL     1       7.226   4.460  11.594  0.00  0.00    +0.000 OA
ATOM     10  N   UNL     1       6.374   3.477  13.516  0.00  0.00    +0.000 N 
ATOM     11  C   UNL     1       6.899   4.338  14.461  0.00  0.00    +0.000 C 
ATOM     12  O   UNL     1       7.754   5.190  14.241  0.00  0.00    +0.000 OA
ATOM     13  H   UNL     1       5.612   2.871  13.776  0.00  0.00    +0.000 HD
BRANCH   8  14
ATOM     14  O   UNL     1       5.555   2.909  11.535  0.00  0.00    +0.000 OA
BRANCH  14  16
ATOM     15  C   UNL     1       3.474   3.234  10.399  0.00  0.00    +0.000 C 
ATOM     16  C   UNL     1       4.180   3.282  11.741  0.00  0.00    +0.000 C 
ENDBRANCH  14  16
ENDBRANCH   8  14
ENDBRANCH   7  11
ENDBRANCH   6   7
ENDBRANCH   1   6
BRANCH   4  17
ATOM     17  S   UNL     1       2.058   6.391  19.924  0.00  0.00    +0.000 S 
BRANCH  17  18
ATOM     18  C   UNL     1       1.469   4.885  20.762  0.00  0.00    +0.000 C 
BRANCH  18  19
ATOM     19  C   UNL     1       1.029   3.822  19.761  0.00  0.00    +0.000 C 
BRANCH  19  20
ATOM     20  C   UNL     1       1.668   2.495  20.073  0.00  0.00    +0.000 C 
ATOM     21  O   UNL     1       2.201   2.201  21.131  0.00  0.00    +0.000 OA
BRANCH  20  22
ATOM     22  O   UNL     1       1.607   1.634  19.029  0.00  0.00    +0.000 OA
ATOM     23  H   UNL     1       2.119   1.921  18.246  0.00  0.00    +0.000 HD
ENDBRANCH  20  22
ENDBRANCH  19  20
ENDBRANCH  18  19
ENDBRANCH  17  18
ENDBRANCH   4  17
TORSDOF 10
ENDMDL
MODEL 6
REMARK VINA RESULT:      -6.0      2.193      2.468
REMARK  Name = 
REMARK  11 active torsions:
REMARK  status: ('A' for Active; 'I' for Inactive)
REMARK    1  A    between atoms: C_1  and  C_2
REMARK    2  A    between atoms: C_2  and  O_3
REMARK    3  A    between atoms: O_3  and  C_4
REMARK    4  A    between atoms: C_7  and  C_9
REMARK    5  A    between atoms: C_9  and  S_10
REMARK    6  A    between atoms: S_10  and  C_11
REMARK    7  A    between atoms: C_14  and  S_15
REMARK    8  A    between atoms: S_15  and  C_16
REMARK    9  A    between atoms: C_16  and  C_17
REMARK   10  A    between atoms: C_17  and  C_18
REMARK   11  A    between atoms: C_18  and  O_20
REMARK                            x       y       z     vdW  Elec       q    Type
REMARK                         _______ _______ _______ _____ _____    ______ ____
ROOT
ATOM      1  C   UNL     1       4.529   5.726  17.809  0.00  0.00    +0.000 A 
ATOM      2  N   UNL     1       5.162   5.436  18.927  0.00  0.00    +0.000 NA
ATOM      3  N   UNL     1       4.287   5.049  19.931  0.00  0.00    +0.000 NA
ATOM      4  C   UNL     1       3.034   5.064  19.527  0.00  0.00    +0.000 A 
ATOM      5  S   UNL     1       2.825   5.564  17.901  0.00  0.00    +0.000 S 
ENDROOT
BRANCH   1   6
ATOM      6  S   UNL     1       5.337   6.242  16.345  0.00  0.00    +0.000 S 
BRANCH   6   7
ATOM      7  C   UNL     1       6.607   4.959  16.174  0.00  0.00    +0.000 C 
BRANCH   7  11
ATOM      8  C   UNL     1       6.339   3.590  12.713  0.00  0.00    +0.000 C 
ATOM      9  O   UNL     1       7.086   4.114  11.906  0.00  0.00    +0.000 OA
ATOM     10  N   UNL     1       6.342   3.746  14.073  0.00  0.00    +0.000 N 
ATOM     11  C   UNL     1       6.986   4.788  14.712  0.00  0.00    +0.000 C 
ATOM     12  O   UNL     1       7.864   5.487  14.214  0.00  0.00    +0.000 OA
ATOM     13  H   UNL     1       5.573   3.288  14.536  0.00  0.00    +0.000 HD
BRANCH   8  14
ATOM     14  O   UNL     1       5.337   2.729  12.378  0.00  0.00    +0.000 OA
BRANCH  14  16
ATOM     15  C   UNL     1       6.549   1.053  11.173  0.00  0.00    +0.000 C 
ATOM     16  C   UNL     1       5.468   2.114  11.083  0.00  0.00    +0.000 C 
ENDBRANCH  14  16
ENDBRANCH   8  14
ENDBRANCH   7  11
ENDBRANCH   6   7
ENDBRANCH   1   6
BRANCH   4  17
ATOM     17  S   UNL     1       1.684   4.636  20.552  0.00  0.00    +0.000 S 
BRANCH  17  18
ATOM     18  C   UNL     1       1.411   2.887  20.126  0.00  0.00    +0.000 C 
BRANCH  18  19
ATOM     19  C   UNL     1       2.728   2.150  19.909  0.00  0.00    +0.000 C 
BRANCH  19  20
ATOM     20  C   UNL     1       2.864   1.702  18.479  0.00  0.00    +0.000 C 
ATOM     21  O   UNL     1       2.154   2.068  17.555  0.00  0.00    +0.000 OA
BRANCH  20  22
ATOM     22  O   UNL     1       3.871   0.811  18.309  0.00  0.00    +0.000 OA
ATOM     23  H   UNL     1       3.776  -0.003  18.842  0.00  0.00    +0.000 HD
ENDBRANCH  20  22
ENDBRANCH  19  20
ENDBRANCH  18  19
ENDBRANCH  17  18
ENDBRANCH   4  17
TORSDOF 10
ENDMDL
MODEL 7
REMARK VINA RESULT:      -6.0      2.330      2.875
REMARK  Name = 
REMARK  11 active torsions:
REMARK  status: ('A' for Active; 'I' for Inactive)
REMARK    1  A    between atoms: C_1  and  C_2
REMARK    2  A    between atoms: C_2  and  O_3
REMARK    3  A    between atoms: O_3  and  C_4
REMARK    4  A    between atoms: C_7  and  C_9
REMARK    5  A    between atoms: C_9  and  S_10
REMARK    6  A    between atoms: S_10  and  C_11
REMARK    7  A    between atoms: C_14  and  S_15
REMARK    8  A    between atoms: S_15  and  C_16
REMARK    9  A    between atoms: C_16  and  C_17
REMARK   10  A    between atoms: C_17  and  C_18
REMARK   11  A    between atoms: C_18  and  O_20
REMARK                            x       y       z     vdW  Elec       q    Type
REMARK                         _______ _______ _______ _____ _____    ______ ____
ROOT
ATOM      1  C   UNL     1       5.101   4.449  19.640  0.00  0.00    +0.000 A 
ATOM      2  N   UNL     1       5.160   3.203  20.060  0.00  0.00    +0.000 NA
ATOM      3  N   UNL     1       3.918   2.734  20.462  0.00  0.00    +0.000 NA
ATOM      4  C   UNL     1       2.979   3.646  20.328  0.00  0.00    +0.000 A 
ATOM      5  S   UNL     1       3.538   5.147  19.716  0.00  0.00    +0.000 S 
ENDROOT
BRANCH   1   6
ATOM      6  S   UNL     1       6.490   5.340  19.056  0.00  0.00    +0.000 S 
BRANCH   6   7
ATOM      7  C   UNL     1       5.788   6.177  17.609  0.00  0.00    +0.000 C 
BRANCH   7  11
ATOM      8  C   UNL     1       6.871   4.847  14.295  0.00  0.00    +0.000 C 
ATOM      9  O   UNL     1       7.886   5.359  13.855  0.00  0.00    +0.000 OA
ATOM     10  N   UNL     1       6.344   4.991  15.550  0.00  0.00    +0.000 N 
ATOM     11  C   UNL     1       6.707   6.010  16.410  0.00  0.00    +0.000 C 
ATOM     12  O   UNL     1       7.724   6.690  16.310  0.00  0.00    +0.000 OA
ATOM     13  H   UNL     1       5.445   4.550  15.666  0.00  0.00    +0.000 HD
BRANCH   8  14
ATOM     14  O   UNL     1       6.063   4.017  13.578  0.00  0.00    +0.000 OA
BRANCH  14  16
ATOM     15  C   UNL     1       5.851   2.439  11.791  0.00  0.00    +0.000 C 
ATOM     16  C   UNL     1       6.518   3.725  12.244  0.00  0.00    +0.000 C 
ENDBRANCH  14  16
ENDBRANCH   8  14
ENDBRANCH   7  11
ENDBRANCH   6   7
ENDBRANCH   1   6
BRANCH   4  17
ATOM     17  S   UNL     1       1.304   3.378  20.751  0.00  0.00    +0.000 S 
BRANCH  17  18
ATOM     18  C   UNL     1       0.599   2.768  19.187  0.00  0.00    +0.000 C 
BRANCH  18  19
ATOM     19  C   UNL     1       1.455   1.662  18.580  0.00  0.00    +0.000 C 
BRANCH  19  20
ATOM     20  C   UNL     1       2.465   2.230  17.619  0.00  0.00    +0.000 C 
ATOM     21  O   UNL     1       2.247   3.120  16.812  0.00  0.00    +0.000 OA
BRANCH  20  22
ATOM     22  O   UNL     1       3.675   1.629  17.726  0.00  0.00    +0.000 OA
ATOM     23  H   UNL     1       4.348   1.978  17.108  0.00  0.00    +0.000 HD
ENDBRANCH  20  22
ENDBRANCH  19  20
ENDBRANCH  18  19
ENDBRANCH  17  18
ENDBRANCH   4  17
TORSDOF 10
ENDMDL
MODEL 8
REMARK VINA RESULT:      -6.0      1.065      1.305
REMARK  Name = 
REMARK  11 active torsions:
REMARK  status: ('A' for Active; 'I' for Inactive)
REMARK    1  A    between atoms: C_1  and  C_2
REMARK    2  A    between atoms: C_2  and  O_3
REMARK    3  A    between atoms: O_3  and  C_4
REMARK    4  A    between atoms: C_7  and  C_9
REMARK    5  A    between atoms: C_9  and  S_10
REMARK    6  A    between atoms: S_10  and  C_11
REMARK    7  A    between atoms: C_14  and  S_15
REMARK    8  A    between atoms: S_15  and  C_16
REMARK    9  A    between atoms: C_16  and  C_17
REMARK   10  A    between atoms: C_17  and  C_18
REMARK   11  A    between atoms: C_18  and  O_20
REMARK                            x       y       z     vdW  Elec       q    Type
REMARK                         _______ _______ _______ _____ _____    ______ ____
ROOT
ATOM      1  C   UNL     1       5.459   4.704  18.360  0.00  0.00    +0.000 A 
ATOM      2  N   UNL     1       5.737   3.907  19.371  0.00  0.00    +0.000 NA
ATOM      3  N   UNL     1       4.717   2.999  19.609  0.00  0.00    +0.000 NA
ATOM      4  C   UNL     1       3.715   3.150  18.769  0.00  0.00    +0.000 A 
ATOM      5  S   UNL     1       3.932   4.418  17.636  0.00  0.00    +0.000 S 
ENDROOT
BRANCH   1   6
ATOM      6  S   UNL     1       6.538   5.960  17.792  0.00  0.00    +0.000 S 
BRANCH   6   7
ATOM      7  C   UNL     1       5.833   6.317  16.160  0.00  0.00    +0.000 C 
BRANCH   7  11
ATOM      8  C   UNL     1       5.761   4.042  13.203  0.00  0.00    +0.000 C 
ATOM      9  O   UNL     1       6.858   3.652  12.843  0.00  0.00    +0.000 OA
ATOM     10  N   UNL     1       5.457   4.724  14.351  0.00  0.00    +0.000 N 
ATOM     11  C   UNL     1       6.406   5.367  15.122  0.00  0.00    +0.000 C 
ATOM     12  O   UNL     1       7.615   5.157  15.075  0.00  0.00    +0.000 OA
ATOM     13  H   UNL     1       4.498   5.028  14.400  0.00  0.00    +0.000 HD
BRANCH   8  14
ATOM     14  O   UNL     1       4.615   3.858  12.492  0.00  0.00    +0.000 OA
BRANCH  14  16
ATOM     15  C   UNL     1       3.495   3.056  10.534  0.00  0.00    +0.000 C 
ATOM     16  C   UNL     1       4.698   2.878  11.442  0.00  0.00    +0.000 C 
ENDBRANCH  14  16
ENDBRANCH   8  14
ENDBRANCH   7  11
ENDBRANCH   6   7
ENDBRANCH   1   6
BRANCH   4  17
ATOM     17  S   UNL     1       2.269   2.168  18.804  0.00  0.00    +0.000 S 
BRANCH  17  18
ATOM     18  C   UNL     1       1.526   2.625  20.403  0.00  0.00    +0.000 C 
BRANCH  18  19
ATOM     19  C   UNL     1       0.828   3.979  20.330  0.00  0.00    +0.000 C 
BRANCH  19  20
ATOM     20  C   UNL     1       1.799   5.099  20.595  0.00  0.00    +0.000 C 
ATOM     21  O   UNL     1       1.824   6.165  19.999  0.00  0.00    +0.000 OA
BRANCH  20  22
ATOM     22  O   UNL     1       2.680   4.797  21.578  0.00  0.00    +0.000 OA
ATOM     23  H   UNL     1       2.600   3.884  21.918  0.00  0.00    +0.000 HD
ENDBRANCH  20  22
ENDBRANCH  19  20
ENDBRANCH  18  19
ENDBRANCH  17  18
ENDBRANCH   4  17
TORSDOF 10
ENDMDL
MODEL 9
REMARK VINA RESULT:      -6.0      3.243      4.923
REMARK  Name = 
REMARK  11 active torsions:
REMARK  status: ('A' for Active; 'I' for Inactive)
REMARK    1  A    between atoms: C_1  and  C_2
REMARK    2  A    between atoms: C_2  and  O_3
REMARK    3  A    between atoms: O_3  and  C_4
REMARK    4  A    between atoms: C_7  and  C_9
REMARK    5  A    between atoms: C_9  and  S_10
REMARK    6  A    between atoms: S_10  and  C_11
REMARK    7  A    between atoms: C_14  and  S_15
REMARK    8  A    between atoms: S_15  and  C_16
REMARK    9  A    between atoms: C_16  and  C_17
REMARK   10  A    between atoms: C_17  and  C_18
REMARK   11  A    between atoms: C_18  and  O_20
REMARK                            x       y       z     vdW  Elec       q    Type
REMARK                         _______ _______ _______ _____ _____    ______ ____
ROOT
ATOM      1  C   UNL     1       4.796   4.707  16.266  0.00  0.00    +0.000 A 
ATOM      2  N   UNL     1       4.586   5.992  16.462  0.00  0.00    +0.000 NA
ATOM      3  N   UNL     1       3.962   6.234  17.677  0.00  0.00    +0.000 NA
ATOM      4  C   UNL     1       3.729   5.123  18.342  0.00  0.00    +0.000 A 
ATOM      5  S   UNL     1       4.238   3.699  17.534  0.00  0.00    +0.000 S 
ENDROOT
BRANCH   1   6
ATOM      6  S   UNL     1       5.571   4.060  14.836  0.00  0.00    +0.000 S 
BRANCH   6   7
ATOM      7  C   UNL     1       7.163   4.927  14.876  0.00  0.00    +0.000 C 
BRANCH   7  11
ATOM      8  C   UNL     1       7.673   6.938  17.977  0.00  0.00    +0.000 C 
ATOM      9  O   UNL     1       8.041   6.289  18.941  0.00  0.00    +0.000 OA
ATOM     10  N   UNL     1       7.585   6.517  16.677  0.00  0.00    +0.000 N 
ATOM     11  C   UNL     1       7.584   5.185  16.313  0.00  0.00    +0.000 C 
ATOM     12  O   UNL     1       7.970   4.258  17.020  0.00  0.00    +0.000 OA
ATOM     13  H   UNL     1       7.167   7.194  16.059  0.00  0.00    +0.000 HD
BRANCH   8  14
ATOM     14  O   UNL     1       7.272   8.238  18.040  0.00  0.00    +0.000 OA
BRANCH  14  16
ATOM     15  C   UNL     1       8.924   9.750  18.886  0.00  0.00    +0.000 C 
ATOM     16  C   UNL     1       8.261   9.202  17.636  0.00  0.00    +0.000 C 
ENDBRANCH  14  16
ENDBRANCH   8  14
ENDBRANCH   7  11
ENDBRANCH   6   7
ENDBRANCH   1   6
BRANCH   4  17
ATOM     17  S   UNL     1       2.948   5.079  19.906  0.00  0.00    +0.000 S 
BRANCH  17  18
ATOM     18  C   UNL     1       1.460   4.084  19.571  0.00  0.00    +0.000 C 
BRANCH  18  19
ATOM     19  C   UNL     1       1.647   2.634  20.004  0.00  0.00    +0.000 C 
BRANCH  19  20
ATOM     20  C   UNL     1       2.034   2.553  21.457  0.00  0.00    +0.000 C 
ATOM     21  O   UNL     1       1.277   2.733  22.398  0.00  0.00    +0.000 OA
BRANCH  20  22
ATOM     22  O   UNL     1       3.347   2.267  21.628  0.00  0.00    +0.000 OA
ATOM     23  H   UNL     1       3.902   2.466  20.848  0.00  0.00    +0.000 HD
ENDBRANCH  20  22
ENDBRANCH  19  20
ENDBRANCH  18  19
ENDBRANCH  17  18
ENDBRANCH   4  17
TORSDOF 10
ENDMDL
