MODEL 1
REMARK VINA RESULT:      -6.3      0.000      0.000
REMARK  Name = 
REMARK  4 active torsions:
REMARK  status: ('A' for Active; 'I' for Inactive)
REMARK    1  A    between atoms: C_1  and  O_2
REMARK    2  A    between atoms: O_2  and  C_3
REMARK    3  A    between atoms: C_3  and  C_5
REMARK    4  A    between atoms: C_6  and  O_7
REMARK                            x       y       z     vdW  Elec       q    Type
REMARK                         _______ _______ _______ _____ _____    ______ ____
ROOT
ATOM      1  C   UNL     1       3.494   4.055  18.276  0.00  0.00    +0.000 A 
ATOM      2  C   UNL     1       4.277   3.336  19.193  0.00  0.00    +0.000 A 
ATOM      3  C   UNL     1       3.667   2.678  20.262  0.00  0.00    +0.000 A 
ATOM      4  F   UNL     1       4.411   2.005  21.152  0.00  0.00    +0.000 F 
ATOM      5  C   UNL     1       2.287   2.708  20.410  0.00  0.00    +0.000 A 
ATOM      6  F   UNL     1       1.705   2.066  21.432  0.00  0.00    +0.000 F 
ATOM      7  C   UNL     1       1.508   3.394  19.489  0.00  0.00    +0.000 A 
ATOM      8  F   UNL     1       0.173   3.405  19.618  0.00  0.00    +0.000 F 
ATOM      9  C   UNL     1       2.105   4.067  18.425  0.00  0.00    +0.000 A 
ATOM     10  F   UNL     1       1.318   4.692  17.537  0.00  0.00    +0.000 F 
ENDROOT
BRANCH   1  11
ATOM     11  C   UNL     1       4.160   4.764  17.172  0.00  0.00    +0.000 C 
ATOM     12  O   UNL     1       4.169   5.987  17.118  0.00  0.00    +0.000 OA
BRANCH  11  14
ATOM     13  C   UNL     1       5.913   4.226  15.730  0.00  0.00    +0.000 C 
ATOM     14  O   UNL     1       4.611   3.911  16.228  0.00  0.00    +0.000 OA
ENDBRANCH  11  14
ENDBRANCH   1  11
BRANCH   2  15
ATOM     15  O   UNL     1       5.642   3.249  19.094  0.00  0.00    +0.000 OA
ATOM     16  H   UNL     1       5.944   3.658  18.252  0.00  0.00    +0.000 HD
ENDBRANCH   2  15
TORSDOF 3
ENDMDL
MODEL 2
REMARK VINA RESULT:      -6.3      0.606      1.125
REMARK  Name = 
REMARK  4 active torsions:
REMARK  status: ('A' for Active; 'I' for Inactive)
REMARK    1  A    between atoms: C_1  and  O_2
REMARK    2  A    between atoms: O_2  and  C_3
REMARK    3  A    between atoms: C_3  and  C_5
REMARK    4  A    between atoms: C_6  and  O_7
REMARK                            x       y       z     vdW  Elec       q    Type
REMARK                         _______ _______ _______ _____ _____    ______ ____
ROOT
ATOM      1  C   UNL     1       3.448   4.004  18.217  0.00  0.00    +0.000 A 
ATOM      2  C   UNL     1       4.251   3.316  19.141  0.00  0.00    +0.000 A 
ATOM      3  C   UNL     1       3.662   2.676  20.233  0.00  0.00    +0.000 A 
ATOM      4  F   UNL     1       4.424   2.033  21.129  0.00  0.00    +0.000 F 
ATOM      5  C   UNL     1       2.283   2.693  20.396  0.00  0.00    +0.000 A 
ATOM      6  F   UNL     1       1.722   2.067  21.440  0.00  0.00    +0.000 F 
ATOM      7  C   UNL     1       1.485   3.347  19.469  0.00  0.00    +0.000 A 
ATOM      8  F   UNL     1       0.152   3.345  19.613  0.00  0.00    +0.000 F 
ATOM      9  C   UNL     1       2.062   4.002  18.383  0.00  0.00    +0.000 A 
ATOM     10  F   UNL     1       1.256   4.597  17.490  0.00  0.00    +0.000 F 
ENDROOT
BRANCH   1  11
ATOM     11  C   UNL     1       4.093   4.695  17.089  0.00  0.00    +0.000 C 
ATOM     12  O   UNL     1       4.683   4.070  16.217  0.00  0.00    +0.000 OA
BRANCH  11  14
ATOM     13  C   UNL     1       5.323   6.676  17.137  0.00  0.00    +0.000 C 
ATOM     14  O   UNL     1       4.049   6.036  17.231  0.00  0.00    +0.000 OA
ENDBRANCH  11  14
ENDBRANCH   1  11
BRANCH   2  15
ATOM     15  O   UNL     1       5.616   3.243  19.028  0.00  0.00    +0.000 OA
ATOM     16  H   UNL     1       5.872   3.207  18.079  0.00  0.00    +0.000 HD
ENDBRANCH   2  15
TORSDOF 3
ENDMDL
MODEL 3
REMARK VINA RESULT:      -6.3      1.795      2.451
REMARK  Name = 
REMARK  4 active torsions:
REMARK  status: ('A' for Active; 'I' for Inactive)
REMARK    1  A    between atoms: C_1  and  O_2
REMARK    2  A    between atoms: O_2  and  C_3
REMARK    3  A    between atoms: C_3  and  C_5
REMARK    4  A    between atoms: C_6  and  O_7
REMARK                            x       y       z     vdW  Elec       q    Type
REMARK                         _______ _______ _______ _____ _____    ______ ____
ROOT
ATOM      1  C   UNL     1       4.582   4.206  18.460  0.00  0.00    +0.000 A 
ATOM      2  C   UNL     1       4.258   3.137  19.310  0.00  0.00    +0.000 A 
ATOM      3  C   UNL     1       2.920   2.796  19.518  0.00  0.00    +0.000 A 
ATOM      4  F   UNL     1       2.603   1.788  20.344  0.00  0.00    +0.000 F 
ATOM      5  C   UNL     1       1.909   3.492  18.870  0.00  0.00    +0.000 A 
ATOM      6  F   UNL     1       0.628   3.153  19.065  0.00  0.00    +0.000 F 
ATOM      7  C   UNL     1       2.229   4.530  18.007  0.00  0.00    +0.000 A 
ATOM      8  F   UNL     1       1.254   5.187  17.362  0.00  0.00    +0.000 F 
ATOM      9  C   UNL     1       3.558   4.890  17.801  0.00  0.00    +0.000 A 
ATOM     10  F   UNL     1       3.830   5.878  16.935  0.00  0.00    +0.000 F 
ENDROOT
BRANCH   1  11
ATOM     11  C   UNL     1       5.997   4.566  18.276  0.00  0.00    +0.000 C 
ATOM     12  O   UNL     1       6.566   4.375  17.209  0.00  0.00    +0.000 OA
BRANCH  11  14
ATOM     13  C   UNL     1       7.764   5.736  19.250  0.00  0.00    +0.000 C 
ATOM     14  O   UNL     1       6.562   4.984  19.428  0.00  0.00    +0.000 OA
ENDBRANCH  11  14
ENDBRANCH   1  11
BRANCH   2  15
ATOM     15  O   UNL     1       5.208   2.396  19.965  0.00  0.00    +0.000 OA
ATOM     16  H   UNL     1       5.999   2.282  19.391  0.00  0.00    +0.000 HD
ENDBRANCH   2  15
TORSDOF 3
ENDMDL
MODEL 4
REMARK VINA RESULT:      -6.2      1.639      2.260
REMARK  Name = 
REMARK  4 active torsions:
REMARK  status: ('A' for Active; 'I' for Inactive)
REMARK    1  A    between atoms: C_1  and  O_2
REMARK    2  A    between atoms: O_2  and  C_3
REMARK    3  A    between atoms: C_3  and  C_5
REMARK    4  A    between atoms: C_6  and  O_7
REMARK                            x       y       z     vdW  Elec       q    Type
REMARK                         _______ _______ _______ _____ _____    ______ ____
ROOT
ATOM      1  C   UNL     1       4.398   4.390  18.559  0.00  0.00    +0.000 A 
ATOM      2  C   UNL     1       4.190   3.086  19.037  0.00  0.00    +0.000 A 
ATOM      3  C   UNL     1       2.920   2.513  18.960  0.00  0.00    +0.000 A 
ATOM      4  F   UNL     1       2.710   1.275  19.432  0.00  0.00    +0.000 F 
ATOM      5  C   UNL     1       1.867   3.213  18.389  0.00  0.00    +0.000 A 
ATOM      6  F   UNL     1       0.652   2.653  18.307  0.00  0.00    +0.000 F 
ATOM      7  C   UNL     1       2.076   4.491  17.889  0.00  0.00    +0.000 A 
ATOM      8  F   UNL     1       1.065   5.159  17.316  0.00  0.00    +0.000 F 
ATOM      9  C   UNL     1       3.336   5.080  17.973  0.00  0.00    +0.000 A 
ATOM     10  F   UNL     1       3.508   6.304  17.450  0.00  0.00    +0.000 F 
ENDROOT
BRANCH   1  11
ATOM     11  C   UNL     1       5.739   4.986  18.676  0.00  0.00    +0.000 C 
ATOM     12  O   UNL     1       6.255   5.176  19.769  0.00  0.00    +0.000 OA
BRANCH  11  14
ATOM     13  C   UNL     1       7.227   4.527  16.939  0.00  0.00    +0.000 C 
ATOM     14  O   UNL     1       6.217   5.382  17.478  0.00  0.00    +0.000 OA
ENDBRANCH  11  14
ENDBRANCH   1  11
BRANCH   2  15
ATOM     15  O   UNL     1       5.191   2.332  19.595  0.00  0.00    +0.000 OA
ATOM     16  H   UNL     1       6.048   2.812  19.530  0.00  0.00    +0.000 HD
ENDBRANCH   2  15
TORSDOF 3
ENDMDL
MODEL 5
REMARK VINA RESULT:      -6.1      2.461      3.466
REMARK  Name = 
REMARK  4 active torsions:
REMARK  status: ('A' for Active; 'I' for Inactive)
REMARK    1  A    between atoms: C_1  and  O_2
REMARK    2  A    between atoms: O_2  and  C_3
REMARK    3  A    between atoms: C_3  and  C_5
REMARK    4  A    between atoms: C_6  and  O_7
REMARK                            x       y       z     vdW  Elec       q    Type
REMARK                         _______ _______ _______ _____ _____    ______ ____
ROOT
ATOM      1  C   UNL     1       5.366   5.049  17.311  0.00  0.00    +0.000 A 
ATOM      2  C   UNL     1       4.937   4.448  18.506  0.00  0.00    +0.000 A 
ATOM      3  C   UNL     1       3.935   5.053  19.266  0.00  0.00    +0.000 A 
ATOM      4  F   UNL     1       3.534   4.495  20.418  0.00  0.00    +0.000 F 
ATOM      5  C   UNL     1       3.340   6.231  18.835  0.00  0.00    +0.000 A 
ATOM      6  F   UNL     1       2.370   6.801  19.563  0.00  0.00    +0.000 F 
ATOM      7  C   UNL     1       3.741   6.810  17.640  0.00  0.00    +0.000 A 
ATOM      8  F   UNL     1       3.151   7.935  17.210  0.00  0.00    +0.000 F 
ATOM      9  C   UNL     1       4.751   6.225  16.878  0.00  0.00    +0.000 A 
ATOM     10  F   UNL     1       5.090   6.797  15.713  0.00  0.00    +0.000 F 
ENDROOT
BRANCH   1  11
ATOM     11  C   UNL     1       6.443   4.409  16.539  0.00  0.00    +0.000 C 
ATOM     12  O   UNL     1       7.620   4.601  16.815  0.00  0.00    +0.000 OA
BRANCH  11  14
ATOM     13  C   UNL     1       6.473   4.184  14.218  0.00  0.00    +0.000 C 
ATOM     14  O   UNL     1       5.963   3.733  15.474  0.00  0.00    +0.000 OA
ENDBRANCH  11  14
ENDBRANCH   1  11
BRANCH   2  15
ATOM     15  O   UNL     1       5.468   3.276  18.979  0.00  0.00    +0.000 OA
ATOM     16  H   UNL     1       5.763   2.714  18.227  0.00  0.00    +0.000 HD
ENDBRANCH   2  15
TORSDOF 3
ENDMDL
MODEL 6
REMARK VINA RESULT:      -6.1      2.793      4.040
REMARK  Name = 
REMARK  4 active torsions:
REMARK  status: ('A' for Active; 'I' for Inactive)
REMARK    1  A    between atoms: C_1  and  O_2
REMARK    2  A    between atoms: O_2  and  C_3
REMARK    3  A    between atoms: C_3  and  C_5
REMARK    4  A    between atoms: C_6  and  O_7
REMARK                            x       y       z     vdW  Elec       q    Type
REMARK                         _______ _______ _______ _____ _____    ______ ____
ROOT
ATOM      1  C   UNL     1       5.802   5.210  16.823  0.00  0.00    +0.000 A 
ATOM      2  C   UNL     1       4.890   4.146  16.903  0.00  0.00    +0.000 A 
ATOM      3  C   UNL     1       3.587   4.379  17.349  0.00  0.00    +0.000 A 
ATOM      4  F   UNL     1       2.717   3.363  17.446  0.00  0.00    +0.000 F 
ATOM      5  C   UNL     1       3.181   5.662  17.690  0.00  0.00    +0.000 A 
ATOM      6  F   UNL     1       1.926   5.881  18.107  0.00  0.00    +0.000 F 
ATOM      7  C   UNL     1       4.072   6.720  17.584  0.00  0.00    +0.000 A 
ATOM      8  F   UNL     1       3.673   7.963  17.891  0.00  0.00    +0.000 F 
ATOM      9  C   UNL     1       5.378   6.499  17.154  0.00  0.00    +0.000 A 
ATOM     10  F   UNL     1       6.201   7.552  17.033  0.00  0.00    +0.000 F 
ENDROOT
BRANCH   1  11
ATOM     11  C   UNL     1       7.177   4.938  16.376  0.00  0.00    +0.000 C 
ATOM     12  O   UNL     1       7.971   4.345  17.095  0.00  0.00    +0.000 OA
BRANCH  11  14
ATOM     13  C   UNL     1       6.985   4.779  14.057  0.00  0.00    +0.000 C 
ATOM     14  O   UNL     1       7.443   5.521  15.189  0.00  0.00    +0.000 OA
ENDBRANCH  11  14
ENDBRANCH   1  11
BRANCH   2  15
ATOM     15  O   UNL     1       5.220   2.859  16.563  0.00  0.00    +0.000 OA
ATOM     16  H   UNL     1       4.407   2.353  16.337  0.00  0.00    +0.000 HD
ENDBRANCH   2  15
TORSDOF 3
ENDMDL
MODEL 7
REMARK VINA RESULT:      -6.1      2.212      2.894
REMARK  Name = 
REMARK  4 active torsions:
REMARK  status: ('A' for Active; 'I' for Inactive)
REMARK    1  A    between atoms: C_1  and  O_2
REMARK    2  A    between atoms: O_2  and  C_3
REMARK    3  A    between atoms: C_3  and  C_5
REMARK    4  A    between atoms: C_6  and  O_7
REMARK                            x       y       z     vdW  Elec       q    Type
REMARK                         _______ _______ _______ _____ _____    ______ ____
ROOT
ATOM      1  C   UNL     1       3.742   4.622  18.761  0.00  0.00    +0.000 A 
ATOM      2  C   UNL     1       2.712   4.906  19.671  0.00  0.00    +0.000 A 
ATOM      3  C   UNL     1       1.549   4.133  19.669  0.00  0.00    +0.000 A 
ATOM      4  F   UNL     1       0.553   4.410  20.523  0.00  0.00    +0.000 F 
ATOM      5  C   UNL     1       1.417   3.067  18.789  0.00  0.00    +0.000 A 
ATOM      6  F   UNL     1       0.304   2.321  18.799  0.00  0.00    +0.000 F 
ATOM      7  C   UNL     1       2.446   2.766  17.908  0.00  0.00    +0.000 A 
ATOM      8  F   UNL     1       2.329   1.723  17.074  0.00  0.00    +0.000 F 
ATOM      9  C   UNL     1       3.605   3.539  17.890  0.00  0.00    +0.000 A 
ATOM     10  F   UNL     1       4.591   3.199  17.047  0.00  0.00    +0.000 F 
ENDROOT
BRANCH   1  11
ATOM     11  C   UNL     1       4.946   5.468  18.762  0.00  0.00    +0.000 C 
ATOM     12  O   UNL     1       5.777   5.385  19.657  0.00  0.00    +0.000 OA
BRANCH  11  14
ATOM     13  C   UNL     1       6.127   6.436  16.999  0.00  0.00    +0.000 C 
ATOM     14  O   UNL     1       4.922   6.376  17.764  0.00  0.00    +0.000 OA
ENDBRANCH  11  14
ENDBRANCH   1  11
BRANCH   2  15
ATOM     15  O   UNL     1       2.786   5.931  20.580  0.00  0.00    +0.000 OA
ATOM     16  H   UNL     1       2.620   6.790  20.130  0.00  0.00    +0.000 HD
ENDBRANCH   2  15
TORSDOF 3
ENDMDL
MODEL 8
REMARK VINA RESULT:      -6.1      2.227      2.726
REMARK  Name = 
REMARK  4 active torsions:
REMARK  status: ('A' for Active; 'I' for Inactive)
REMARK    1  A    between atoms: C_1  and  O_2
REMARK    2  A    between atoms: O_2  and  C_3
REMARK    3  A    between atoms: C_3  and  C_5
REMARK    4  A    between atoms: C_6  and  O_7
REMARK                            x       y       z     vdW  Elec       q    Type
REMARK                         _______ _______ _______ _____ _____    ______ ____
ROOT
ATOM      1  C   UNL     1       4.842   4.711  18.620  0.00  0.00    +0.000 A 
ATOM      2  C   UNL     1       4.388   3.635  19.399  0.00  0.00    +0.000 A 
ATOM      3  C   UNL     1       3.182   3.742  20.096  0.00  0.00    +0.000 A 
ATOM      4  F   UNL     1       2.752   2.725  20.857  0.00  0.00    +0.000 F 
ATOM      5  C   UNL     1       2.416   4.895  20.000  0.00  0.00    +0.000 A 
ATOM      6  F   UNL     1       1.254   4.987  20.661  0.00  0.00    +0.000 F 
ATOM      7  C   UNL     1       2.848   5.948  19.207  0.00  0.00    +0.000 A 
ATOM      8  F   UNL     1       2.097   7.054  19.096  0.00  0.00    +0.000 F 
ATOM      9  C   UNL     1       4.056   5.861  18.519  0.00  0.00    +0.000 A 
ATOM     10  F   UNL     1       4.425   6.886  17.736  0.00  0.00    +0.000 F 
ENDROOT
BRANCH   1  11
ATOM     11  C   UNL     1       6.129   4.588  17.917  0.00  0.00    +0.000 C 
ATOM     12  O   UNL     1       6.176   4.445  16.702  0.00  0.00    +0.000 OA
BRANCH  11  14
ATOM     13  C   UNL     1       7.734   5.797  19.100  0.00  0.00    +0.000 C 
ATOM     14  O   UNL     1       7.166   4.526  18.777  0.00  0.00    +0.000 OA
ENDBRANCH  11  14
ENDBRANCH   1  11
BRANCH   2  15
ATOM     15  O   UNL     1       5.086   2.461  19.521  0.00  0.00    +0.000 OA
ATOM     16  H   UNL     1       5.244   2.072  18.631  0.00  0.00    +0.000 HD
ENDBRANCH   2  15
TORSDOF 3
ENDMDL
MODEL 9
REMARK VINA RESULT:      -6.1      2.528      3.252
REMARK  Name = 
REMARK  4 active torsions:
REMARK  status: ('A' for Active; 'I' for Inactive)
REMARK    1  A    between atoms: C_1  and  O_2
REMARK    2  A    between atoms: O_2  and  C_3
REMARK    3  A    between atoms: C_3  and  C_5
REMARK    4  A    between atoms: C_6  and  O_7
REMARK                            x       y       z     vdW  Elec       q    Type
REMARK                         _______ _______ _______ _____ _____    ______ ____
ROOT
ATOM      1  C   UNL     1       5.619   5.805  17.406  0.00  0.00    +0.000 A 
ATOM      2  C   UNL     1       5.844   4.685  18.221  0.00  0.00    +0.000 A 
ATOM      3  C   UNL     1       4.788   4.129  18.946  0.00  0.00    +0.000 A 
ATOM      4  F   UNL     1       5.000   3.071  19.741  0.00  0.00    +0.000 F 
ATOM      5  C   UNL     1       3.510   4.662  18.844  0.00  0.00    +0.000 A 
ATOM      6  F   UNL     1       2.498   4.118  19.534  0.00  0.00    +0.000 F 
ATOM      7  C   UNL     1       3.279   5.751  18.017  0.00  0.00    +0.000 A 
ATOM      8  F   UNL     1       2.041   6.252  17.901  0.00  0.00    +0.000 F 
ATOM      9  C   UNL     1       4.327   6.324  17.299  0.00  0.00    +0.000 A 
ATOM     10  F   UNL     1       4.059   7.356  16.485  0.00  0.00    +0.000 F 
ENDROOT
BRANCH   1  11
ATOM     11  C   UNL     1       6.752   6.391  16.672  0.00  0.00    +0.000 C 
ATOM     12  O   UNL     1       7.414   5.722  15.890  0.00  0.00    +0.000 OA
BRANCH  11  14
ATOM     13  C   UNL     1       8.025   7.757  18.071  0.00  0.00    +0.000 C 
ATOM     14  O   UNL     1       7.008   7.655  17.072  0.00  0.00    +0.000 OA
ENDBRANCH  11  14
ENDBRANCH   1  11
BRANCH   2  15
ATOM     15  O   UNL     1       7.077   4.098  18.350  0.00  0.00    +0.000 OA
ATOM     16  H   UNL     1       7.698   4.474  17.688  0.00  0.00    +0.000 HD
ENDBRANCH   2  15
TORSDOF 3
ENDMDL
