MODEL 1
REMARK VINA RESULT:      -8.8      0.000      0.000
REMARK  Name = 
REMARK  8 active torsions:
REMARK  status: ('A' for Active; 'I' for Inactive)
REMARK    1  A    between atoms: C_1  and  C_2
REMARK    2  A    between atoms: C_2  and  C_3
REMARK    3  A    between atoms: C_2  and  N_6
REMARK    4  A    between atoms: C_10  and  C_11
REMARK    5  A    between atoms: C_17  and  C_18
REMARK    6  A    between atoms: N_21  and  C_22
REMARK    7  A    between atoms: C_27  and  S_28
REMARK    8  A    between atoms: S_28  and  C_29
REMARK                            x       y       z     vdW  Elec       q    Type
REMARK                         _______ _______ _______ _____ _____    ______ ____
ROOT
ATOM      1  N   UNL     1       5.440   5.645  16.358  0.00  0.00    +0.000 N 
ATOM      2  C   UNL     1       4.957   7.010  16.376  0.00  0.00    +0.000 C 
ATOM      3  C   UNL     1       3.886   6.953  17.413  0.00  0.00    +0.000 A 
ATOM      4  C   UNL     1       3.094   8.001  17.870  0.00  0.00    +0.000 A 
ATOM      5  C   UNL     1       2.079   7.755  18.813  0.00  0.00    +0.000 A 
ATOM      6  C   UNL     1       1.900   6.423  19.252  0.00  0.00    +0.000 A 
ATOM      7  C   UNL     1       2.711   5.363  18.798  0.00  0.00    +0.000 A 
ATOM      8  C   UNL     1       3.709   5.652  17.888  0.00  0.00    +0.000 A 
ATOM      9  C   UNL     1       4.720   4.818  17.210  0.00  0.00    +0.000 C 
ATOM     10  O   UNL     1       4.891   3.633  17.406  0.00  0.00    +0.000 OA
ENDROOT
BRANCH   5  11
ATOM     11  C   UNL     1       1.229   8.866  19.311  0.00  0.00    +0.000 A 
ATOM     12  C   UNL     1       1.460   9.482  20.548  0.00  0.00    +0.000 A 
ATOM     13  N   UNL     1       0.734  10.469  21.128  0.00  0.00    +0.000 NA
ATOM     14  C   UNL     1      -0.297  10.867  20.365  0.00  0.00    +0.000 A 
ATOM     15  N   UNL     1      -1.180  11.847  20.723  0.00  0.00    +0.000 N 
ATOM     16  C   UNL     1      -2.113  12.013  19.734  0.00  0.00    +0.000 A 
ATOM     17  C   UNL     1      -1.818  11.122  18.719  0.00  0.00    +0.000 A 
ATOM     18  C   UNL     1      -0.661  10.385  19.113  0.00  0.00    +0.000 A 
ATOM     19  C   UNL     1       0.128   9.344  18.580  0.00  0.00    +0.000 A 
ATOM     20  H   UNL     1      -1.124  12.356  21.592  0.00  0.00    +0.000 HD
BRANCH  17  21
ATOM     21  C   UNL     1      -2.552  10.961  17.472  0.00  0.00    +0.000 A 
ATOM     22  C   UNL     1      -3.829  11.486  17.192  0.00  0.00    +0.000 A 
ATOM     23  N   UNL     1      -4.244  11.184  15.956  0.00  0.00    +0.000 NA
ATOM     24  N   UNL     1      -3.219  10.478  15.446  0.00  0.00    +0.000 N 
ATOM     25  C   UNL     1      -3.271   9.997  14.086  0.00  0.00    +0.000 C 
ATOM     26  C   UNL     1      -2.183  10.310  16.320  0.00  0.00    +0.000 A 
ENDBRANCH  17  21
ENDBRANCH   5  11
BRANCH   7  27
ATOM     27  S   UNL     1       2.338   3.709  19.308  0.00  0.00    +0.000 S 
ATOM     28  C   UNL     1       0.930   3.811  20.380  0.00  0.00    +0.000 C 
ATOM     29  O   UNL     1       1.879   3.011  18.117  0.00  0.00    +0.000 OA
ATOM     30  O   UNL     1       3.494   3.209  20.025  0.00  0.00    +0.000 OA
ENDBRANCH   7  27
BRANCH   1  32
ATOM     31  C   UNL     1       7.714   4.763  15.971  0.00  0.00    +0.000 C 
ATOM     32  C   UNL     1       6.360   5.127  15.352  0.00  0.00    +0.000 C 
BRANCH  32  33
ATOM     33  C   UNL     1       5.786   3.948  14.603  0.00  0.00    +0.000 C 
ATOM     34  C   UNL     1       4.897   4.059  13.384  0.00  0.00    +0.000 C 
ATOM     35  C   UNL     1       6.333   3.663  13.219  0.00  0.00    +0.000 C 
ENDBRANCH  32  33
ENDBRANCH   1  32
TORSDOF 5
ENDMDL
MODEL 2
REMARK VINA RESULT:      -8.8      1.406      2.019
REMARK  Name = 
REMARK  8 active torsions:
REMARK  status: ('A' for Active; 'I' for Inactive)
REMARK    1  A    between atoms: C_1  and  C_2
REMARK    2  A    between atoms: C_2  and  C_3
REMARK    3  A    between atoms: C_2  and  N_6
REMARK    4  A    between atoms: C_10  and  C_11
REMARK    5  A    between atoms: C_17  and  C_18
REMARK    6  A    between atoms: N_21  and  C_22
REMARK    7  A    between atoms: C_27  and  S_28
REMARK    8  A    between atoms: S_28  and  C_29
REMARK                            x       y       z     vdW  Elec       q    Type
REMARK                         _______ _______ _______ _____ _____    ______ ____
ROOT
ATOM      1  N   UNL     1       4.815   4.911  17.171  0.00  0.00    +0.000 N 
ATOM      2  C   UNL     1       4.451   6.311  17.252  0.00  0.00    +0.000 C 
ATOM      3  C   UNL     1       3.497   6.323  18.399  0.00  0.00    +0.000 A 
ATOM      4  C   UNL     1       2.849   7.424  18.948  0.00  0.00    +0.000 A 
ATOM      5  C   UNL     1       1.924   7.245  19.994  0.00  0.00    +0.000 A 
ATOM      6  C   UNL     1       1.685   5.924  20.441  0.00  0.00    +0.000 A 
ATOM      7  C   UNL     1       2.353   4.810  19.892  0.00  0.00    +0.000 A 
ATOM      8  C   UNL     1       3.267   5.033  18.880  0.00  0.00    +0.000 A 
ATOM      9  C   UNL     1       4.126   4.131  18.089  0.00  0.00    +0.000 C 
ATOM     10  O   UNL     1       4.219   2.933  18.257  0.00  0.00    +0.000 OA
ENDROOT
BRANCH   5  11
ATOM     11  C   UNL     1       1.227   8.412  20.591  0.00  0.00    +0.000 A 
ATOM     12  C   UNL     1       1.509   8.863  21.888  0.00  0.00    +0.000 A 
ATOM     13  N   UNL     1       0.914   9.883  22.555  0.00  0.00    +0.000 NA
ATOM     14  C   UNL     1      -0.027  10.500  21.822  0.00  0.00    +0.000 A 
ATOM     15  N   UNL     1      -0.770  11.556  22.266  0.00  0.00    +0.000 N 
ATOM     16  C   UNL     1      -1.642  11.953  21.285  0.00  0.00    +0.000 A 
ATOM     17  C   UNL     1      -1.447  11.134  20.189  0.00  0.00    +0.000 A 
ATOM     18  C   UNL     1      -0.419  10.201  20.522  0.00  0.00    +0.000 A 
ATOM     19  C   UNL     1       0.228   9.115  19.898  0.00  0.00    +0.000 A 
ATOM     20  H   UNL     1      -0.668  11.963  23.183  0.00  0.00    +0.000 HD
BRANCH  17  21
ATOM     21  C   UNL     1      -2.160  11.205  18.922  0.00  0.00    +0.000 A 
ATOM     22  C   UNL     1      -3.440  11.761  18.724  0.00  0.00    +0.000 A 
ATOM     23  N   UNL     1      -3.832  11.695  17.447  0.00  0.00    +0.000 NA
ATOM     24  N   UNL     1      -2.790  11.109  16.829  0.00  0.00    +0.000 N 
ATOM     25  C   UNL     1      -2.816  10.896  15.403  0.00  0.00    +0.000 C 
ATOM     26  C   UNL     1      -1.765  10.789  17.673  0.00  0.00    +0.000 A 
ENDBRANCH  17  21
ENDBRANCH   5  11
BRANCH   7  27
ATOM     27  S   UNL     1       1.902   3.184  20.427  0.00  0.00    +0.000 S 
ATOM     28  C   UNL     1       3.385   2.410  21.011  0.00  0.00    +0.000 C 
ATOM     29  O   UNL     1       1.060   3.361  21.600  0.00  0.00    +0.000 OA
ATOM     30  O   UNL     1       1.377   2.481  19.273  0.00  0.00    +0.000 OA
ENDBRANCH   7  27
BRANCH   1  32
ATOM     31  C   UNL     1       4.974   4.733  14.713  0.00  0.00    +0.000 C 
ATOM     32  C   UNL     1       5.575   4.338  16.066  0.00  0.00    +0.000 C 
BRANCH  32  33
ATOM     33  C   UNL     1       7.039   4.708  16.124  0.00  0.00    +0.000 C 
ATOM     34  C   UNL     1       7.601   5.854  16.936  0.00  0.00    +0.000 C 
ATOM     35  C   UNL     1       7.778   4.447  17.420  0.00  0.00    +0.000 C 
ENDBRANCH  32  33
ENDBRANCH   1  32
TORSDOF 5
ENDMDL
MODEL 3
REMARK VINA RESULT:      -8.7      1.554      2.251
REMARK  Name = 
REMARK  8 active torsions:
REMARK  status: ('A' for Active; 'I' for Inactive)
REMARK    1  A    between atoms: C_1  and  C_2
REMARK    2  A    between atoms: C_2  and  C_3
REMARK    3  A    between atoms: C_2  and  N_6
REMARK    4  A    between atoms: C_10  and  C_11
REMARK    5  A    between atoms: C_17  and  C_18
REMARK    6  A    between atoms: N_21  and  C_22
REMARK    7  A    between atoms: C_27  and  S_28
REMARK    8  A    between atoms: S_28  and  C_29
REMARK                            x       y       z     vdW  Elec       q    Type
REMARK                         _______ _______ _______ _____ _____    ______ ____
ROOT
ATOM      1  N   UNL     1       4.868   5.341  17.313  0.00  0.00    +0.000 N 
ATOM      2  C   UNL     1       4.435   6.718  17.427  0.00  0.00    +0.000 C 
ATOM      3  C   UNL     1       3.487   6.658  18.577  0.00  0.00    +0.000 A 
ATOM      4  C   UNL     1       2.787   7.713  19.153  0.00  0.00    +0.000 A 
ATOM      5  C   UNL     1       1.878   7.465  20.198  0.00  0.00    +0.000 A 
ATOM      6  C   UNL     1       1.706   6.124  20.615  0.00  0.00    +0.000 A 
ATOM      7  C   UNL     1       2.425   5.058  20.039  0.00  0.00    +0.000 A 
ATOM      8  C   UNL     1       3.323   5.347  19.030  0.00  0.00    +0.000 A 
ATOM      9  C   UNL     1       4.222   4.507  18.216  0.00  0.00    +0.000 C 
ATOM     10  O   UNL     1       4.375   3.312  18.356  0.00  0.00    +0.000 OA
ENDROOT
BRANCH   5  11
ATOM     11  C   UNL     1       1.126   8.583  20.824  0.00  0.00    +0.000 A 
ATOM     12  C   UNL     1       1.338   8.967  22.155  0.00  0.00    +0.000 A 
ATOM     13  N   UNL     1       0.689   9.937  22.846  0.00  0.00    +0.000 NA
ATOM     14  C   UNL     1      -0.232  10.572  22.104  0.00  0.00    +0.000 A 
ATOM     15  N   UNL     1      -1.020  11.587  22.569  0.00  0.00    +0.000 N 
ATOM     16  C   UNL     1      -1.855  12.018  21.571  0.00  0.00    +0.000 A 
ATOM     17  C   UNL     1      -1.592  11.264  20.444  0.00  0.00    +0.000 A 
ATOM     18  C   UNL     1      -0.558  10.337  20.773  0.00  0.00    +0.000 A 
ATOM     19  C   UNL     1       0.143   9.301  20.123  0.00  0.00    +0.000 A 
ATOM     20  H   UNL     1      -0.969  11.945  23.511  0.00  0.00    +0.000 HD
BRANCH  17  21
ATOM     21  C   UNL     1      -2.248  11.389  19.150  0.00  0.00    +0.000 A 
ATOM     22  C   UNL     1      -1.639  11.194  17.893  0.00  0.00    +0.000 A 
ATOM     23  N   UNL     1      -2.497  11.365  16.881  0.00  0.00    +0.000 NA
ATOM     24  N   UNL     1      -3.657  11.655  17.498  0.00  0.00    +0.000 N 
ATOM     25  C   UNL     1      -4.857  11.872  16.728  0.00  0.00    +0.000 C 
ATOM     26  C   UNL     1      -3.557  11.689  18.860  0.00  0.00    +0.000 A 
ENDBRANCH  17  21
ENDBRANCH   5  11
BRANCH   7  27
ATOM     27  S   UNL     1       2.058   3.399  20.539  0.00  0.00    +0.000 S 
ATOM     28  C   UNL     1       1.353   2.586  19.131  0.00  0.00    +0.000 C 
ATOM     29  O   UNL     1       3.341   2.751  20.769  0.00  0.00    +0.000 OA
ATOM     30  O   UNL     1       1.097   3.478  21.621  0.00  0.00    +0.000 OA
ENDBRANCH   7  27
BRANCH   1  32
ATOM     31  C   UNL     1       5.175   5.429  14.864  0.00  0.00    +0.000 C 
ATOM     32  C   UNL     1       5.650   4.831  16.193  0.00  0.00    +0.000 C 
BRANCH  32  33
ATOM     33  C   UNL     1       7.132   5.059  16.377  0.00  0.00    +0.000 C 
ATOM     34  C   UNL     1       7.739   5.880  17.494  0.00  0.00    +0.000 C 
ATOM     35  C   UNL     1       7.805   4.384  17.554  0.00  0.00    +0.000 C 
ENDBRANCH  32  33
ENDBRANCH   1  32
TORSDOF 5
ENDMDL
MODEL 4
REMARK VINA RESULT:      -8.6      2.984      3.726
REMARK  Name = 
REMARK  8 active torsions:
REMARK  status: ('A' for Active; 'I' for Inactive)
REMARK    1  A    between atoms: C_1  and  C_2
REMARK    2  A    between atoms: C_2  and  C_3
REMARK    3  A    between atoms: C_2  and  N_6
REMARK    4  A    between atoms: C_10  and  C_11
REMARK    5  A    between atoms: C_17  and  C_18
REMARK    6  A    between atoms: N_21  and  C_22
REMARK    7  A    between atoms: C_27  and  S_28
REMARK    8  A    between atoms: S_28  and  C_29
REMARK                            x       y       z     vdW  Elec       q    Type
REMARK                         _______ _______ _______ _____ _____    ______ ____
ROOT
ATOM      1  N   UNL     1       4.798   5.010  17.318  0.00  0.00    +0.000 N 
ATOM      2  C   UNL     1       4.344   6.382  17.420  0.00  0.00    +0.000 C 
ATOM      3  C   UNL     1       3.416   6.323  18.587  0.00  0.00    +0.000 A 
ATOM      4  C   UNL     1       2.709   7.374  19.159  0.00  0.00    +0.000 A 
ATOM      5  C   UNL     1       1.821   7.126  20.223  0.00  0.00    +0.000 A 
ATOM      6  C   UNL     1       1.679   5.789  20.662  0.00  0.00    +0.000 A 
ATOM      7  C   UNL     1       2.406   4.726  20.089  0.00  0.00    +0.000 A 
ATOM      8  C   UNL     1       3.282   5.016  19.061  0.00  0.00    +0.000 A 
ATOM      9  C   UNL     1       4.180   4.179  18.243  0.00  0.00    +0.000 C 
ATOM     10  O   UNL     1       4.356   2.989  18.397  0.00  0.00    +0.000 OA
ENDROOT
BRANCH   5  11
ATOM     11  C   UNL     1       1.062   8.240  20.846  0.00  0.00    +0.000 A 
ATOM     12  C   UNL     1       0.086   8.018  21.826  0.00  0.00    +0.000 A 
ATOM     13  N   UNL     1      -0.698   8.942  22.435  0.00  0.00    +0.000 NA
ATOM     14  C   UNL     1      -0.442  10.192  22.017  0.00  0.00    +0.000 A 
ATOM     15  N   UNL     1      -1.096  11.300  22.476  0.00  0.00    +0.000 N 
ATOM     16  C   UNL     1      -0.607  12.418  21.852  0.00  0.00    +0.000 A 
ATOM     17  C   UNL     1       0.385  12.015  20.978  0.00  0.00    +0.000 A 
ATOM     18  C   UNL     1       0.497  10.595  21.074  0.00  0.00    +0.000 A 
ATOM     19  C   UNL     1       1.263   9.578  20.467  0.00  0.00    +0.000 A 
ATOM     20  H   UNL     1      -1.825  11.268  23.173  0.00  0.00    +0.000 HD
BRANCH  17  21
ATOM     21  C   UNL     1       1.175  12.878  20.112  0.00  0.00    +0.000 A 
ATOM     22  C   UNL     1       1.367  12.706  18.727  0.00  0.00    +0.000 A 
ATOM     23  N   UNL     1       2.133  13.665  18.196  0.00  0.00    +0.000 NA
ATOM     24  N   UNL     1       2.414  14.458  19.245  0.00  0.00    +0.000 N 
ATOM     25  C   UNL     1       3.204  15.652  19.065  0.00  0.00    +0.000 C 
ATOM     26  C   UNL     1       1.869  14.024  20.420  0.00  0.00    +0.000 A 
ENDBRANCH  17  21
ENDBRANCH   5  11
BRANCH   7  27
ATOM     27  S   UNL     1       2.075   3.069  20.618  0.00  0.00    +0.000 S 
ATOM     28  C   UNL     1       1.446   2.199  19.208  0.00  0.00    +0.000 C 
ATOM     29  O   UNL     1       3.369   2.469  20.908  0.00  0.00    +0.000 OA
ATOM     30  O   UNL     1       1.074   3.143  21.663  0.00  0.00    +0.000 OA
ENDBRANCH   7  27
BRANCH   1  32
ATOM     31  C   UNL     1       4.979   4.959  14.856  0.00  0.00    +0.000 C 
ATOM     32  C   UNL     1       5.569   4.497  16.192  0.00  0.00    +0.000 C 
BRANCH  32  33
ATOM     33  C   UNL     1       7.031   4.869  16.282  0.00  0.00    +0.000 C 
ATOM     34  C   UNL     1       7.590   5.927  17.207  0.00  0.00    +0.000 C 
ATOM     35  C   UNL     1       7.778   4.478  17.540  0.00  0.00    +0.000 C 
ENDBRANCH  32  33
ENDBRANCH   1  32
TORSDOF 5
ENDMDL
MODEL 5
REMARK VINA RESULT:      -8.4      2.405      4.061
REMARK  Name = 
REMARK  8 active torsions:
REMARK  status: ('A' for Active; 'I' for Inactive)
REMARK    1  A    between atoms: C_1  and  C_2
REMARK    2  A    between atoms: C_2  and  C_3
REMARK    3  A    between atoms: C_2  and  N_6
REMARK    4  A    between atoms: C_10  and  C_11
REMARK    5  A    between atoms: C_17  and  C_18
REMARK    6  A    between atoms: N_21  and  C_22
REMARK    7  A    between atoms: C_27  and  S_28
REMARK    8  A    between atoms: S_28  and  C_29
REMARK                            x       y       z     vdW  Elec       q    Type
REMARK                         _______ _______ _______ _____ _____    ______ ____
ROOT
ATOM      1  N   UNL     1       5.726   5.819  17.154  0.00  0.00    +0.000 N 
ATOM      2  C   UNL     1       5.275   7.145  16.788  0.00  0.00    +0.000 C 
ATOM      3  C   UNL     1       4.001   7.269  17.555  0.00  0.00    +0.000 A 
ATOM      4  C   UNL     1       3.147   8.365  17.605  0.00  0.00    +0.000 A 
ATOM      5  C   UNL     1       1.945   8.286  18.334  0.00  0.00    +0.000 A 
ATOM      6  C   UNL     1       1.651   7.065  18.986  0.00  0.00    +0.000 A 
ATOM      7  C   UNL     1       2.524   5.959  18.944  0.00  0.00    +0.000 A 
ATOM      8  C   UNL     1       3.703   6.086  18.235  0.00  0.00    +0.000 A 
ATOM      9  C   UNL     1       4.822   5.161  17.978  0.00  0.00    +0.000 C 
ATOM     10  O   UNL     1       4.926   4.046  18.444  0.00  0.00    +0.000 OA
ENDROOT
BRANCH   5  11
ATOM     11  C   UNL     1       1.026   9.450  18.398  0.00  0.00    +0.000 A 
ATOM     12  C   UNL     1      -0.240   9.432  17.798  0.00  0.00    +0.000 A 
ATOM     13  N   UNL     1      -1.147  10.439  17.752  0.00  0.00    +0.000 NA
ATOM     14  C   UNL     1      -0.726  11.542  18.392  0.00  0.00    +0.000 A 
ATOM     15  N   UNL     1      -1.454  12.694  18.489  0.00  0.00    +0.000 N 
ATOM     16  C   UNL     1      -0.747  13.629  19.198  0.00  0.00    +0.000 A 
ATOM     17  C   UNL     1       0.458  13.061  19.566  0.00  0.00    +0.000 A 
ATOM     18  C   UNL     1       0.482  11.728  19.055  0.00  0.00    +0.000 A 
ATOM     19  C   UNL     1       1.385  10.645  19.044  0.00  0.00    +0.000 A 
ATOM     20  H   UNL     1      -2.374  12.807  18.090  0.00  0.00    +0.000 HD
BRANCH  17  21
ATOM     21  C   UNL     1       1.515  13.702  20.335  0.00  0.00    +0.000 A 
ATOM     22  C   UNL     1       1.405  14.168  21.660  0.00  0.00    +0.000 A 
ATOM     23  N   UNL     1       2.547  14.701  22.109  0.00  0.00    +0.000 NA
ATOM     24  N   UNL     1       3.389  14.557  21.069  0.00  0.00    +0.000 N 
ATOM     25  C   UNL     1       4.763  14.983  21.180  0.00  0.00    +0.000 C 
ATOM     26  C   UNL     1       2.815  13.969  19.978  0.00  0.00    +0.000 A 
ENDBRANCH  17  21
ENDBRANCH   5  11
BRANCH   7  27
ATOM     27  S   UNL     1       2.020   4.433  19.686  0.00  0.00    +0.000 S 
ATOM     28  C   UNL     1       1.747   3.287  18.362  0.00  0.00    +0.000 C 
ATOM     29  O   UNL     1       3.178   3.932  20.411  0.00  0.00    +0.000 OA
ATOM     30  O   UNL     1       0.787   4.690  20.404  0.00  0.00    +0.000 OA
ENDBRANCH   7  27
BRANCH   1  32
ATOM     31  C   UNL     1       7.771   4.484  17.525  0.00  0.00    +0.000 C 
ATOM     32  C   UNL     1       6.836   5.134  16.500  0.00  0.00    +0.000 C 
BRANCH  32  33
ATOM     33  C   UNL     1       6.365   4.113  15.491  0.00  0.00    +0.000 C 
ATOM     34  C   UNL     1       5.250   4.345  14.495  0.00  0.00    +0.000 C 
ATOM     35  C   UNL     1       6.675   4.375  14.032  0.00  0.00    +0.000 C 
ENDBRANCH  32  33
ENDBRANCH   1  32
TORSDOF 5
ENDMDL
MODEL 6
REMARK VINA RESULT:      -8.3      1.026      1.267
REMARK  Name = 
REMARK  8 active torsions:
REMARK  status: ('A' for Active; 'I' for Inactive)
REMARK    1  A    between atoms: C_1  and  C_2
REMARK    2  A    between atoms: C_2  and  C_3
REMARK    3  A    between atoms: C_2  and  N_6
REMARK    4  A    between atoms: C_10  and  C_11
REMARK    5  A    between atoms: C_17  and  C_18
REMARK    6  A    between atoms: N_21  and  C_22
REMARK    7  A    between atoms: C_27  and  S_28
REMARK    8  A    between atoms: S_28  and  C_29
REMARK                            x       y       z     vdW  Elec       q    Type
REMARK                         _______ _______ _______ _____ _____    ______ ____
ROOT
ATOM      1  N   UNL     1       5.204   5.606  16.239  0.00  0.00    +0.000 N 
ATOM      2  C   UNL     1       4.806   6.973  16.507  0.00  0.00    +0.000 C 
ATOM      3  C   UNL     1       3.834   6.806  17.627  0.00  0.00    +0.000 A 
ATOM      4  C   UNL     1       3.153   7.806  18.311  0.00  0.00    +0.000 A 
ATOM      5  C   UNL     1       2.216   7.464  19.305  0.00  0.00    +0.000 A 
ATOM      6  C   UNL     1       2.000   6.089  19.559  0.00  0.00    +0.000 A 
ATOM      7  C   UNL     1       2.701   5.077  18.872  0.00  0.00    +0.000 A 
ATOM      8  C   UNL     1       3.626   5.457  17.919  0.00  0.00    +0.000 A 
ATOM      9  C   UNL     1       4.518   4.692  17.027  0.00  0.00    +0.000 C 
ATOM     10  O   UNL     1       4.635   3.485  17.028  0.00  0.00    +0.000 OA
ENDROOT
BRANCH   5  11
ATOM     11  C   UNL     1       1.484   8.522  20.046  0.00  0.00    +0.000 A 
ATOM     12  C   UNL     1       1.800   8.858  21.369  0.00  0.00    +0.000 A 
ATOM     13  N   UNL     1       1.181   9.770  22.159  0.00  0.00    +0.000 NA
ATOM     14  C   UNL     1       0.173  10.398  21.532  0.00  0.00    +0.000 A 
ATOM     15  N   UNL     1      -0.607  11.358  22.111  0.00  0.00    +0.000 N 
ATOM     16  C   UNL     1      -1.544  11.796  21.212  0.00  0.00    +0.000 A 
ATOM     17  C   UNL     1      -1.356  11.103  20.032  0.00  0.00    +0.000 A 
ATOM     18  C   UNL     1      -0.262  10.206  20.226  0.00  0.00    +0.000 A 
ATOM     19  C   UNL     1       0.414   9.228  19.468  0.00  0.00    +0.000 A 
ATOM     20  H   UNL     1      -0.484  11.678  23.060  0.00  0.00    +0.000 HD
BRANCH  17  21
ATOM     21  C   UNL     1      -2.130  11.256  18.809  0.00  0.00    +0.000 A 
ATOM     22  C   UNL     1      -1.653  11.049  17.498  0.00  0.00    +0.000 A 
ATOM     23  N   UNL     1      -2.599  11.253  16.575  0.00  0.00    +0.000 NA
ATOM     24  N   UNL     1      -3.684  11.574  17.303  0.00  0.00    +0.000 N 
ATOM     25  C   UNL     1      -4.947  11.833  16.654  0.00  0.00    +0.000 C 
ATOM     26  C   UNL     1      -3.452  11.597  18.648  0.00  0.00    +0.000 A 
ENDBRANCH  17  21
ENDBRANCH   5  11
BRANCH   7  27
ATOM     27  S   UNL     1       2.280   3.383  19.167  0.00  0.00    +0.000 S 
ATOM     28  C   UNL     1       0.962   3.384  20.353  0.00  0.00    +0.000 C 
ATOM     29  O   UNL     1       1.697   2.888  17.929  0.00  0.00    +0.000 OA
ATOM     30  O   UNL     1       3.457   2.734  19.710  0.00  0.00    +0.000 OA
ENDBRANCH   7  27
BRANCH   1  32
ATOM     31  C   UNL     1       7.427   4.844  15.482  0.00  0.00    +0.000 C 
ATOM     32  C   UNL     1       5.994   5.208  15.080  0.00  0.00    +0.000 C 
BRANCH  32  33
ATOM     33  C   UNL     1       5.355   4.074  14.312  0.00  0.00    +0.000 C 
ATOM     34  C   UNL     1       4.914   4.161  12.868  0.00  0.00    +0.000 C 
ATOM     35  C   UNL     1       6.171   3.423  13.215  0.00  0.00    +0.000 C 
ENDBRANCH  32  33
ENDBRANCH   1  32
TORSDOF 5
ENDMDL
MODEL 7
REMARK VINA RESULT:      -8.2      3.172      3.848
REMARK  Name = 
REMARK  8 active torsions:
REMARK  status: ('A' for Active; 'I' for Inactive)
REMARK    1  A    between atoms: C_1  and  C_2
REMARK    2  A    between atoms: C_2  and  C_3
REMARK    3  A    between atoms: C_2  and  N_6
REMARK    4  A    between atoms: C_10  and  C_11
REMARK    5  A    between atoms: C_17  and  C_18
REMARK    6  A    between atoms: N_21  and  C_22
REMARK    7  A    between atoms: C_27  and  S_28
REMARK    8  A    between atoms: S_28  and  C_29
REMARK                            x       y       z     vdW  Elec       q    Type
REMARK                         _______ _______ _______ _____ _____    ______ ____
ROOT
ATOM      1  N   UNL     1       4.801   5.095  17.312  0.00  0.00    +0.000 N 
ATOM      2  C   UNL     1       4.380   6.473  17.465  0.00  0.00    +0.000 C 
ATOM      3  C   UNL     1       3.411   6.384  18.595  0.00  0.00    +0.000 A 
ATOM      4  C   UNL     1       2.712   7.426  19.194  0.00  0.00    +0.000 A 
ATOM      5  C   UNL     1       1.782   7.153  20.214  0.00  0.00    +0.000 A 
ATOM      6  C   UNL     1       1.589   5.801  20.583  0.00  0.00    +0.000 A 
ATOM      7  C   UNL     1       2.308   4.746  19.984  0.00  0.00    +0.000 A 
ATOM      8  C   UNL     1       3.226   5.061  19.001  0.00  0.00    +0.000 A 
ATOM      9  C   UNL     1       4.131   4.239  18.175  0.00  0.00    +0.000 C 
ATOM     10  O   UNL     1       4.269   3.038  18.277  0.00  0.00    +0.000 OA
ENDROOT
BRANCH   5  11
ATOM     11  C   UNL     1       1.031   8.257  20.864  0.00  0.00    +0.000 A 
ATOM     12  C   UNL     1      -0.039   8.015  21.736  0.00  0.00    +0.000 A 
ATOM     13  N   UNL     1      -0.824   8.933  22.354  0.00  0.00    +0.000 NA
ATOM     14  C   UNL     1      -0.465  10.195  22.068  0.00  0.00    +0.000 A 
ATOM     15  N   UNL     1      -1.098  11.300  22.564  0.00  0.00    +0.000 N 
ATOM     16  C   UNL     1      -0.496  12.433  22.081  0.00  0.00    +0.000 A 
ATOM     17  C   UNL     1       0.547  12.042  21.263  0.00  0.00    +0.000 A 
ATOM     18  C   UNL     1       0.574  10.615  21.246  0.00  0.00    +0.000 A 
ATOM     19  C   UNL     1       1.336   9.607  20.621  0.00  0.00    +0.000 A 
ATOM     20  H   UNL     1      -1.886  11.255  23.192  0.00  0.00    +0.000 HD
BRANCH  17  21
ATOM     21  C   UNL     1       1.456  12.924  20.544  0.00  0.00    +0.000 A 
ATOM     22  C   UNL     1       2.485  13.696  21.120  0.00  0.00    +0.000 A 
ATOM     23  N   UNL     1       3.165  14.399  20.208  0.00  0.00    +0.000 NA
ATOM     24  N   UNL     1       2.576  14.059  19.047  0.00  0.00    +0.000 N 
ATOM     25  C   UNL     1       3.065  14.592  17.799  0.00  0.00    +0.000 C 
ATOM     26  C   UNL     1       1.539  13.182  19.197  0.00  0.00    +0.000 A 
ENDBRANCH  17  21
ENDBRANCH   5  11
BRANCH   7  27
ATOM     27  S   UNL     1       1.915   3.076  20.421  0.00  0.00    +0.000 S 
ATOM     28  C   UNL     1       3.368   2.389  21.169  0.00  0.00    +0.000 C 
ATOM     29  O   UNL     1       0.924   3.157  21.482  0.00  0.00    +0.000 OA
ATOM     30  O   UNL     1       1.590   2.375  19.195  0.00  0.00    +0.000 OA
ENDBRANCH   7  27
BRANCH   1  32
ATOM     31  C   UNL     1       5.048   5.129  14.855  0.00  0.00    +0.000 C 
ATOM     32  C   UNL     1       5.598   4.615  16.189  0.00  0.00    +0.000 C 
BRANCH  32  33
ATOM     33  C   UNL     1       7.060   4.969  16.330  0.00  0.00    +0.000 C 
ATOM     34  C   UNL     1       7.608   5.961  17.333  0.00  0.00    +0.000 C 
ATOM     35  C   UNL     1       7.780   4.492  17.574  0.00  0.00    +0.000 C 
ENDBRANCH  32  33
ENDBRANCH   1  32
TORSDOF 5
ENDMDL
MODEL 8
REMARK VINA RESULT:      -8.2      2.669      4.086
REMARK  Name = 
REMARK  8 active torsions:
REMARK  status: ('A' for Active; 'I' for Inactive)
REMARK    1  A    between atoms: C_1  and  C_2
REMARK    2  A    between atoms: C_2  and  C_3
REMARK    3  A    between atoms: C_2  and  N_6
REMARK    4  A    between atoms: C_10  and  C_11
REMARK    5  A    between atoms: C_17  and  C_18
REMARK    6  A    between atoms: N_21  and  C_22
REMARK    7  A    between atoms: C_27  and  S_28
REMARK    8  A    between atoms: S_28  and  C_29
REMARK                            x       y       z     vdW  Elec       q    Type
REMARK                         _______ _______ _______ _____ _____    ______ ____
ROOT
ATOM      1  N   UNL     1       5.742   5.752  17.066  0.00  0.00    +0.000 N 
ATOM      2  C   UNL     1       5.354   7.111  16.749  0.00  0.00    +0.000 C 
ATOM      3  C   UNL     1       4.056   7.247  17.473  0.00  0.00    +0.000 A 
ATOM      4  C   UNL     1       3.241   8.371  17.545  0.00  0.00    +0.000 A 
ATOM      5  C   UNL     1       2.010   8.304  18.222  0.00  0.00    +0.000 A 
ATOM      6  C   UNL     1       1.646   7.065  18.802  0.00  0.00    +0.000 A 
ATOM      7  C   UNL     1       2.479   5.930  18.739  0.00  0.00    +0.000 A 
ATOM      8  C   UNL     1       3.688   6.045  18.081  0.00  0.00    +0.000 A 
ATOM      9  C   UNL     1       4.783   5.091  17.821  0.00  0.00    +0.000 C 
ATOM     10  O   UNL     1       4.826   3.952  18.235  0.00  0.00    +0.000 OA
ENDROOT
BRANCH   5  11
ATOM     11  C   UNL     1       1.131   9.498  18.310  0.00  0.00    +0.000 A 
ATOM     12  C   UNL     1      -0.243   9.431  18.043  0.00  0.00    +0.000 A 
ATOM     13  N   UNL     1      -1.135  10.452  18.047  0.00  0.00    +0.000 NA
ATOM     14  C   UNL     1      -0.573  11.628  18.373  0.00  0.00    +0.000 A 
ATOM     15  N   UNL     1      -1.258  12.807  18.447  0.00  0.00    +0.000 N 
ATOM     16  C   UNL     1      -0.401  13.818  18.798  0.00  0.00    +0.000 A 
ATOM     17  C   UNL     1       0.858  13.270  18.956  0.00  0.00    +0.000 A 
ATOM     18  C   UNL     1       0.760  11.872  18.685  0.00  0.00    +0.000 A 
ATOM     19  C   UNL     1       1.635  10.767  18.640  0.00  0.00    +0.000 A 
ATOM     20  H   UNL     1      -2.247  12.889  18.267  0.00  0.00    +0.000 HD
BRANCH  17  21
ATOM     21  C   UNL     1       2.069  13.986  19.329  0.00  0.00    +0.000 A 
ATOM     22  C   UNL     1       2.641  15.065  18.626  0.00  0.00    +0.000 A 
ATOM     23  N   UNL     1       3.748  15.529  19.217  0.00  0.00    +0.000 NA
ATOM     24  N   UNL     1       3.869  14.751  20.308  0.00  0.00    +0.000 N 
ATOM     25  C   UNL     1       4.945  14.972  21.244  0.00  0.00    +0.000 C 
ATOM     26  C   UNL     1       2.890  13.804  20.416  0.00  0.00    +0.000 A 
ENDBRANCH  17  21
ENDBRANCH   5  11
BRANCH   7  27
ATOM     27  S   UNL     1       1.890   4.390  19.385  0.00  0.00    +0.000 S 
ATOM     28  C   UNL     1       3.090   3.841  20.568  0.00  0.00    +0.000 C 
ATOM     29  O   UNL     1       0.693   4.703  20.151  0.00  0.00    +0.000 OA
ATOM     30  O   UNL     1       1.802   3.463  18.275  0.00  0.00    +0.000 OA
ENDBRANCH   7  27
BRANCH   1  32
ATOM     31  C   UNL     1       7.766   4.392  17.454  0.00  0.00    +0.000 C 
ATOM     32  C   UNL     1       6.850   5.058  16.421  0.00  0.00    +0.000 C 
BRANCH  32  33
ATOM     33  C   UNL     1       6.379   4.048  15.401  0.00  0.00    +0.000 C 
ATOM     34  C   UNL     1       5.294   4.305  14.380  0.00  0.00    +0.000 C 
ATOM     35  C   UNL     1       6.729   4.301  13.950  0.00  0.00    +0.000 C 
ENDBRANCH  32  33
ENDBRANCH   1  32
TORSDOF 5
ENDMDL
MODEL 9
REMARK VINA RESULT:      -7.9      2.872      3.451
REMARK  Name = 
REMARK  8 active torsions:
REMARK  status: ('A' for Active; 'I' for Inactive)
REMARK    1  A    between atoms: C_1  and  C_2
REMARK    2  A    between atoms: C_2  and  C_3
REMARK    3  A    between atoms: C_2  and  N_6
REMARK    4  A    between atoms: C_10  and  C_11
REMARK    5  A    between atoms: C_17  and  C_18
REMARK    6  A    between atoms: N_21  and  C_22
REMARK    7  A    between atoms: C_27  and  S_28
REMARK    8  A    between atoms: S_28  and  C_29
REMARK                            x       y       z     vdW  Elec       q    Type
REMARK                         _______ _______ _______ _____ _____    ______ ____
ROOT
ATOM      1  N   UNL     1       5.285   5.449  16.061  0.00  0.00    +0.000 N 
ATOM      2  C   UNL     1       4.850   6.785  16.411  0.00  0.00    +0.000 C 
ATOM      3  C   UNL     1       3.893   6.524  17.525  0.00  0.00    +0.000 A 
ATOM      4  C   UNL     1       3.187   7.462  18.271  0.00  0.00    +0.000 A 
ATOM      5  C   UNL     1       2.270   7.035  19.249  0.00  0.00    +0.000 A 
ATOM      6  C   UNL     1       2.096   5.642  19.423  0.00  0.00    +0.000 A 
ATOM      7  C   UNL     1       2.821   4.693  18.675  0.00  0.00    +0.000 A 
ATOM      8  C   UNL     1       3.726   5.155  17.740  0.00  0.00    +0.000 A 
ATOM      9  C   UNL     1       4.632   4.470  16.798  0.00  0.00    +0.000 C 
ATOM     10  O   UNL     1       4.785   3.269  16.728  0.00  0.00    +0.000 OA
ENDROOT
BRANCH   5  11
ATOM     11  C   UNL     1       1.512   8.026  20.055  0.00  0.00    +0.000 A 
ATOM     12  C   UNL     1       0.587   7.637  21.034  0.00  0.00    +0.000 A 
ATOM     13  N   UNL     1      -0.191   8.441  21.800  0.00  0.00    +0.000 NA
ATOM     14  C   UNL     1       0.015   9.746  21.554  0.00  0.00    +0.000 A 
ATOM     15  N   UNL     1      -0.645  10.757  22.193  0.00  0.00    +0.000 N 
ATOM     16  C   UNL     1      -0.212  11.966  21.715  0.00  0.00    +0.000 A 
ATOM     17  C   UNL     1       0.749  11.721  20.752  0.00  0.00    +0.000 A 
ATOM     18  C   UNL     1       0.900  10.306  20.640  0.00  0.00    +0.000 A 
ATOM     19  C   UNL     1       1.663   9.410  19.863  0.00  0.00    +0.000 A 
ATOM     20  H   UNL     1      -1.340  10.604  22.908  0.00  0.00    +0.000 HD
BRANCH  17  21
ATOM     21  C   UNL     1       1.477  12.722  19.986  0.00  0.00    +0.000 A 
ATOM     22  C   UNL     1       1.309  12.996  18.614  0.00  0.00    +0.000 A 
ATOM     23  N   UNL     1       2.110  13.980  18.189  0.00  0.00    +0.000 NA
ATOM     24  N   UNL     1       2.778  14.342  19.300  0.00  0.00    +0.000 N 
ATOM     25  C   UNL     1       3.729  15.426  19.257  0.00  0.00    +0.000 C 
ATOM     26  C   UNL     1       2.439  13.611  20.403  0.00  0.00    +0.000 A 
ENDBRANCH  17  21
ENDBRANCH   5  11
BRANCH   7  27
ATOM     27  S   UNL     1       2.451   2.972  18.873  0.00  0.00    +0.000 S 
ATOM     28  C   UNL     1       3.914   2.206  19.516  0.00  0.00    +0.000 C 
ATOM     29  O   UNL     1       1.461   2.890  19.936  0.00  0.00    +0.000 OA
ATOM     30  O   UNL     1       2.131   2.447  17.560  0.00  0.00    +0.000 OA
ENDBRANCH   7  27
BRANCH   1  32
ATOM     31  C   UNL     1       7.561   4.980  15.224  0.00  0.00    +0.000 C 
ATOM     32  C   UNL     1       6.077   5.142  14.875  0.00  0.00    +0.000 C 
BRANCH  32  33
ATOM     33  C   UNL     1       5.568   3.922  14.145  0.00  0.00    +0.000 C 
ATOM     34  C   UNL     1       4.854   3.958  12.812  0.00  0.00    +0.000 C 
ATOM     35  C   UNL     1       6.285   3.516  12.874  0.00  0.00    +0.000 C 
ENDBRANCH  32  33
ENDBRANCH   1  32
TORSDOF 5
ENDMDL
