MODEL 1
REMARK VINA RESULT:      -7.6      0.000      0.000
REMARK  Name = 
REMARK  10 active torsions:
REMARK  status: ('A' for Active; 'I' for Inactive)
REMARK    1  A    between atoms: C_1  and  C_2
REMARK    2  A    between atoms: C_2  and  C_3
REMARK    3  A    between atoms: C_3  and  C_4
REMARK    4  A    between atoms: C_6  and  N_7
REMARK    5  A    between atoms: N_7  and  C_8
REMARK    6  A    between atoms: C_8  and  C_9
REMARK    7  A    between atoms: C_12  and  N_13
REMARK    8  A    between atoms: C_14  and  C_16
REMARK    9  A    between atoms: C_17  and  C_18
REMARK   10  A    between atoms: C_21  and  C_22
REMARK                            x       y       z     vdW  Elec       q    Type
REMARK                         _______ _______ _______ _____ _____    ______ ____
ROOT
ATOM      1  C   UNL     1       4.080   4.751  18.003  0.00  0.00    +0.000 A 
ATOM      2  C   UNL     1       3.566   4.422  19.248  0.00  0.00    +0.000 A 
ATOM      3  C   UNL     1       2.777   5.338  19.953  0.00  0.00    +0.000 A 
ATOM      4  C   UNL     1       2.553   6.614  19.336  0.00  0.00    +0.000 A 
ATOM      5  C   UNL     1       1.797   7.676  19.886  0.00  0.00    +0.000 A 
ATOM      6  C   UNL     1       1.586   8.900  19.223  0.00  0.00    +0.000 A 
ATOM      7  C   UNL     1       2.171   9.091  17.978  0.00  0.00    +0.000 A 
ATOM      8  C   UNL     1       2.919   8.054  17.410  0.00  0.00    +0.000 A 
ATOM      9  C   UNL     1       3.115   6.843  18.060  0.00  0.00    +0.000 A 
ATOM     10  N   UNL     1       3.851   5.938  17.410  0.00  0.00    +0.000 NA
ENDROOT
BRANCH   6  11
ATOM     11  N   UNL     1       0.801   9.933  19.794  0.00  0.00    +0.000 N 
ATOM     12  C   UNL     1      -0.439  10.306  19.304  0.00  0.00    +0.000 C 
ATOM     13  O   UNL     1      -0.993   9.842  18.302  0.00  0.00    +0.000 OA
ATOM     14  H   UNL     1       1.218  10.477  20.537  0.00  0.00    +0.000 HD
BRANCH  12  15
ATOM     15  C   UNL     1      -1.088  11.402  20.051  0.00  0.00    +0.000 C 
ATOM     16  C   UNL     1      -0.697  11.573  21.329  0.00  0.00    +0.000 C 
BRANCH  16  17
ATOM     17  C   UNL     1      -1.274  12.535  22.267  0.00  0.00    +0.000 A 
ATOM     18  C   UNL     1      -2.569  12.299  22.746  0.00  0.00    +0.000 A 
ATOM     19  C   UNL     1      -3.164  13.187  23.641  0.00  0.00    +0.000 A 
ATOM     20  C   UNL     1      -2.463  14.311  24.093  0.00  0.00    +0.000 A 
ATOM     21  C   UNL     1      -1.164  14.542  23.615  0.00  0.00    +0.000 A 
ATOM     22  C   UNL     1      -0.574  13.656  22.713  0.00  0.00    +0.000 A 
BRANCH  20  23
ATOM     23  C   UNL     1      -3.078  15.252  25.098  0.00  0.00    +0.000 C 
ATOM     24  F   UNL     1      -2.544  16.505  25.064  0.00  0.00    +0.000 F 
ATOM     25  F   UNL     1      -4.415  15.413  24.904  0.00  0.00    +0.000 F 
ATOM     26  F   UNL     1      -2.933  14.818  26.380  0.00  0.00    +0.000 F 
ENDBRANCH  20  23
ENDBRANCH  16  17
ENDBRANCH  12  15
ENDBRANCH   6  11
BRANCH   3  27
ATOM     27  N   UNL     1       2.303   4.990  21.239  0.00  0.00    +0.000 N 
ATOM     28  H   UNL     1       1.482   5.491  21.571  0.00  0.00    +0.000 HD
BRANCH  27  29
ATOM     29  C   UNL     1       2.397   3.586  21.671  0.00  0.00    +0.000 C 
ATOM     30  C   UNL     1       1.097   2.825  21.463  0.00  0.00    +0.000 C 
ENDBRANCH  27  29
ENDBRANCH   3  27
BRANCH   1  31
ATOM     31  C   UNL     1       4.896   3.751  17.223  0.00  0.00    +0.000 C 
BRANCH  31  33
ATOM     32  C   UNL     1       7.226   4.709  17.143  0.00  0.00    +0.000 C 
ATOM     33  C   UNL     1       5.958   4.424  16.353  0.00  0.00    +0.000 C 
ENDBRANCH  31  33
ENDBRANCH   1  31
TORSDOF 8
ENDMDL
MODEL 2
REMARK VINA RESULT:      -7.6      5.965     11.465
REMARK  Name = 
REMARK  10 active torsions:
REMARK  status: ('A' for Active; 'I' for Inactive)
REMARK    1  A    between atoms: C_1  and  C_2
REMARK    2  A    between atoms: C_2  and  C_3
REMARK    3  A    between atoms: C_3  and  C_4
REMARK    4  A    between atoms: C_6  and  N_7
REMARK    5  A    between atoms: N_7  and  C_8
REMARK    6  A    between atoms: C_8  and  C_9
REMARK    7  A    between atoms: C_12  and  N_13
REMARK    8  A    between atoms: C_14  and  C_16
REMARK    9  A    between atoms: C_17  and  C_18
REMARK   10  A    between atoms: C_21  and  C_22
REMARK                            x       y       z     vdW  Elec       q    Type
REMARK                         _______ _______ _______ _____ _____    ______ ____
ROOT
ATOM      1  C   UNL     1      -2.871  13.378  23.189  0.00  0.00    +0.000 A 
ATOM      2  C   UNL     1      -2.675  14.064  22.000  0.00  0.00    +0.000 A 
ATOM      3  C   UNL     1      -1.835  13.541  21.011  0.00  0.00    +0.000 A 
ATOM      4  C   UNL     1      -1.187  12.294  21.301  0.00  0.00    +0.000 A 
ATOM      5  C   UNL     1      -0.296  11.606  20.443  0.00  0.00    +0.000 A 
ATOM      6  C   UNL     1       0.290  10.368  20.767  0.00  0.00    +0.000 A 
ATOM      7  C   UNL     1       0.005   9.801  22.002  0.00  0.00    +0.000 A 
ATOM      8  C   UNL     1      -0.877  10.457  22.866  0.00  0.00    +0.000 A 
ATOM      9  C   UNL     1      -1.465  11.672  22.539  0.00  0.00    +0.000 A 
ATOM     10  N   UNL     1      -2.286  12.195  23.453  0.00  0.00    +0.000 NA
ENDROOT
BRANCH   6  11
ATOM     11  N   UNL     1       1.159   9.696  19.871  0.00  0.00    +0.000 N 
ATOM     12  C   UNL     1       0.874   9.510  18.529  0.00  0.00    +0.000 C 
ATOM     13  O   UNL     1      -0.168   9.846  17.956  0.00  0.00    +0.000 OA
ATOM     14  H   UNL     1       1.981   9.256  20.262  0.00  0.00    +0.000 HD
BRANCH  12  15
ATOM     15  C   UNL     1       1.919   8.788  17.776  0.00  0.00    +0.000 C 
ATOM     16  C   UNL     1       2.272   7.577  18.246  0.00  0.00    +0.000 C 
BRANCH  16  17
ATOM     17  C   UNL     1       3.343   6.741  17.704  0.00  0.00    +0.000 A 
ATOM     18  C   UNL     1       4.367   7.363  16.978  0.00  0.00    +0.000 A 
ATOM     19  C   UNL     1       5.410   6.610  16.441  0.00  0.00    +0.000 A 
ATOM     20  C   UNL     1       5.462   5.226  16.645  0.00  0.00    +0.000 A 
ATOM     21  C   UNL     1       4.437   4.607  17.377  0.00  0.00    +0.000 A 
ATOM     22  C   UNL     1       3.390   5.362  17.906  0.00  0.00    +0.000 A 
BRANCH  20  23
ATOM     23  C   UNL     1       6.610   4.409  16.110  0.00  0.00    +0.000 C 
ATOM     24  F   UNL     1       7.522   4.067  17.063  0.00  0.00    +0.000 F 
ATOM     25  F   UNL     1       6.195   3.236  15.557  0.00  0.00    +0.000 F 
ATOM     26  F   UNL     1       7.308   5.058  15.139  0.00  0.00    +0.000 F 
ENDBRANCH  20  23
ENDBRANCH  16  17
ENDBRANCH  12  15
ENDBRANCH   6  11
BRANCH   3  27
ATOM     27  N   UNL     1      -1.620  14.284  19.827  0.00  0.00    +0.000 N 
ATOM     28  H   UNL     1      -2.437  14.468  19.252  0.00  0.00    +0.000 HD
BRANCH  27  29
ATOM     29  C   UNL     1      -0.608  15.353  19.839  0.00  0.00    +0.000 C 
ATOM     30  C   UNL     1       0.611  15.009  18.997  0.00  0.00    +0.000 C 
ENDBRANCH  27  29
ENDBRANCH   3  27
BRANCH   1  31
ATOM     31  C   UNL     1      -3.809  13.918  24.239  0.00  0.00    +0.000 C 
BRANCH  31  33
ATOM     32  C   UNL     1      -6.041  12.827  23.816  0.00  0.00    +0.000 C 
ATOM     33  C   UNL     1      -5.229  14.107  23.704  0.00  0.00    +0.000 C 
ENDBRANCH  31  33
ENDBRANCH   1  31
TORSDOF 8
ENDMDL
MODEL 3
REMARK VINA RESULT:      -7.5      1.715      2.035
REMARK  Name = 
REMARK  10 active torsions:
REMARK  status: ('A' for Active; 'I' for Inactive)
REMARK    1  A    between atoms: C_1  and  C_2
REMARK    2  A    between atoms: C_2  and  C_3
REMARK    3  A    between atoms: C_3  and  C_4
REMARK    4  A    between atoms: C_6  and  N_7
REMARK    5  A    between atoms: N_7  and  C_8
REMARK    6  A    between atoms: C_8  and  C_9
REMARK    7  A    between atoms: C_12  and  N_13
REMARK    8  A    between atoms: C_14  and  C_16
REMARK    9  A    between atoms: C_17  and  C_18
REMARK   10  A    between atoms: C_21  and  C_22
REMARK                            x       y       z     vdW  Elec       q    Type
REMARK                         _______ _______ _______ _____ _____    ______ ____
ROOT
ATOM      1  C   UNL     1       4.103   5.308  17.810  0.00  0.00    +0.000 A 
ATOM      2  C   UNL     1       3.717   4.746  19.017  0.00  0.00    +0.000 A 
ATOM      3  C   UNL     1       2.877   5.448  19.889  0.00  0.00    +0.000 A 
ATOM      4  C   UNL     1       2.466   6.760  19.480  0.00  0.00    +0.000 A 
ATOM      5  C   UNL     1       1.630   7.632  20.218  0.00  0.00    +0.000 A 
ATOM      6  C   UNL     1       1.234   8.901  19.755  0.00  0.00    +0.000 A 
ATOM      7  C   UNL     1       1.707   9.336  18.524  0.00  0.00    +0.000 A 
ATOM      8  C   UNL     1       2.528   8.490  17.772  0.00  0.00    +0.000 A 
ATOM      9  C   UNL     1       2.908   7.234  18.224  0.00  0.00    +0.000 A 
ATOM     10  N   UNL     1       3.697   6.528  17.411  0.00  0.00    +0.000 NA
ENDROOT
BRANCH   6  11
ATOM     11  N   UNL     1       0.376   9.737  20.511  0.00  0.00    +0.000 N 
ATOM     12  C   UNL     1       0.622  10.089  21.827  0.00  0.00    +0.000 C 
ATOM     13  O   UNL     1       1.566   9.693  22.520  0.00  0.00    +0.000 OA
ATOM     14  H   UNL     1      -0.502  10.009  20.088  0.00  0.00    +0.000 HD
BRANCH  12  15
ATOM     15  C   UNL     1      -0.398  10.974  22.426  0.00  0.00    +0.000 C 
ATOM     16  C   UNL     1      -1.315  11.490  21.585  0.00  0.00    +0.000 C 
BRANCH  16  17
ATOM     17  C   UNL     1      -2.350  12.454  21.954  0.00  0.00    +0.000 A 
ATOM     18  C   UNL     1      -3.049  12.251  23.151  0.00  0.00    +0.000 A 
ATOM     19  C   UNL     1      -4.046  13.141  23.548  0.00  0.00    +0.000 A 
ATOM     20  C   UNL     1      -4.341  14.265  22.768  0.00  0.00    +0.000 A 
ATOM     21  C   UNL     1      -3.636  14.468  21.571  0.00  0.00    +0.000 A 
ATOM     22  C   UNL     1      -2.645  13.572  21.173  0.00  0.00    +0.000 A 
BRANCH  20  23
ATOM     23  C   UNL     1      -5.383  15.260  23.210  0.00  0.00    +0.000 C 
ATOM     24  F   UNL     1      -6.177  14.802  24.219  0.00  0.00    +0.000 F 
ATOM     25  F   UNL     1      -4.831  16.417  23.667  0.00  0.00    +0.000 F 
ATOM     26  F   UNL     1      -6.228  15.618  22.204  0.00  0.00    +0.000 F 
ENDBRANCH  20  23
ENDBRANCH  16  17
ENDBRANCH  12  15
ENDBRANCH   6  11
BRANCH   3  27
ATOM     27  N   UNL     1       2.536   4.867  21.133  0.00  0.00    +0.000 N 
ATOM     28  H   UNL     1       2.478   5.498  21.928  0.00  0.00    +0.000 HD
BRANCH  27  29
ATOM     29  C   UNL     1       1.581   3.747  21.151  0.00  0.00    +0.000 C 
ATOM     30  C   UNL     1       2.214   2.451  21.632  0.00  0.00    +0.000 C 
ENDBRANCH  27  29
ENDBRANCH   3  27
BRANCH   1  31
ATOM     31  C   UNL     1       4.974   4.537  16.850  0.00  0.00    +0.000 C 
BRANCH  31  33
ATOM     32  C   UNL     1       7.420   4.684  17.439  0.00  0.00    +0.000 C 
ATOM     33  C   UNL     1       6.300   5.245  16.577  0.00  0.00    +0.000 C 
ENDBRANCH  31  33
ENDBRANCH   1  31
TORSDOF 8
ENDMDL
MODEL 4
REMARK VINA RESULT:      -7.5      0.639      1.217
REMARK  Name = 
REMARK  10 active torsions:
REMARK  status: ('A' for Active; 'I' for Inactive)
REMARK    1  A    between atoms: C_1  and  C_2
REMARK    2  A    between atoms: C_2  and  C_3
REMARK    3  A    between atoms: C_3  and  C_4
REMARK    4  A    between atoms: C_6  and  N_7
REMARK    5  A    between atoms: N_7  and  C_8
REMARK    6  A    between atoms: C_8  and  C_9
REMARK    7  A    between atoms: C_12  and  N_13
REMARK    8  A    between atoms: C_14  and  C_16
REMARK    9  A    between atoms: C_17  and  C_18
REMARK   10  A    between atoms: C_21  and  C_22
REMARK                            x       y       z     vdW  Elec       q    Type
REMARK                         _______ _______ _______ _____ _____    ______ ____
ROOT
ATOM      1  C   UNL     1       4.360   4.970  18.044  0.00  0.00    +0.000 A 
ATOM      2  C   UNL     1       3.797   4.625  19.263  0.00  0.00    +0.000 A 
ATOM      3  C   UNL     1       2.907   5.495  19.904  0.00  0.00    +0.000 A 
ATOM      4  C   UNL     1       2.635   6.744  19.251  0.00  0.00    +0.000 A 
ATOM      5  C   UNL     1       1.776   7.760  19.735  0.00  0.00    +0.000 A 
ATOM      6  C   UNL     1       1.523   8.956  19.037  0.00  0.00    +0.000 A 
ATOM      7  C   UNL     1       2.167   9.168  17.825  0.00  0.00    +0.000 A 
ATOM      8  C   UNL     1       3.015   8.176  17.322  0.00  0.00    +0.000 A 
ATOM      9  C   UNL     1       3.254   6.991  18.005  0.00  0.00    +0.000 A 
ATOM     10  N   UNL     1       4.086   6.129  17.416  0.00  0.00    +0.000 NA
ENDROOT
BRANCH   6  11
ATOM     11  N   UNL     1       0.637   9.941  19.542  0.00  0.00    +0.000 N 
ATOM     12  C   UNL     1      -0.528  10.318  18.897  0.00  0.00    +0.000 C 
ATOM     13  O   UNL     1      -0.920   9.901  17.803  0.00  0.00    +0.000 OA
ATOM     14  H   UNL     1       0.929  10.451  20.365  0.00  0.00    +0.000 HD
BRANCH  12  15
ATOM     15  C   UNL     1      -1.306  11.359  19.600  0.00  0.00    +0.000 C 
ATOM     16  C   UNL     1      -0.963  11.607  20.878  0.00  0.00    +0.000 C 
BRANCH  16  17
ATOM     17  C   UNL     1      -1.660  12.528  21.776  0.00  0.00    +0.000 A 
ATOM     18  C   UNL     1      -0.941  13.088  22.839  0.00  0.00    +0.000 A 
ATOM     19  C   UNL     1      -1.560  13.971  23.723  0.00  0.00    +0.000 A 
ATOM     20  C   UNL     1      -2.900  14.330  23.541  0.00  0.00    +0.000 A 
ATOM     21  C   UNL     1      -3.617  13.770  22.472  0.00  0.00    +0.000 A 
ATOM     22  C   UNL     1      -2.997  12.880  21.594  0.00  0.00    +0.000 A 
BRANCH  20  23
ATOM     23  C   UNL     1      -3.567  15.321  24.461  0.00  0.00    +0.000 C 
ATOM     24  F   UNL     1      -4.928  15.251  24.439  0.00  0.00    +0.000 F 
ATOM     25  F   UNL     1      -3.207  15.141  25.761  0.00  0.00    +0.000 F 
ATOM     26  F   UNL     1      -3.254  16.611  24.158  0.00  0.00    +0.000 F 
ENDBRANCH  20  23
ENDBRANCH  16  17
ENDBRANCH  12  15
ENDBRANCH   6  11
BRANCH   3  27
ATOM     27  N   UNL     1       2.382   5.136  21.167  0.00  0.00    +0.000 N 
ATOM     28  H   UNL     1       1.685   5.760  21.563  0.00  0.00    +0.000 HD
BRANCH  27  29
ATOM     29  C   UNL     1       2.191   3.709  21.471  0.00  0.00    +0.000 C 
ATOM     30  C   UNL     1       0.993   3.115  20.747  0.00  0.00    +0.000 C 
ENDBRANCH  27  29
ENDBRANCH   3  27
BRANCH   1  31
ATOM     31  C   UNL     1       5.286   4.017  17.332  0.00  0.00    +0.000 C 
BRANCH  31  33
ATOM     32  C   UNL     1       7.523   4.989  17.968  0.00  0.00    +0.000 C 
ATOM     33  C   UNL     1       6.554   4.709  16.830  0.00  0.00    +0.000 C 
ENDBRANCH  31  33
ENDBRANCH   1  31
TORSDOF 8
ENDMDL
MODEL 5
REMARK VINA RESULT:      -7.5      1.717      2.120
REMARK  Name = 
REMARK  10 active torsions:
REMARK  status: ('A' for Active; 'I' for Inactive)
REMARK    1  A    between atoms: C_1  and  C_2
REMARK    2  A    between atoms: C_2  and  C_3
REMARK    3  A    between atoms: C_3  and  C_4
REMARK    4  A    between atoms: C_6  and  N_7
REMARK    5  A    between atoms: N_7  and  C_8
REMARK    6  A    between atoms: C_8  and  C_9
REMARK    7  A    between atoms: C_12  and  N_13
REMARK    8  A    between atoms: C_14  and  C_16
REMARK    9  A    between atoms: C_17  and  C_18
REMARK   10  A    between atoms: C_21  and  C_22
REMARK                            x       y       z     vdW  Elec       q    Type
REMARK                         _______ _______ _______ _____ _____    ______ ____
ROOT
ATOM      1  C   UNL     1       4.180   5.252  18.111  0.00  0.00    +0.000 A 
ATOM      2  C   UNL     1       3.641   4.865  19.329  0.00  0.00    +0.000 A 
ATOM      3  C   UNL     1       2.744   5.701  20.003  0.00  0.00    +0.000 A 
ATOM      4  C   UNL     1       2.438   6.960  19.387  0.00  0.00    +0.000 A 
ATOM      5  C   UNL     1       1.568   7.946  19.909  0.00  0.00    +0.000 A 
ATOM      6  C   UNL     1       1.282   9.155  19.246  0.00  0.00    +0.000 A 
ATOM      7  C   UNL     1       1.904   9.410  18.031  0.00  0.00    +0.000 A 
ATOM      8  C   UNL     1       2.764   8.448  17.491  0.00  0.00    +0.000 A 
ATOM      9  C   UNL     1       3.035   7.251  18.139  0.00  0.00    +0.000 A 
ATOM     10  N   UNL     1       3.875   6.421  17.518  0.00  0.00    +0.000 NA
ENDROOT
BRANCH   6  11
ATOM     11  N   UNL     1       0.385  10.109  19.788  0.00  0.00    +0.000 N 
ATOM     12  C   UNL     1       0.770  11.092  20.684  0.00  0.00    +0.000 C 
ATOM     13  O   UNL     1       1.900  11.237  21.160  0.00  0.00    +0.000 OA
ATOM     14  H   UNL     1      -0.597   9.999  19.574  0.00  0.00    +0.000 HD
BRANCH  12  15
ATOM     15  C   UNL     1      -0.323  11.985  21.119  0.00  0.00    +0.000 C 
ATOM     16  C   UNL     1      -1.283  11.433  21.885  0.00  0.00    +0.000 C 
BRANCH  16  17
ATOM     17  C   UNL     1      -2.493  12.114  22.345  0.00  0.00    +0.000 A 
ATOM     18  C   UNL     1      -3.263  12.807  21.401  0.00  0.00    +0.000 A 
ATOM     19  C   UNL     1      -4.424  13.473  21.789  0.00  0.00    +0.000 A 
ATOM     20  C   UNL     1      -4.850  13.435  23.122  0.00  0.00    +0.000 A 
ATOM     21  C   UNL     1      -4.078  12.737  24.064  0.00  0.00    +0.000 A 
ATOM     22  C   UNL     1      -2.912  12.077  23.674  0.00  0.00    +0.000 A 
BRANCH  20  23
ATOM     23  C   UNL     1      -6.129  14.111  23.545  0.00  0.00    +0.000 C 
ATOM     24  F   UNL     1      -6.954  14.410  22.502  0.00  0.00    +0.000 F 
ATOM     25  F   UNL     1      -6.865  13.341  24.392  0.00  0.00    +0.000 F 
ATOM     26  F   UNL     1      -5.910  15.286  24.198  0.00  0.00    +0.000 F 
ENDBRANCH  20  23
ENDBRANCH  16  17
ENDBRANCH  12  15
ENDBRANCH   6  11
BRANCH   3  27
ATOM     27  N   UNL     1       2.244   5.299  21.264  0.00  0.00    +0.000 N 
ATOM     28  H   UNL     1       1.480   5.850  21.647  0.00  0.00    +0.000 HD
BRANCH  27  29
ATOM     29  C   UNL     1       2.198   3.862  21.580  0.00  0.00    +0.000 C 
ATOM     30  C   UNL     1       1.042   3.152  20.893  0.00  0.00    +0.000 C 
ENDBRANCH  27  29
ENDBRANCH   3  27
BRANCH   1  31
ATOM     31  C   UNL     1       5.114   4.335  17.362  0.00  0.00    +0.000 C 
BRANCH  31  33
ATOM     32  C   UNL     1       6.236   4.430  15.107  0.00  0.00    +0.000 C 
ATOM     33  C   UNL     1       6.080   5.105  16.461  0.00  0.00    +0.000 C 
ENDBRANCH  31  33
ENDBRANCH   1  31
TORSDOF 8
ENDMDL
MODEL 6
REMARK VINA RESULT:      -7.4      1.184      1.580
REMARK  Name = 
REMARK  10 active torsions:
REMARK  status: ('A' for Active; 'I' for Inactive)
REMARK    1  A    between atoms: C_1  and  C_2
REMARK    2  A    between atoms: C_2  and  C_3
REMARK    3  A    between atoms: C_3  and  C_4
REMARK    4  A    between atoms: C_6  and  N_7
REMARK    5  A    between atoms: N_7  and  C_8
REMARK    6  A    between atoms: C_8  and  C_9
REMARK    7  A    between atoms: C_12  and  N_13
REMARK    8  A    between atoms: C_14  and  C_16
REMARK    9  A    between atoms: C_17  and  C_18
REMARK   10  A    between atoms: C_21  and  C_22
REMARK                            x       y       z     vdW  Elec       q    Type
REMARK                         _______ _______ _______ _____ _____    ______ ____
ROOT
ATOM      1  C   UNL     1       3.952   4.661  18.012  0.00  0.00    +0.000 A 
ATOM      2  C   UNL     1       3.442   4.386  19.271  0.00  0.00    +0.000 A 
ATOM      3  C   UNL     1       2.710   5.357  19.965  0.00  0.00    +0.000 A 
ATOM      4  C   UNL     1       2.541   6.628  19.322  0.00  0.00    +0.000 A 
ATOM      5  C   UNL     1       1.847   7.739  19.856  0.00  0.00    +0.000 A 
ATOM      6  C   UNL     1       1.688   8.957  19.167  0.00  0.00    +0.000 A 
ATOM      7  C   UNL     1       2.263   9.089  17.910  0.00  0.00    +0.000 A 
ATOM      8  C   UNL     1       2.949   8.003  17.357  0.00  0.00    +0.000 A 
ATOM      9  C   UNL     1       3.094   6.799  18.032  0.00  0.00    +0.000 A 
ATOM     10  N   UNL     1       3.774   5.843  17.394  0.00  0.00    +0.000 NA
ENDROOT
BRANCH   6  11
ATOM     11  N   UNL     1       0.964  10.041  19.724  0.00  0.00    +0.000 N 
ATOM     12  C   UNL     1       0.945  10.327  21.079  0.00  0.00    +0.000 C 
ATOM     13  O   UNL     1       1.495   9.668  21.967  0.00  0.00    +0.000 OA
ATOM     14  H   UNL     1       0.363  10.567  19.104  0.00  0.00    +0.000 HD
BRANCH  12  15
ATOM     15  C   UNL     1       0.132  11.504  21.444  0.00  0.00    +0.000 C 
ATOM     16  C   UNL     1      -0.712  11.354  22.483  0.00  0.00    +0.000 C 
BRANCH  16  17
ATOM     17  C   UNL     1      -1.666  12.360  22.948  0.00  0.00    +0.000 A 
ATOM     18  C   UNL     1      -1.274  13.704  22.927  0.00  0.00    +0.000 A 
ATOM     19  C   UNL     1      -2.146  14.702  23.361  0.00  0.00    +0.000 A 
ATOM     20  C   UNL     1      -3.436  14.373  23.796  0.00  0.00    +0.000 A 
ATOM     21  C   UNL     1      -3.827  13.025  23.812  0.00  0.00    +0.000 A 
ATOM     22  C   UNL     1      -2.948  12.029  23.385  0.00  0.00    +0.000 A 
BRANCH  20  23
ATOM     23  C   UNL     1      -4.405  15.446  24.222  0.00  0.00    +0.000 C 
ATOM     24  F   UNL     1      -4.060  16.055  25.392  0.00  0.00    +0.000 F 
ATOM     25  F   UNL     1      -4.508  16.444  23.301  0.00  0.00    +0.000 F 
ATOM     26  F   UNL     1      -5.667  14.971  24.405  0.00  0.00    +0.000 F 
ENDBRANCH  20  23
ENDBRANCH  16  17
ENDBRANCH  12  15
ENDBRANCH   6  11
BRANCH   3  27
ATOM     27  N   UNL     1       2.239   5.063  21.266  0.00  0.00    +0.000 N 
ATOM     28  H   UNL     1       1.418   5.576  21.578  0.00  0.00    +0.000 HD
BRANCH  27  29
ATOM     29  C   UNL     1       2.336   3.679  21.757  0.00  0.00    +0.000 C 
ATOM     30  C   UNL     1       1.131   2.838  21.367  0.00  0.00    +0.000 C 
ENDBRANCH  27  29
ENDBRANCH   3  27
BRANCH   1  31
ATOM     31  C   UNL     1       4.705   3.603  17.244  0.00  0.00    +0.000 C 
BRANCH  31  33
ATOM     32  C   UNL     1       6.986   4.553  16.745  0.00  0.00    +0.000 C 
ATOM     33  C   UNL     1       5.619   4.204  16.176  0.00  0.00    +0.000 C 
ENDBRANCH  31  33
ENDBRANCH   1  31
TORSDOF 8
ENDMDL
MODEL 7
REMARK VINA RESULT:      -7.4      0.551      1.126
REMARK  Name = 
REMARK  10 active torsions:
REMARK  status: ('A' for Active; 'I' for Inactive)
REMARK    1  A    between atoms: C_1  and  C_2
REMARK    2  A    between atoms: C_2  and  C_3
REMARK    3  A    between atoms: C_3  and  C_4
REMARK    4  A    between atoms: C_6  and  N_7
REMARK    5  A    between atoms: N_7  and  C_8
REMARK    6  A    between atoms: C_8  and  C_9
REMARK    7  A    between atoms: C_12  and  N_13
REMARK    8  A    between atoms: C_14  and  C_16
REMARK    9  A    between atoms: C_17  and  C_18
REMARK   10  A    between atoms: C_21  and  C_22
REMARK                            x       y       z     vdW  Elec       q    Type
REMARK                         _______ _______ _______ _____ _____    ______ ____
ROOT
ATOM      1  C   UNL     1       4.018   4.671  17.656  0.00  0.00    +0.000 A 
ATOM      2  C   UNL     1       3.284   4.208  18.737  0.00  0.00    +0.000 A 
ATOM      3  C   UNL     1       2.451   5.077  19.452  0.00  0.00    +0.000 A 
ATOM      4  C   UNL     1       2.418   6.446  19.023  0.00  0.00    +0.000 A 
ATOM      5  C   UNL     1       1.653   7.479  19.615  0.00  0.00    +0.000 A 
ATOM      6  C   UNL     1       1.637   8.802  19.135  0.00  0.00    +0.000 A 
ATOM      7  C   UNL     1       2.432   9.123  18.043  0.00  0.00    +0.000 A 
ATOM      8  C   UNL     1       3.193   8.118  17.436  0.00  0.00    +0.000 A 
ATOM      9  C   UNL     1       3.198   6.811  17.902  0.00  0.00    +0.000 A 
ATOM     10  N   UNL     1       3.969   5.949  17.235  0.00  0.00    +0.000 NA
ENDROOT
BRANCH   6  11
ATOM     11  N   UNL     1       0.839   9.806  19.739  0.00  0.00    +0.000 N 
ATOM     12  C   UNL     1      -0.331  10.288  19.177  0.00  0.00    +0.000 C 
ATOM     13  O   UNL     1      -0.800   9.959  18.083  0.00  0.00    +0.000 OA
ATOM     14  H   UNL     1       1.200  10.248  20.573  0.00  0.00    +0.000 HD
BRANCH  12  15
ATOM     15  C   UNL     1      -1.010  11.328  19.976  0.00  0.00    +0.000 C 
ATOM     16  C   UNL     1      -0.587  11.485  21.245  0.00  0.00    +0.000 C 
BRANCH  16  17
ATOM     17  C   UNL     1      -1.181  12.391  22.227  0.00  0.00    +0.000 A 
ATOM     18  C   UNL     1      -0.557  13.625  22.453  0.00  0.00    +0.000 A 
ATOM     19  C   UNL     1      -1.083  14.524  23.379  0.00  0.00    +0.000 A 
ATOM     20  C   UNL     1      -2.259  14.215  24.074  0.00  0.00    +0.000 A 
ATOM     21  C   UNL     1      -2.884  12.980  23.842  0.00  0.00    +0.000 A 
ATOM     22  C   UNL     1      -2.350  12.080  22.921  0.00  0.00    +0.000 A 
BRANCH  20  23
ATOM     23  C   UNL     1      -2.865  15.199  25.043  0.00  0.00    +0.000 C 
ATOM     24  F   UNL     1      -2.191  16.383  25.106  0.00  0.00    +0.000 F 
ATOM     25  F   UNL     1      -4.148  15.518  24.720  0.00  0.00    +0.000 F 
ATOM     26  F   UNL     1      -2.904  14.723  26.318  0.00  0.00    +0.000 F 
ENDBRANCH  20  23
ENDBRANCH  16  17
ENDBRANCH  12  15
ENDBRANCH   6  11
BRANCH   3  27
ATOM     27  N   UNL     1       1.748   4.586  20.576  0.00  0.00    +0.000 N 
ATOM     28  H   UNL     1       1.175   5.257  21.082  0.00  0.00    +0.000 HD
BRANCH  27  29
ATOM     29  C   UNL     1       1.215   3.215  20.533  0.00  0.00    +0.000 C 
ATOM     30  C   UNL     1       1.443   2.461  21.834  0.00  0.00    +0.000 C 
ENDBRANCH  27  29
ENDBRANCH   3  27
BRANCH   1  31
ATOM     31  C   UNL     1       4.883   3.728  16.858  0.00  0.00    +0.000 C 
BRANCH  31  33
ATOM     32  C   UNL     1       5.652   4.218  14.509  0.00  0.00    +0.000 C 
ATOM     33  C   UNL     1       5.897   4.471  15.988  0.00  0.00    +0.000 C 
ENDBRANCH  31  33
ENDBRANCH   1  31
TORSDOF 8
ENDMDL
MODEL 8
REMARK VINA RESULT:      -7.4      1.455      1.799
REMARK  Name = 
REMARK  10 active torsions:
REMARK  status: ('A' for Active; 'I' for Inactive)
REMARK    1  A    between atoms: C_1  and  C_2
REMARK    2  A    between atoms: C_2  and  C_3
REMARK    3  A    between atoms: C_3  and  C_4
REMARK    4  A    between atoms: C_6  and  N_7
REMARK    5  A    between atoms: N_7  and  C_8
REMARK    6  A    between atoms: C_8  and  C_9
REMARK    7  A    between atoms: C_12  and  N_13
REMARK    8  A    between atoms: C_14  and  C_16
REMARK    9  A    between atoms: C_17  and  C_18
REMARK   10  A    between atoms: C_21  and  C_22
REMARK                            x       y       z     vdW  Elec       q    Type
REMARK                         _______ _______ _______ _____ _____    ______ ____
ROOT
ATOM      1  C   UNL     1       4.078   4.868  17.949  0.00  0.00    +0.000 A 
ATOM      2  C   UNL     1       3.659   4.476  19.211  0.00  0.00    +0.000 A 
ATOM      3  C   UNL     1       2.883   5.335  19.998  0.00  0.00    +0.000 A 
ATOM      4  C   UNL     1       2.572   6.621  19.444  0.00  0.00    +0.000 A 
ATOM      5  C   UNL     1       1.812   7.632  20.079  0.00  0.00    +0.000 A 
ATOM      6  C   UNL     1       1.512   8.869  19.477  0.00  0.00    +0.000 A 
ATOM      7  C   UNL     1       2.007   9.126  18.205  0.00  0.00    +0.000 A 
ATOM      8  C   UNL     1       2.755   8.140  17.553  0.00  0.00    +0.000 A 
ATOM      9  C   UNL     1       3.039   6.916  18.144  0.00  0.00    +0.000 A 
ATOM     10  N   UNL     1       3.766   6.064  17.416  0.00  0.00    +0.000 NA
ENDROOT
BRANCH   6  11
ATOM     11  N   UNL     1       0.727   9.849  20.134  0.00  0.00    +0.000 N 
ATOM     12  C   UNL     1       0.905  11.210  19.957  0.00  0.00    +0.000 C 
ATOM     13  O   UNL     1       1.777  11.744  19.264  0.00  0.00    +0.000 OA
ATOM     14  H   UNL     1       0.071   9.528  20.833  0.00  0.00    +0.000 HD
BRANCH  12  15
ATOM     15  C   UNL     1      -0.025  12.055  20.734  0.00  0.00    +0.000 C 
ATOM     16  C   UNL     1      -1.243  11.538  20.983  0.00  0.00    +0.000 C 
BRANCH  16  17
ATOM     17  C   UNL     1      -2.337  12.240  21.653  0.00  0.00    +0.000 A 
ATOM     18  C   UNL     1      -3.237  12.969  20.866  0.00  0.00    +0.000 A 
ATOM     19  C   UNL     1      -4.297  13.656  21.457  0.00  0.00    +0.000 A 
ATOM     20  C   UNL     1      -4.490  13.602  22.842  0.00  0.00    +0.000 A 
ATOM     21  C   UNL     1      -3.588  12.867  23.627  0.00  0.00    +0.000 A 
ATOM     22  C   UNL     1      -2.525  12.187  23.034  0.00  0.00    +0.000 A 
BRANCH  20  23
ATOM     23  C   UNL     1      -5.659  14.301  23.488  0.00  0.00    +0.000 C 
ATOM     24  F   UNL     1      -5.291  15.306  24.332  0.00  0.00    +0.000 F 
ATOM     25  F   UNL     1      -6.489  14.871  22.572  0.00  0.00    +0.000 F 
ATOM     26  F   UNL     1      -6.433  13.458  24.225  0.00  0.00    +0.000 F 
ENDBRANCH  20  23
ENDBRANCH  16  17
ENDBRANCH  12  15
ENDBRANCH   6  11
BRANCH   3  27
ATOM     27  N   UNL     1       2.508   4.925  21.299  0.00  0.00    +0.000 N 
ATOM     28  H   UNL     1       1.882   5.544  21.807  0.00  0.00    +0.000 HD
BRANCH  27  29
ATOM     29  C   UNL     1       2.315   3.489  21.558  0.00  0.00    +0.000 C 
ATOM     30  C   UNL     1       1.019   2.959  20.963  0.00  0.00    +0.000 C 
ENDBRANCH  27  29
ENDBRANCH   3  27
BRANCH   1  31
ATOM     31  C   UNL     1       4.879   3.929  17.082  0.00  0.00    +0.000 C 
BRANCH  31  33
ATOM     32  C   UNL     1       7.282   4.653  17.311  0.00  0.00    +0.000 C 
ATOM     33  C   UNL     1       6.059   4.630  16.408  0.00  0.00    +0.000 C 
ENDBRANCH  31  33
ENDBRANCH   1  31
TORSDOF 8
ENDMDL
MODEL 9
REMARK VINA RESULT:      -7.3      1.174      1.719
REMARK  Name = 
REMARK  10 active torsions:
REMARK  status: ('A' for Active; 'I' for Inactive)
REMARK    1  A    between atoms: C_1  and  C_2
REMARK    2  A    between atoms: C_2  and  C_3
REMARK    3  A    between atoms: C_3  and  C_4
REMARK    4  A    between atoms: C_6  and  N_7
REMARK    5  A    between atoms: N_7  and  C_8
REMARK    6  A    between atoms: C_8  and  C_9
REMARK    7  A    between atoms: C_12  and  N_13
REMARK    8  A    between atoms: C_14  and  C_16
REMARK    9  A    between atoms: C_17  and  C_18
REMARK   10  A    between atoms: C_21  and  C_22
REMARK                            x       y       z     vdW  Elec       q    Type
REMARK                         _______ _______ _______ _____ _____    ______ ____
ROOT
ATOM      1  C   UNL     1       4.585   5.118  18.195  0.00  0.00    +0.000 A 
ATOM      2  C   UNL     1       3.937   4.667  19.335  0.00  0.00    +0.000 A 
ATOM      3  C   UNL     1       2.937   5.441  19.934  0.00  0.00    +0.000 A 
ATOM      4  C   UNL     1       2.642   6.707  19.326  0.00  0.00    +0.000 A 
ATOM      5  C   UNL     1       1.678   7.638  19.780  0.00  0.00    +0.000 A 
ATOM      6  C   UNL     1       1.409   8.856  19.127  0.00  0.00    +0.000 A 
ATOM      7  C   UNL     1       2.145   9.178  17.994  0.00  0.00    +0.000 A 
ATOM      8  C   UNL     1       3.100   8.272  17.521  0.00  0.00    +0.000 A 
ATOM      9  C   UNL     1       3.354   7.066  18.159  0.00  0.00    +0.000 A 
ATOM     10  N   UNL     1       4.293   6.293  17.607  0.00  0.00    +0.000 NA
ENDROOT
BRANCH   6  11
ATOM     11  N   UNL     1       0.418   9.752  19.597  0.00  0.00    +0.000 N 
ATOM     12  C   UNL     1       0.446  10.324  20.858  0.00  0.00    +0.000 C 
ATOM     13  O   UNL     1       1.283  10.099  21.739  0.00  0.00    +0.000 OA
ATOM     14  H   UNL     1      -0.391   9.902  19.010  0.00  0.00    +0.000 HD
BRANCH  12  15
ATOM     15  C   UNL     1      -0.682  11.234  21.142  0.00  0.00    +0.000 C 
ATOM     16  C   UNL     1      -0.561  12.022  22.228  0.00  0.00    +0.000 C 
BRANCH  16  17
ATOM     17  C   UNL     1      -1.593  12.925  22.735  0.00  0.00    +0.000 A 
ATOM     18  C   UNL     1      -1.188  14.081  23.414  0.00  0.00    +0.000 A 
ATOM     19  C   UNL     1      -2.134  14.973  23.918  0.00  0.00    +0.000 A 
ATOM     20  C   UNL     1      -3.500  14.737  23.726  0.00  0.00    +0.000 A 
ATOM     21  C   UNL     1      -3.903  13.580  23.041  0.00  0.00    +0.000 A 
ATOM     22  C   UNL     1      -2.954  12.686  22.545  0.00  0.00    +0.000 A 
BRANCH  20  23
ATOM     23  C   UNL     1      -4.531  15.718  24.223  0.00  0.00    +0.000 C 
ATOM     24  F   UNL     1      -5.764  15.165  24.403  0.00  0.00    +0.000 F 
ATOM     25  F   UNL     1      -4.189  16.262  25.424  0.00  0.00    +0.000 F 
ATOM     26  F   UNL     1      -4.712  16.766  23.373  0.00  0.00    +0.000 F 
ENDBRANCH  20  23
ENDBRANCH  16  17
ENDBRANCH  12  15
ENDBRANCH   6  11
BRANCH   3  27
ATOM     27  N   UNL     1       2.325   4.976  21.121  0.00  0.00    +0.000 N 
ATOM     28  H   UNL     1       2.134   5.672  21.837  0.00  0.00    +0.000 HD
BRANCH  27  29
ATOM     29  C   UNL     1       1.339   3.887  21.027  0.00  0.00    +0.000 C 
ATOM     30  C   UNL     1       1.807   2.616  21.719  0.00  0.00    +0.000 C 
ENDBRANCH  27  29
ENDBRANCH   3  27
BRANCH   1  31
ATOM     31  C   UNL     1       5.633   4.267  17.523  0.00  0.00    +0.000 C 
BRANCH  31  33
ATOM     32  C   UNL     1       7.704   5.356  18.460  0.00  0.00    +0.000 C 
ATOM     33  C   UNL     1       6.901   5.058  17.204  0.00  0.00    +0.000 C 
ENDBRANCH  31  33
ENDBRANCH   1  31
TORSDOF 8
ENDMDL
