MODEL 1
REMARK VINA RESULT:      -7.7      0.000      0.000
REMARK  Name = 
REMARK  7 active torsions:
REMARK  status: ('A' for Active; 'I' for Inactive)
REMARK    1  A    between atoms: C_2  and  C_3
REMARK    2  A    between atoms: N_5  and  C_6
REMARK    3  A    between atoms: C_6  and  C_7
REMARK    4  A    between atoms: C_7  and  C_8
REMARK    5  A    between atoms: C_16  and  N_17
REMARK    6  A    between atoms: C_19  and  C_20
REMARK    7  A    between atoms: N_24  and  C_25
REMARK                            x       y       z     vdW  Elec       q    Type
REMARK                         _______ _______ _______ _____ _____    ______ ____
ROOT
ATOM      1  N   UNL     1      -0.097  10.155  19.167  0.00  0.00    +0.000 N 
ATOM      2  C   UNL     1      -0.339  10.498  20.468  0.00  0.00    +0.000 A 
ATOM      3  C   UNL     1       0.376   9.606  21.247  0.00  0.00    +0.000 A 
ATOM      4  C   UNL     1       1.063   8.780  20.312  0.00  0.00    +0.000 A 
ATOM      5  N   UNL     1       1.820   7.718  20.690  0.00  0.00    +0.000 N 
ATOM      6  N   UNL     1       0.781   9.155  19.060  0.00  0.00    +0.000 NA
ATOM      7  H   UNL     1       2.024   7.626  21.684  0.00  0.00    +0.000 HD
ENDROOT
BRANCH   5   8
ATOM      8  C   UNL     1       2.183   6.570  19.946  0.00  0.00    +0.000 A 
ATOM      9  C   UNL     1       2.916   6.634  18.751  0.00  0.00    +0.000 A 
ATOM     10  C   UNL     1       3.131   5.500  17.965  0.00  0.00    +0.000 A 
ATOM     11  C   UNL     1       2.616   4.282  18.375  0.00  0.00    +0.000 A 
ATOM     12  F   UNL     1       2.795   3.197  17.610  0.00  0.00    +0.000 F 
ATOM     13  C   UNL     1       1.910   4.174  19.566  0.00  0.00    +0.000 A 
ATOM     14  C   UNL     1       1.697   5.314  20.349  0.00  0.00    +0.000 A 
ENDBRANCH   5   8
BRANCH   1  20
ATOM     15  C   UNL     1      -2.070  10.094  17.609  0.00  0.00    +0.000 C 
ATOM     16  C   UNL     1      -3.093  10.498  18.691  0.00  0.00    +0.000 C 
ATOM     17  N   UNL     1      -3.193  11.965  18.882  0.00  0.00    +0.000 NA
ATOM     18  C   UNL     1      -1.895  12.628  19.063  0.00  0.00    +0.000 C 
ATOM     19  C   UNL     1      -0.843  12.239  18.028  0.00  0.00    +0.000 C 
ATOM     20  C   UNL     1      -0.691  10.716  17.941  0.00  0.00    +0.000 C 
BRANCH  15  22
ATOM     21  N   UNL     1      -3.058  11.064  15.197  0.00  0.00    +0.000 NA
ATOM     22  C   UNL     1      -2.610  10.624  16.291  0.00  0.00    +0.000 C 
ENDBRANCH  15  22
BRANCH  17  23
ATOM     23  C   UNL     1      -4.119  12.245  20.003  0.00  0.00    +0.000 C 
BRANCH  23  24
ATOM     24  C   UNL     1      -3.624  13.368  20.923  0.00  0.00    +0.000 C 
BRANCH  24  25
ATOM     25  C   UNL     1      -3.783  13.099  22.434  0.00  0.00    +0.000 C 
ATOM     26  C   UNL     1      -2.644  12.260  23.035  0.00  0.00    +0.000 C 
ATOM     27  C   UNL     1      -1.332  13.035  23.075  0.00  0.00    +0.000 C 
ATOM     28  O   UNL     1      -1.485  14.253  23.803  0.00  0.00    +0.000 OA
ATOM     29  C   UNL     1      -2.469  15.119  23.240  0.00  0.00    +0.000 C 
ATOM     30  C   UNL     1      -3.838  14.441  23.185  0.00  0.00    +0.000 C 
ENDBRANCH  24  25
ENDBRANCH  23  24
ENDBRANCH  17  23
ENDBRANCH   1  20
BRANCH   3  31
ATOM     31  C   UNL     1       0.398   9.523  22.695  0.00  0.00    +0.000 C 
ATOM     32  N   UNL     1      -0.796   9.234  23.296  0.00  0.00    +0.000 N 
ATOM     33  O   UNL     1       1.423   9.634  23.356  0.00  0.00    +0.000 OA
ATOM     34  H   UNL     1      -1.558   8.832  22.773  0.00  0.00    +0.000 HD
ATOM     35  H   UNL     1      -0.763   9.053  24.291  0.00  0.00    +0.000 HD
ENDBRANCH   3  31
TORSDOF 7
ENDMDL
MODEL 2
REMARK VINA RESULT:      -7.7      4.481      7.499
REMARK  Name = 
REMARK  7 active torsions:
REMARK  status: ('A' for Active; 'I' for Inactive)
REMARK    1  A    between atoms: C_2  and  C_3
REMARK    2  A    between atoms: N_5  and  C_6
REMARK    3  A    between atoms: C_6  and  C_7
REMARK    4  A    between atoms: C_7  and  C_8
REMARK    5  A    between atoms: C_16  and  N_17
REMARK    6  A    between atoms: C_19  and  C_20
REMARK    7  A    between atoms: N_24  and  C_25
REMARK                            x       y       z     vdW  Elec       q    Type
REMARK                         _______ _______ _______ _____ _____    ______ ____
ROOT
ATOM      1  N   UNL     1       4.482   4.900  18.282  0.00  0.00    +0.000 N 
ATOM      2  C   UNL     1       5.425   5.311  19.181  0.00  0.00    +0.000 A 
ATOM      3  C   UNL     1       6.534   5.684  18.443  0.00  0.00    +0.000 A 
ATOM      4  C   UNL     1       6.142   5.502  17.086  0.00  0.00    +0.000 A 
ATOM      5  N   UNL     1       6.994   5.688  16.045  0.00  0.00    +0.000 N 
ATOM      6  N   UNL     1       4.884   5.055  17.018  0.00  0.00    +0.000 NA
ATOM      7  H   UNL     1       7.888   6.132  16.252  0.00  0.00    +0.000 HD
ENDROOT
BRANCH   5   8
ATOM      8  C   UNL     1       6.940   5.146  14.738  0.00  0.00    +0.000 A 
ATOM      9  C   UNL     1       6.112   4.067  14.392  0.00  0.00    +0.000 A 
ATOM     10  C   UNL     1       6.189   3.462  13.137  0.00  0.00    +0.000 A 
ATOM     11  C   UNL     1       7.096   3.940  12.206  0.00  0.00    +0.000 A 
ATOM     12  F   UNL     1       7.193   3.345  11.011  0.00  0.00    +0.000 F 
ATOM     13  C   UNL     1       7.911   5.025  12.502  0.00  0.00    +0.000 A 
ATOM     14  C   UNL     1       7.831   5.627  13.763  0.00  0.00    +0.000 A 
ENDBRANCH   5   8
BRANCH   1  20
ATOM     15  C   UNL     1       2.866   4.142  20.054  0.00  0.00    +0.000 C 
ATOM     16  C   UNL     1       2.747   5.531  20.713  0.00  0.00    +0.000 C 
ATOM     17  N   UNL     1       1.741   6.403  20.061  0.00  0.00    +0.000 NA
ATOM     18  C   UNL     1       1.886   6.487  18.602  0.00  0.00    +0.000 C 
ATOM     19  C   UNL     1       2.032   5.135  17.909  0.00  0.00    +0.000 C 
ATOM     20  C   UNL     1       3.158   4.309  18.542  0.00  0.00    +0.000 C 
BRANCH  15  22
ATOM     21  N   UNL     1       0.432   2.864  20.475  0.00  0.00    +0.000 NA
ATOM     22  C   UNL     1       1.536   3.443  20.284  0.00  0.00    +0.000 C 
ENDBRANCH  15  22
BRANCH  17  23
ATOM     23  C   UNL     1       1.773   7.739  20.698  0.00  0.00    +0.000 C 
BRANCH  23  24
ATOM     24  C   UNL     1       1.175   8.840  19.813  0.00  0.00    +0.000 C 
BRANCH  24  25
ATOM     25  C   UNL     1      -0.029   9.590  20.418  0.00  0.00    +0.000 C 
ATOM     26  C   UNL     1       0.366  10.684  21.423  0.00  0.00    +0.000 C 
ATOM     27  C   UNL     1       1.049  11.861  20.738  0.00  0.00    +0.000 C 
ATOM     28  O   UNL     1       0.215  12.407  19.717  0.00  0.00    +0.000 OA
ATOM     29  C   UNL     1      -0.114  11.461  18.701  0.00  0.00    +0.000 C 
ATOM     30  C   UNL     1      -0.838  10.249  19.286  0.00  0.00    +0.000 C 
ENDBRANCH  24  25
ENDBRANCH  23  24
ENDBRANCH  17  23
ENDBRANCH   1  20
BRANCH   3  31
ATOM     31  C   UNL     1       7.817   6.138  18.947  0.00  0.00    +0.000 C 
ATOM     32  N   UNL     1       8.434   5.309  19.842  0.00  0.00    +0.000 N 
ATOM     33  O   UNL     1       8.364   7.163  18.559  0.00  0.00    +0.000 OA
ATOM     34  H   UNL     1       8.166   4.340  19.926  0.00  0.00    +0.000 HD
ATOM     35  H   UNL     1       9.380   5.557  20.102  0.00  0.00    +0.000 HD
ENDBRANCH   3  31
TORSDOF 7
ENDMDL
MODEL 3
REMARK VINA RESULT:      -7.6      4.440      7.462
REMARK  Name = 
REMARK  7 active torsions:
REMARK  status: ('A' for Active; 'I' for Inactive)
REMARK    1  A    between atoms: C_2  and  C_3
REMARK    2  A    between atoms: N_5  and  C_6
REMARK    3  A    between atoms: C_6  and  C_7
REMARK    4  A    between atoms: C_7  and  C_8
REMARK    5  A    between atoms: C_16  and  N_17
REMARK    6  A    between atoms: C_19  and  C_20
REMARK    7  A    between atoms: N_24  and  C_25
REMARK                            x       y       z     vdW  Elec       q    Type
REMARK                         _______ _______ _______ _____ _____    ______ ____
ROOT
ATOM      1  N   UNL     1       4.763   4.782  18.430  0.00  0.00    +0.000 N 
ATOM      2  C   UNL     1       5.698   5.243  19.314  0.00  0.00    +0.000 A 
ATOM      3  C   UNL     1       6.792   5.630  18.562  0.00  0.00    +0.000 A 
ATOM      4  C   UNL     1       6.400   5.403  17.212  0.00  0.00    +0.000 A 
ATOM      5  N   UNL     1       7.241   5.590  16.162  0.00  0.00    +0.000 N 
ATOM      6  N   UNL     1       5.155   4.918  17.161  0.00  0.00    +0.000 NA
ATOM      7  H   UNL     1       8.122   6.065  16.355  0.00  0.00    +0.000 HD
ENDROOT
BRANCH   5   8
ATOM      8  C   UNL     1       7.198   5.016  14.869  0.00  0.00    +0.000 A 
ATOM      9  C   UNL     1       7.923   5.527  13.782  0.00  0.00    +0.000 A 
ATOM     10  C   UNL     1       7.746   5.030  12.489  0.00  0.00    +0.000 A 
ATOM     11  C   UNL     1       6.841   4.004  12.273  0.00  0.00    +0.000 A 
ATOM     12  F   UNL     1       6.648   3.544  11.031  0.00  0.00    +0.000 F 
ATOM     13  C   UNL     1       6.127   3.453  13.329  0.00  0.00    +0.000 A 
ATOM     14  C   UNL     1       6.307   3.956  14.623  0.00  0.00    +0.000 A 
ENDBRANCH   5   8
BRANCH   1  20
ATOM     15  C   UNL     1       2.981   4.402  20.163  0.00  0.00    +0.000 C 
ATOM     16  C   UNL     1       2.683   5.902  20.363  0.00  0.00    +0.000 C 
ATOM     17  N   UNL     1       1.718   6.443  19.378  0.00  0.00    +0.000 NA
ATOM     18  C   UNL     1       2.048   6.120  17.985  0.00  0.00    +0.000 C 
ATOM     19  C   UNL     1       2.375   4.648  17.743  0.00  0.00    +0.000 C 
ATOM     20  C   UNL     1       3.459   4.157  18.710  0.00  0.00    +0.000 C 
BRANCH  15  22
ATOM     21  N   UNL     1       0.603   3.057  20.681  0.00  0.00    +0.000 NA
ATOM     22  C   UNL     1       1.681   3.666  20.446  0.00  0.00    +0.000 C 
ENDBRANCH  15  22
BRANCH  17  23
ATOM     23  C   UNL     1       1.576   7.902  19.590  0.00  0.00    +0.000 C 
BRANCH  23  24
ATOM     24  C   UNL     1       1.194   8.265  21.030  0.00  0.00    +0.000 C 
BRANCH  24  25
ATOM     25  C   UNL     1      -0.267   8.717  21.229  0.00  0.00    +0.000 C 
ATOM     26  C   UNL     1      -0.713   8.738  22.700  0.00  0.00    +0.000 C 
ATOM     27  C   UNL     1      -0.020   9.845  23.485  0.00  0.00    +0.000 C 
ATOM     28  O   UNL     1      -0.253  11.117  22.882  0.00  0.00    +0.000 OA
ATOM     29  C   UNL     1       0.222  11.192  21.538  0.00  0.00    +0.000 C 
ATOM     30  C   UNL     1      -0.442  10.135  20.656  0.00  0.00    +0.000 C 
ENDBRANCH  24  25
ENDBRANCH  23  24
ENDBRANCH  17  23
ENDBRANCH   1  20
BRANCH   3  31
ATOM     31  C   UNL     1       8.062   6.134  19.049  0.00  0.00    +0.000 C 
ATOM     32  N   UNL     1       8.713   5.341  19.953  0.00  0.00    +0.000 N 
ATOM     33  O   UNL     1       8.572   7.170  18.640  0.00  0.00    +0.000 OA
ATOM     34  H   UNL     1       8.477   4.365  20.054  0.00  0.00    +0.000 HD
ATOM     35  H   UNL     1       9.652   5.624  20.202  0.00  0.00    +0.000 HD
ENDBRANCH   3  31
TORSDOF 7
ENDMDL
MODEL 4
REMARK VINA RESULT:      -7.6      4.491      7.541
REMARK  Name = 
REMARK  7 active torsions:
REMARK  status: ('A' for Active; 'I' for Inactive)
REMARK    1  A    between atoms: C_2  and  C_3
REMARK    2  A    between atoms: N_5  and  C_6
REMARK    3  A    between atoms: C_6  and  C_7
REMARK    4  A    between atoms: C_7  and  C_8
REMARK    5  A    between atoms: C_16  and  N_17
REMARK    6  A    between atoms: C_19  and  C_20
REMARK    7  A    between atoms: N_24  and  C_25
REMARK                            x       y       z     vdW  Elec       q    Type
REMARK                         _______ _______ _______ _____ _____    ______ ____
ROOT
ATOM      1  N   UNL     1       4.461   4.925  18.240  0.00  0.00    +0.000 N 
ATOM      2  C   UNL     1       5.401   5.325  19.148  0.00  0.00    +0.000 A 
ATOM      3  C   UNL     1       6.519   5.690  18.419  0.00  0.00    +0.000 A 
ATOM      4  C   UNL     1       6.136   5.515  17.058  0.00  0.00    +0.000 A 
ATOM      5  N   UNL     1       6.997   5.697  16.024  0.00  0.00    +0.000 N 
ATOM      6  N   UNL     1       4.874   5.080  16.980  0.00  0.00    +0.000 NA
ATOM      7  H   UNL     1       7.893   6.132  16.240  0.00  0.00    +0.000 HD
ENDROOT
BRANCH   5   8
ATOM      8  C   UNL     1       6.948   5.160  14.716  0.00  0.00    +0.000 A 
ATOM      9  C   UNL     1       6.118   4.084  14.362  0.00  0.00    +0.000 A 
ATOM     10  C   UNL     1       6.200   3.483  13.105  0.00  0.00    +0.000 A 
ATOM     11  C   UNL     1       7.113   3.962  12.181  0.00  0.00    +0.000 A 
ATOM     12  F   UNL     1       7.215   3.370  10.984  0.00  0.00    +0.000 F 
ATOM     13  C   UNL     1       7.931   5.043  12.485  0.00  0.00    +0.000 A 
ATOM     14  C   UNL     1       7.845   5.641  13.747  0.00  0.00    +0.000 A 
ENDBRANCH   5   8
BRANCH   1  20
ATOM     15  C   UNL     1       2.852   4.112  19.994  0.00  0.00    +0.000 C 
ATOM     16  C   UNL     1       2.765   5.471  20.719  0.00  0.00    +0.000 C 
ATOM     17  N   UNL     1       1.767   6.390  20.120  0.00  0.00    +0.000 NA
ATOM     18  C   UNL     1       1.897   6.539  18.665  0.00  0.00    +0.000 C 
ATOM     19  C   UNL     1       2.012   5.219  17.907  0.00  0.00    +0.000 C 
ATOM     20  C   UNL     1       3.130   4.345  18.487  0.00  0.00    +0.000 C 
BRANCH  15  22
ATOM     21  N   UNL     1       0.401   2.858  20.384  0.00  0.00    +0.000 NA
ATOM     22  C   UNL     1       1.512   3.427  20.207  0.00  0.00    +0.000 C 
ENDBRANCH  15  22
BRANCH  17  23
ATOM     23  C   UNL     1       1.830   7.694  20.819  0.00  0.00    +0.000 C 
BRANCH  23  24
ATOM     24  C   UNL     1       0.626   8.595  20.515  0.00  0.00    +0.000 C 
BRANCH  24  25
ATOM     25  C   UNL     1       0.955   9.903  19.767  0.00  0.00    +0.000 C 
ATOM     26  C   UNL     1       0.168  10.081  18.459  0.00  0.00    +0.000 C 
ATOM     27  C   UNL     1      -1.312  10.332  18.720  0.00  0.00    +0.000 C 
ATOM     28  O   UNL     1      -1.494  11.468  19.563  0.00  0.00    +0.000 OA
ATOM     29  C   UNL     1      -0.859  11.327  20.834  0.00  0.00    +0.000 C 
ATOM     30  C   UNL     1       0.645  11.101  20.680  0.00  0.00    +0.000 C 
ENDBRANCH  24  25
ENDBRANCH  23  24
ENDBRANCH  17  23
ENDBRANCH   1  20
BRANCH   3  31
ATOM     31  C   UNL     1       7.801   6.130  18.934  0.00  0.00    +0.000 C 
ATOM     32  N   UNL     1       8.423   5.275  19.801  0.00  0.00    +0.000 N 
ATOM     33  O   UNL     1       8.345   7.169  18.578  0.00  0.00    +0.000 OA
ATOM     34  H   UNL     1       8.157   4.303  19.854  0.00  0.00    +0.000 HD
ATOM     35  H   UNL     1       9.369   5.517  20.066  0.00  0.00    +0.000 HD
ENDBRANCH   3  31
TORSDOF 7
ENDMDL
MODEL 5
REMARK VINA RESULT:      -7.6      4.425      7.426
REMARK  Name = 
REMARK  7 active torsions:
REMARK  status: ('A' for Active; 'I' for Inactive)
REMARK    1  A    between atoms: C_2  and  C_3
REMARK    2  A    between atoms: N_5  and  C_6
REMARK    3  A    between atoms: C_6  and  C_7
REMARK    4  A    between atoms: C_7  and  C_8
REMARK    5  A    between atoms: C_16  and  N_17
REMARK    6  A    between atoms: C_19  and  C_20
REMARK    7  A    between atoms: N_24  and  C_25
REMARK                            x       y       z     vdW  Elec       q    Type
REMARK                         _______ _______ _______ _____ _____    ______ ____
ROOT
ATOM      1  N   UNL     1       4.664   4.880  18.365  0.00  0.00    +0.000 N 
ATOM      2  C   UNL     1       5.591   5.356  19.248  0.00  0.00    +0.000 A 
ATOM      3  C   UNL     1       6.695   5.720  18.498  0.00  0.00    +0.000 A 
ATOM      4  C   UNL     1       6.316   5.463  17.150  0.00  0.00    +0.000 A 
ATOM      5  N   UNL     1       7.169   5.621  16.105  0.00  0.00    +0.000 N 
ATOM      6  N   UNL     1       5.070   4.984  17.097  0.00  0.00    +0.000 NA
ATOM      7  H   UNL     1       8.051   6.096  16.296  0.00  0.00    +0.000 HD
ENDROOT
BRANCH   5   8
ATOM      8  C   UNL     1       7.136   5.016  14.826  0.00  0.00    +0.000 A 
ATOM      9  C   UNL     1       7.847   5.519  13.725  0.00  0.00    +0.000 A 
ATOM     10  C   UNL     1       7.678   4.989  12.445  0.00  0.00    +0.000 A 
ATOM     11  C   UNL     1       6.798   3.938  12.255  0.00  0.00    +0.000 A 
ATOM     12  F   UNL     1       6.612   3.445  11.023  0.00  0.00    +0.000 F 
ATOM     13  C   UNL     1       6.098   3.395  13.325  0.00  0.00    +0.000 A 
ATOM     14  C   UNL     1       6.270   3.931  14.606  0.00  0.00    +0.000 A 
ENDBRANCH   5   8
BRANCH   1  20
ATOM     15  C   UNL     1       2.946   4.390  20.136  0.00  0.00    +0.000 C 
ATOM     16  C   UNL     1       2.706   5.873  20.486  0.00  0.00    +0.000 C 
ATOM     17  N   UNL     1       1.717   6.531  19.600  0.00  0.00    +0.000 NA
ATOM     18  C   UNL     1       1.977   6.329  18.169  0.00  0.00    +0.000 C 
ATOM     19  C   UNL     1       2.245   4.878  17.779  0.00  0.00    +0.000 C 
ATOM     20  C   UNL     1       3.353   4.269  18.646  0.00  0.00    +0.000 C 
BRANCH  15  22
ATOM     21  N   UNL     1       0.550   3.070  20.636  0.00  0.00    +0.000 NA
ATOM     22  C   UNL     1       1.636   3.668  20.409  0.00  0.00    +0.000 C 
ENDBRANCH  15  22
BRANCH  17  23
ATOM     23  C   UNL     1       1.632   7.967  19.951  0.00  0.00    +0.000 C 
BRANCH  23  24
ATOM     24  C   UNL     1       0.801   8.227  21.214  0.00  0.00    +0.000 C 
BRANCH  24  25
ATOM     25  C   UNL     1       1.212   9.472  22.027  0.00  0.00    +0.000 C 
ATOM     26  C   UNL     1       0.992  10.797  21.280  0.00  0.00    +0.000 C 
ATOM     27  C   UNL     1      -0.490  11.112  21.111  0.00  0.00    +0.000 C 
ATOM     28  O   UNL     1      -1.149  11.143  22.376  0.00  0.00    +0.000 OA
ATOM     29  C   UNL     1      -1.058   9.907  23.083  0.00  0.00    +0.000 C 
ATOM     30  C   UNL     1       0.399   9.517  23.332  0.00  0.00    +0.000 C 
ENDBRANCH  24  25
ENDBRANCH  23  24
ENDBRANCH  17  23
ENDBRANCH   1  20
BRANCH   3  31
ATOM     31  C   UNL     1       7.963   6.228  18.987  0.00  0.00    +0.000 C 
ATOM     32  N   UNL     1       8.621   5.432  19.883  0.00  0.00    +0.000 N 
ATOM     33  O   UNL     1       8.466   7.271  18.586  0.00  0.00    +0.000 OA
ATOM     34  H   UNL     1       8.392   4.455  19.977  0.00  0.00    +0.000 HD
ATOM     35  H   UNL     1       9.559   5.720  20.132  0.00  0.00    +0.000 HD
ENDBRANCH   3  31
TORSDOF 7
ENDMDL
MODEL 6
REMARK VINA RESULT:      -7.5      4.515      7.667
REMARK  Name = 
REMARK  7 active torsions:
REMARK  status: ('A' for Active; 'I' for Inactive)
REMARK    1  A    between atoms: C_2  and  C_3
REMARK    2  A    between atoms: N_5  and  C_6
REMARK    3  A    between atoms: C_6  and  C_7
REMARK    4  A    between atoms: C_7  and  C_8
REMARK    5  A    between atoms: C_16  and  N_17
REMARK    6  A    between atoms: C_19  and  C_20
REMARK    7  A    between atoms: N_24  and  C_25
REMARK                            x       y       z     vdW  Elec       q    Type
REMARK                         _______ _______ _______ _____ _____    ______ ____
ROOT
ATOM      1  N   UNL     1       4.588   4.725  18.243  0.00  0.00    +0.000 N 
ATOM      2  C   UNL     1       5.472   5.203  19.168  0.00  0.00    +0.000 A 
ATOM      3  C   UNL     1       6.585   5.626  18.464  0.00  0.00    +0.000 A 
ATOM      4  C   UNL     1       6.255   5.399  17.097  0.00  0.00    +0.000 A 
ATOM      5  N   UNL     1       7.134   5.616  16.085  0.00  0.00    +0.000 N 
ATOM      6  N   UNL     1       5.027   4.881  16.992  0.00  0.00    +0.000 NA
ATOM      7  H   UNL     1       7.993   6.113  16.317  0.00  0.00    +0.000 HD
ENDROOT
BRANCH   5   8
ATOM      8  C   UNL     1       7.159   5.051  14.788  0.00  0.00    +0.000 A 
ATOM      9  C   UNL     1       7.895   5.604  13.728  0.00  0.00    +0.000 A 
ATOM     10  C   UNL     1       7.783   5.110  12.427  0.00  0.00    +0.000 A 
ATOM     11  C   UNL     1       6.935   4.045  12.175  0.00  0.00    +0.000 A 
ATOM     12  F   UNL     1       6.803   3.586  10.923  0.00  0.00    +0.000 F 
ATOM     13  C   UNL     1       6.212   3.454  13.203  0.00  0.00    +0.000 A 
ATOM     14  C   UNL     1       6.327   3.954  14.505  0.00  0.00    +0.000 A 
ENDBRANCH   5   8
BRANCH   1  20
ATOM     15  C   UNL     1       2.992   3.825  19.966  0.00  0.00    +0.000 C 
ATOM     16  C   UNL     1       2.801   5.182  20.676  0.00  0.00    +0.000 C 
ATOM     17  N   UNL     1       1.762   6.031  20.045  0.00  0.00    +0.000 NA
ATOM     18  C   UNL     1       1.918   6.176  18.592  0.00  0.00    +0.000 C 
ATOM     19  C   UNL     1       2.133   4.860  17.850  0.00  0.00    +0.000 C 
ATOM     20  C   UNL     1       3.290   4.063  18.465  0.00  0.00    +0.000 C 
BRANCH  15  22
ATOM     21  N   UNL     1       0.615   2.422  20.310  0.00  0.00    +0.000 NA
ATOM     22  C   UNL     1       1.693   3.058  20.154  0.00  0.00    +0.000 C 
ENDBRANCH  15  22
BRANCH  17  23
ATOM     23  C   UNL     1       1.726   7.342  20.733  0.00  0.00    +0.000 C 
BRANCH  23  24
ATOM     24  C   UNL     1       1.751   8.529  19.762  0.00  0.00    +0.000 C 
BRANCH  24  25
ATOM     25  C   UNL     1       0.419   9.295  19.625  0.00  0.00    +0.000 C 
ATOM     26  C   UNL     1       0.068  10.148  20.855  0.00  0.00    +0.000 C 
ATOM     27  C   UNL     1       1.005  11.340  21.002  0.00  0.00    +0.000 C 
ATOM     28  O   UNL     1       0.991  12.145  19.824  0.00  0.00    +0.000 OA
ATOM     29  C   UNL     1       1.397  11.431  18.656  0.00  0.00    +0.000 C 
ATOM     30  C   UNL     1       0.492  10.226  18.402  0.00  0.00    +0.000 C 
ENDBRANCH  24  25
ENDBRANCH  23  24
ENDBRANCH  17  23
ENDBRANCH   1  20
BRANCH   3  31
ATOM     31  C   UNL     1       7.820   6.160  19.007  0.00  0.00    +0.000 C 
ATOM     32  N   UNL     1       8.412   5.416  19.989  0.00  0.00    +0.000 N 
ATOM     33  O   UNL     1       8.354   7.176  18.581  0.00  0.00    +0.000 OA
ATOM     34  H   UNL     1       8.172   4.446  20.124  0.00  0.00    +0.000 HD
ATOM     35  H   UNL     1       9.333   5.716  20.284  0.00  0.00    +0.000 HD
ENDBRANCH   3  31
TORSDOF 7
ENDMDL
MODEL 7
REMARK VINA RESULT:      -7.4      1.081      1.699
REMARK  Name = 
REMARK  7 active torsions:
REMARK  status: ('A' for Active; 'I' for Inactive)
REMARK    1  A    between atoms: C_2  and  C_3
REMARK    2  A    between atoms: N_5  and  C_6
REMARK    3  A    between atoms: C_6  and  C_7
REMARK    4  A    between atoms: C_7  and  C_8
REMARK    5  A    between atoms: C_16  and  N_17
REMARK    6  A    between atoms: C_19  and  C_20
REMARK    7  A    between atoms: N_24  and  C_25
REMARK                            x       y       z     vdW  Elec       q    Type
REMARK                         _______ _______ _______ _____ _____    ______ ____
ROOT
ATOM      1  N   UNL     1      -0.067  10.215  19.264  0.00  0.00    +0.000 N 
ATOM      2  C   UNL     1      -0.305  10.587  20.557  0.00  0.00    +0.000 A 
ATOM      3  C   UNL     1       0.378   9.686  21.355  0.00  0.00    +0.000 A 
ATOM      4  C   UNL     1       1.043   8.824  20.438  0.00  0.00    +0.000 A 
ATOM      5  N   UNL     1       1.764   7.744  20.837  0.00  0.00    +0.000 N 
ATOM      6  N   UNL     1       0.779   9.186  19.179  0.00  0.00    +0.000 NA
ATOM      7  H   UNL     1       1.960   7.662  21.835  0.00  0.00    +0.000 HD
ENDROOT
BRANCH   5   8
ATOM      8  C   UNL     1       2.093   6.573  20.115  0.00  0.00    +0.000 A 
ATOM      9  C   UNL     1       1.676   5.291  20.506  0.00  0.00    +0.000 A 
ATOM     10  C   UNL     1       2.138   4.144  19.859  0.00  0.00    +0.000 A 
ATOM     11  C   UNL     1       3.022   4.271  18.800  0.00  0.00    +0.000 A 
ATOM     12  F   UNL     1       3.490   3.172  18.194  0.00  0.00    +0.000 F 
ATOM     13  C   UNL     1       3.435   5.524  18.366  0.00  0.00    +0.000 A 
ATOM     14  C   UNL     1       2.969   6.671  19.020  0.00  0.00    +0.000 A 
ENDBRANCH   5   8
BRANCH   1  20
ATOM     15  C   UNL     1      -2.045  10.210  17.710  0.00  0.00    +0.000 C 
ATOM     16  C   UNL     1      -3.044  10.689  18.783  0.00  0.00    +0.000 C 
ATOM     17  N   UNL     1      -3.074  12.162  18.939  0.00  0.00    +0.000 NA
ATOM     18  C   UNL     1      -1.746  12.768  19.102  0.00  0.00    +0.000 C 
ATOM     19  C   UNL     1      -0.716  12.304  18.076  0.00  0.00    +0.000 C 
ATOM     20  C   UNL     1      -0.637  10.774  18.025  0.00  0.00    +0.000 C 
BRANCH  15  22
ATOM     21  N   UNL     1      -2.992  11.168  15.277  0.00  0.00    +0.000 NA
ATOM     22  C   UNL     1      -2.562  10.734  16.380  0.00  0.00    +0.000 C 
ENDBRANCH  15  22
BRANCH  17  23
ATOM     23  C   UNL     1      -3.983  12.513  20.054  0.00  0.00    +0.000 C 
BRANCH  23  24
ATOM     24  C   UNL     1      -3.252  12.687  21.392  0.00  0.00    +0.000 C 
BRANCH  24  25
ATOM     25  C   UNL     1      -3.808  13.799  22.305  0.00  0.00    +0.000 C 
ATOM     26  C   UNL     1      -5.340  13.918  22.271  0.00  0.00    +0.000 C 
ATOM     27  C   UNL     1      -6.016  12.721  22.928  0.00  0.00    +0.000 C 
ATOM     28  O   UNL     1      -5.564  12.558  24.272  0.00  0.00    +0.000 OA
ATOM     29  C   UNL     1      -4.155  12.352  24.366  0.00  0.00    +0.000 C 
ATOM     30  C   UNL     1      -3.382  13.522  23.758  0.00  0.00    +0.000 C 
ENDBRANCH  24  25
ENDBRANCH  23  24
ENDBRANCH  17  23
ENDBRANCH   1  20
BRANCH   3  31
ATOM     31  C   UNL     1       0.390   9.627  22.805  0.00  0.00    +0.000 C 
ATOM     32  N   UNL     1      -0.834   9.628  23.414  0.00  0.00    +0.000 N 
ATOM     33  O   UNL     1       1.418   9.516  23.461  0.00  0.00    +0.000 OA
ATOM     34  H   UNL     1      -1.671   9.398  22.900  0.00  0.00    +0.000 HD
ATOM     35  H   UNL     1      -0.837   9.462  24.412  0.00  0.00    +0.000 HD
ENDBRANCH   3  31
TORSDOF 7
ENDMDL
MODEL 8
REMARK VINA RESULT:      -7.4      4.507      7.662
REMARK  Name = 
REMARK  7 active torsions:
REMARK  status: ('A' for Active; 'I' for Inactive)
REMARK    1  A    between atoms: C_2  and  C_3
REMARK    2  A    between atoms: N_5  and  C_6
REMARK    3  A    between atoms: C_6  and  C_7
REMARK    4  A    between atoms: C_7  and  C_8
REMARK    5  A    between atoms: C_16  and  N_17
REMARK    6  A    between atoms: C_19  and  C_20
REMARK    7  A    between atoms: N_24  and  C_25
REMARK                            x       y       z     vdW  Elec       q    Type
REMARK                         _______ _______ _______ _____ _____    ______ ____
ROOT
ATOM      1  N   UNL     1       4.650   4.938  18.042  0.00  0.00    +0.000 N 
ATOM      2  C   UNL     1       5.572   5.713  18.687  0.00  0.00    +0.000 A 
ATOM      3  C   UNL     1       6.458   6.153  17.720  0.00  0.00    +0.000 A 
ATOM      4  C   UNL     1       5.954   5.621  16.500  0.00  0.00    +0.000 A 
ATOM      5  N   UNL     1       6.599   5.767  15.314  0.00  0.00    +0.000 N 
ATOM      6  N   UNL     1       4.841   4.914  16.721  0.00  0.00    +0.000 NA
ATOM      7  H   UNL     1       7.380   6.423  15.290  0.00  0.00    +0.000 HD
ENDROOT
BRANCH   5   8
ATOM      8  C   UNL     1       6.513   4.973  14.146  0.00  0.00    +0.000 A 
ATOM      9  C   UNL     1       5.505   4.017  13.944  0.00  0.00    +0.000 A 
ATOM     10  C   UNL     1       5.531   3.149  12.852  0.00  0.00    +0.000 A 
ATOM     11  C   UNL     1       6.570   3.234  11.940  0.00  0.00    +0.000 A 
ATOM     12  F   UNL     1       6.614   2.384  10.907  0.00  0.00    +0.000 F 
ATOM     13  C   UNL     1       7.570   4.186  12.091  0.00  0.00    +0.000 A 
ATOM     14  C   UNL     1       7.539   5.054  13.189  0.00  0.00    +0.000 A 
ENDBRANCH   5   8
BRANCH   1  20
ATOM     15  C   UNL     1       3.381   4.375  20.140  0.00  0.00    +0.000 C 
ATOM     16  C   UNL     1       2.919   5.825  20.395  0.00  0.00    +0.000 C 
ATOM     17  N   UNL     1       1.686   6.184  19.655  0.00  0.00    +0.000 NA
ATOM     18  C   UNL     1       1.737   5.857  18.225  0.00  0.00    +0.000 C 
ATOM     19  C   UNL     1       2.214   4.439  17.923  0.00  0.00    +0.000 C 
ATOM     20  C   UNL     1       3.549   4.145  18.617  0.00  0.00    +0.000 C 
BRANCH  15  22
ATOM     21  N   UNL     1       1.407   2.726  21.196  0.00  0.00    +0.000 NA
ATOM     22  C   UNL     1       2.302   3.474  20.717  0.00  0.00    +0.000 C 
ENDBRANCH  15  22
BRANCH  17  23
ATOM     23  C   UNL     1       1.382   7.615  19.886  0.00  0.00    +0.000 C 
BRANCH  23  24
ATOM     24  C   UNL     1       0.923   7.906  21.320  0.00  0.00    +0.000 C 
BRANCH  24  25
ATOM     25  C   UNL     1       1.343   9.282  21.879  0.00  0.00    +0.000 C 
ATOM     26  C   UNL     1       0.995  10.457  20.951  0.00  0.00    +0.000 C 
ATOM     27  C   UNL     1      -0.509  10.689  20.873  0.00  0.00    +0.000 C 
ATOM     28  O   UNL     1      -1.057  10.908  22.173  0.00  0.00    +0.000 OA
ATOM     29  C   UNL     1      -0.845   9.809  23.059  0.00  0.00    +0.000 C 
ATOM     30  C   UNL     1       0.645   9.515  23.230  0.00  0.00    +0.000 C 
ENDBRANCH  24  25
ENDBRANCH  23  24
ENDBRANCH  17  23
ENDBRANCH   1  20
BRANCH   3  31
ATOM     31  C   UNL     1       7.647   6.961  17.918  0.00  0.00    +0.000 C 
ATOM     32  N   UNL     1       8.366   6.699  19.051  0.00  0.00    +0.000 N 
ATOM     33  O   UNL     1       8.040   7.784  17.101  0.00  0.00    +0.000 OA
ATOM     34  H   UNL     1       8.245   5.835  19.556  0.00  0.00    +0.000 HD
ATOM     35  H   UNL     1       9.258   7.169  19.133  0.00  0.00    +0.000 HD
ENDBRANCH   3  31
TORSDOF 7
ENDMDL
MODEL 9
REMARK VINA RESULT:      -7.3      0.770      1.219
REMARK  Name = 
REMARK  7 active torsions:
REMARK  status: ('A' for Active; 'I' for Inactive)
REMARK    1  A    between atoms: C_2  and  C_3
REMARK    2  A    between atoms: N_5  and  C_6
REMARK    3  A    between atoms: C_6  and  C_7
REMARK    4  A    between atoms: C_7  and  C_8
REMARK    5  A    between atoms: C_16  and  N_17
REMARK    6  A    between atoms: C_19  and  C_20
REMARK    7  A    between atoms: N_24  and  C_25
REMARK                            x       y       z     vdW  Elec       q    Type
REMARK                         _______ _______ _______ _____ _____    ______ ____
ROOT
ATOM      1  N   UNL     1      -0.082  10.225  19.218  0.00  0.00    +0.000 N 
ATOM      2  C   UNL     1      -0.335  10.604  20.506  0.00  0.00    +0.000 A 
ATOM      3  C   UNL     1       0.347   9.715  21.317  0.00  0.00    +0.000 A 
ATOM      4  C   UNL     1       1.028   8.851  20.413  0.00  0.00    +0.000 A 
ATOM      5  N   UNL     1       1.754   7.781  20.827  0.00  0.00    +0.000 N 
ATOM      6  N   UNL     1       0.773   9.203  19.148  0.00  0.00    +0.000 NA
ATOM      7  H   UNL     1       1.942   7.708  21.826  0.00  0.00    +0.000 HD
ENDROOT
BRANCH   5   8
ATOM      8  C   UNL     1       2.100   6.607  20.116  0.00  0.00    +0.000 A 
ATOM      9  C   UNL     1       1.775   5.318  20.565  0.00  0.00    +0.000 A 
ATOM     10  C   UNL     1       2.256   4.178  19.920  0.00  0.00    +0.000 A 
ATOM     11  C   UNL     1       3.067   4.318  18.806  0.00  0.00    +0.000 A 
ATOM     12  F   UNL     1       3.554   3.227  18.201  0.00  0.00    +0.000 F 
ATOM     13  C   UNL     1       3.387   5.577  18.315  0.00  0.00    +0.000 A 
ATOM     14  C   UNL     1       2.902   6.717  18.966  0.00  0.00    +0.000 A 
ENDBRANCH   5   8
BRANCH   1  20
ATOM     15  C   UNL     1      -2.030  10.166  17.627  0.00  0.00    +0.000 C 
ATOM     16  C   UNL     1      -3.063  10.612  18.683  0.00  0.00    +0.000 C 
ATOM     17  N   UNL     1      -3.139  12.083  18.841  0.00  0.00    +0.000 NA
ATOM     18  C   UNL     1      -1.833  12.727  19.030  0.00  0.00    +0.000 C 
ATOM     19  C   UNL     1      -0.770  12.297  18.022  0.00  0.00    +0.000 C 
ATOM     20  C   UNL     1      -0.645  10.770  17.970  0.00  0.00    +0.000 C 
BRANCH  15  22
ATOM     21  N   UNL     1      -2.958  11.102  15.179  0.00  0.00    +0.000 NA
ATOM     22  C   UNL     1      -2.537  10.677  16.289  0.00  0.00    +0.000 C 
ENDBRANCH  15  22
BRANCH  17  23
ATOM     23  C   UNL     1      -4.079  12.404  19.939  0.00  0.00    +0.000 C 
BRANCH  23  24
ATOM     24  C   UNL     1      -3.369  12.835  21.229  0.00  0.00    +0.000 C 
BRANCH  24  25
ATOM     25  C   UNL     1      -4.162  12.590  22.529  0.00  0.00    +0.000 C 
ATOM     26  C   UNL     1      -3.306  12.691  23.803  0.00  0.00    +0.000 C 
ATOM     27  C   UNL     1      -2.860  14.123  24.072  0.00  0.00    +0.000 C 
ATOM     28  O   UNL     1      -3.985  14.997  24.163  0.00  0.00    +0.000 OA
ATOM     29  C   UNL     1      -4.773  15.017  22.973  0.00  0.00    +0.000 C 
ATOM     30  C   UNL     1      -5.298  13.622  22.633  0.00  0.00    +0.000 C 
ENDBRANCH  24  25
ENDBRANCH  23  24
ENDBRANCH  17  23
ENDBRANCH   1  20
BRANCH   3  31
ATOM     31  C   UNL     1       0.347   9.667  22.767  0.00  0.00    +0.000 C 
ATOM     32  N   UNL     1      -0.882   9.690  23.366  0.00  0.00    +0.000 N 
ATOM     33  O   UNL     1       1.367   9.544  23.433  0.00  0.00    +0.000 OA
ATOM     34  H   UNL     1      -1.719   9.470  22.847  0.00  0.00    +0.000 HD
ATOM     35  H   UNL     1      -0.896   9.532  24.365  0.00  0.00    +0.000 HD
ENDBRANCH   3  31
TORSDOF 7
ENDMDL
