MODEL 1
REMARK VINA RESULT:      -7.5      0.000      0.000
REMARK  Name = 
REMARK  7 active torsions:
REMARK  status: ('A' for Active; 'I' for Inactive)
REMARK    1  A    between atoms: C_1  and  C_2
REMARK    2  A    between atoms: C_2  and  C_3
REMARK    3  A    between atoms: C_3  and  C_4
REMARK    4  A    between atoms: C_7  and  C_8
REMARK    5  A    between atoms: C_17  and  C_19
REMARK    6  A    between atoms: C_19  and  C_20
REMARK    7  A    between atoms: C_19  and  N_21
REMARK                            x       y       z     vdW  Elec       q    Type
REMARK                         _______ _______ _______ _____ _____    ______ ____
ROOT
ATOM      1  C   UNL     1       3.223   6.270  17.586  0.00  0.00    +0.000 C 
ATOM      2  C   UNL     1       2.922   7.779  17.494  0.00  0.00    +0.000 C 
ATOM      3  C   UNL     1       2.195   8.022  18.769  0.00  0.00    +0.000 A 
ATOM      4  C   UNL     1       1.559   9.198  19.137  0.00  0.00    +0.000 A 
ATOM      5  C   UNL     1       0.968   9.262  20.395  0.00  0.00    +0.000 A 
ATOM      6  C   UNL     1       1.031   8.160  21.259  0.00  0.00    +0.000 A 
ATOM      7  C   UNL     1       1.691   6.985  20.878  0.00  0.00    +0.000 A 
ATOM      8  C   UNL     1       2.277   6.916  19.622  0.00  0.00    +0.000 A 
ATOM      9  N   UNL     1       2.992   5.854  19.003  0.00  0.00    +0.000 N 
ATOM     10  C   UNL     1       3.205   4.611  19.584  0.00  0.00    +0.000 C 
ATOM     11  O   UNL     1       2.800   4.323  20.722  0.00  0.00    +0.000 OA
ENDROOT
BRANCH   1  15
ATOM     12  C   UNL     1       6.316   5.378  15.959  0.00  0.00    +0.000 A 
ATOM     13  C   UNL     1       6.816   5.969  17.097  0.00  0.00    +0.000 A 
ATOM     14  N   UNL     1       5.719   6.362  17.807  0.00  0.00    +0.000 N 
ATOM     15  C   UNL     1       4.602   6.012  17.084  0.00  0.00    +0.000 A 
ATOM     16  N   UNL     1       4.945   5.417  15.964  0.00  0.00    +0.000 NA
ATOM     17  H   UNL     1       5.728   6.830  18.703  0.00  0.00    +0.000 HD
BRANCH  12  18
ATOM     18  C   UNL     1       7.036   4.684  14.863  0.00  0.00    +0.000 C 
BRANCH  18  20
ATOM     19  C   UNL     1       6.601   3.731  12.565  0.00  0.00    +0.000 C 
ATOM     20  C   UNL     1       6.035   3.978  13.949  0.00  0.00    +0.000 C 
ENDBRANCH  18  20
ENDBRANCH  12  18
ENDBRANCH   1  15
BRANCH  10  21
ATOM     21  C   UNL     1       4.036   3.530  18.821  0.00  0.00    +0.000 C 
ATOM     22  C   UNL     1       3.491   2.113  18.926  0.00  0.00    +0.000 C 
BRANCH  21  23
ATOM     23  N   UNL     1       5.425   3.481  19.364  0.00  0.00    +0.000 NA
ATOM     24  H   UNL     1       5.478   2.671  19.988  0.00  0.00    +0.000 HD
ATOM     25  H   UNL     1       5.516   4.272  20.009  0.00  0.00    +0.000 HD
ENDBRANCH  21  23
ENDBRANCH  10  21
TORSDOF 5
ENDMDL
MODEL 2
REMARK VINA RESULT:      -7.0      1.511      2.379
REMARK  Name = 
REMARK  7 active torsions:
REMARK  status: ('A' for Active; 'I' for Inactive)
REMARK    1  A    between atoms: C_1  and  C_2
REMARK    2  A    between atoms: C_2  and  C_3
REMARK    3  A    between atoms: C_3  and  C_4
REMARK    4  A    between atoms: C_7  and  C_8
REMARK    5  A    between atoms: C_17  and  C_19
REMARK    6  A    between atoms: C_19  and  C_20
REMARK    7  A    between atoms: C_19  and  N_21
REMARK                            x       y       z     vdW  Elec       q    Type
REMARK                         _______ _______ _______ _____ _____    ______ ____
ROOT
ATOM      1  C   UNL     1       2.819   5.859  18.043  0.00  0.00    +0.000 C 
ATOM      2  C   UNL     1       2.794   7.368  17.732  0.00  0.00    +0.000 C 
ATOM      3  C   UNL     1       2.055   7.908  18.905  0.00  0.00    +0.000 A 
ATOM      4  C   UNL     1       1.618   9.214  19.067  0.00  0.00    +0.000 A 
ATOM      5  C   UNL     1       0.982   9.554  20.257  0.00  0.00    +0.000 A 
ATOM      6  C   UNL     1       0.804   8.592  21.260  0.00  0.00    +0.000 A 
ATOM      7  C   UNL     1       1.265   7.280  21.087  0.00  0.00    +0.000 A 
ATOM      8  C   UNL     1       1.895   6.937  19.899  0.00  0.00    +0.000 A 
ATOM      9  N   UNL     1       2.443   5.693  19.481  0.00  0.00    +0.000 N 
ATOM     10  C   UNL     1       2.402   4.527  20.234  0.00  0.00    +0.000 C 
ATOM     11  O   UNL     1       1.894   4.475  21.365  0.00  0.00    +0.000 OA
ENDROOT
BRANCH   1  15
ATOM     12  C   UNL     1       6.247   4.839  17.577  0.00  0.00    +0.000 A 
ATOM     13  C   UNL     1       5.661   4.162  16.533  0.00  0.00    +0.000 A 
ATOM     14  N   UNL     1       4.333   4.469  16.607  0.00  0.00    +0.000 N 
ATOM     15  C   UNL     1       4.155   5.305  17.687  0.00  0.00    +0.000 A 
ATOM     16  N   UNL     1       5.302   5.538  18.284  0.00  0.00    +0.000 NA
ATOM     17  H   UNL     1       3.610   4.139  15.982  0.00  0.00    +0.000 HD
BRANCH  12  18
ATOM     18  C   UNL     1       7.681   4.957  17.938  0.00  0.00    +0.000 C 
BRANCH  18  20
ATOM     19  C   UNL     1       7.999   7.458  18.092  0.00  0.00    +0.000 C 
ATOM     20  C   UNL     1       7.889   6.157  18.862  0.00  0.00    +0.000 C 
ENDBRANCH  18  20
ENDBRANCH  12  18
ENDBRANCH   1  15
BRANCH  10  21
ATOM     21  C   UNL     1       3.069   3.225  19.684  0.00  0.00    +0.000 C 
ATOM     22  C   UNL     1       2.118   2.270  18.976  0.00  0.00    +0.000 C 
BRANCH  21  23
ATOM     23  N   UNL     1       3.673   2.451  20.807  0.00  0.00    +0.000 NA
ATOM     24  H   UNL     1       3.882   3.116  21.556  0.00  0.00    +0.000 HD
ATOM     25  H   UNL     1       4.604   2.158  20.495  0.00  0.00    +0.000 HD
ENDBRANCH  21  23
ENDBRANCH  10  21
TORSDOF 5
ENDMDL
MODEL 3
REMARK VINA RESULT:      -6.9      2.627      4.875
REMARK  Name = 
REMARK  7 active torsions:
REMARK  status: ('A' for Active; 'I' for Inactive)
REMARK    1  A    between atoms: C_1  and  C_2
REMARK    2  A    between atoms: C_2  and  C_3
REMARK    3  A    between atoms: C_3  and  C_4
REMARK    4  A    between atoms: C_7  and  C_8
REMARK    5  A    between atoms: C_17  and  C_19
REMARK    6  A    between atoms: C_19  and  C_20
REMARK    7  A    between atoms: C_19  and  N_21
REMARK                            x       y       z     vdW  Elec       q    Type
REMARK                         _______ _______ _______ _____ _____    ______ ____
ROOT
ATOM      1  C   UNL     1       4.510   6.097  17.289  0.00  0.00    +0.000 C 
ATOM      2  C   UNL     1       3.547   6.237  18.484  0.00  0.00    +0.000 C 
ATOM      3  C   UNL     1       2.839   4.928  18.459  0.00  0.00    +0.000 A 
ATOM      4  C   UNL     1       1.750   4.572  19.239  0.00  0.00    +0.000 A 
ATOM      5  C   UNL     1       1.245   3.281  19.116  0.00  0.00    +0.000 A 
ATOM      6  C   UNL     1       1.839   2.374  18.229  0.00  0.00    +0.000 A 
ATOM      7  C   UNL     1       2.949   2.745  17.459  0.00  0.00    +0.000 A 
ATOM      8  C   UNL     1       3.452   4.033  17.576  0.00  0.00    +0.000 A 
ATOM      9  N   UNL     1       4.550   4.650  16.915  0.00  0.00    +0.000 N 
ATOM     10  C   UNL     1       5.332   4.028  15.950  0.00  0.00    +0.000 C 
ATOM     11  O   UNL     1       5.149   2.854  15.591  0.00  0.00    +0.000 OA
ENDROOT
BRANCH   1  15
ATOM     12  C   UNL     1       7.589   7.900  17.811  0.00  0.00    +0.000 A 
ATOM     13  C   UNL     1       7.837   6.791  18.587  0.00  0.00    +0.000 A 
ATOM     14  N   UNL     1       6.718   6.018  18.474  0.00  0.00    +0.000 N 
ATOM     15  C   UNL     1       5.832   6.677  17.651  0.00  0.00    +0.000 A 
ATOM     16  N   UNL     1       6.344   7.817  17.243  0.00  0.00    +0.000 NA
ATOM     17  H   UNL     1       6.567   5.123  18.918  0.00  0.00    +0.000 HD
BRANCH  12  18
ATOM     18  C   UNL     1       8.482   9.038  17.480  0.00  0.00    +0.000 C 
BRANCH  18  20
ATOM     19  C   UNL     1       9.346  11.175  18.512  0.00  0.00    +0.000 C 
ATOM     20  C   UNL     1       8.927   9.740  18.763  0.00  0.00    +0.000 C 
ENDBRANCH  18  20
ENDBRANCH  12  18
ENDBRANCH   1  15
BRANCH  10  21
ATOM     21  C   UNL     1       6.536   4.796  15.316  0.00  0.00    +0.000 C 
ATOM     22  C   UNL     1       6.793   4.480  13.849  0.00  0.00    +0.000 C 
BRANCH  21  23
ATOM     23  N   UNL     1       7.795   4.452  16.039  0.00  0.00    +0.000 NA
ATOM     24  H   UNL     1       8.315   3.798  15.449  0.00  0.00    +0.000 HD
ATOM     25  H   UNL     1       7.525   3.871  16.839  0.00  0.00    +0.000 HD
ENDBRANCH  21  23
ENDBRANCH  10  21
TORSDOF 5
ENDMDL
MODEL 4
REMARK VINA RESULT:      -6.8      1.352      2.606
REMARK  Name = 
REMARK  7 active torsions:
REMARK  status: ('A' for Active; 'I' for Inactive)
REMARK    1  A    between atoms: C_1  and  C_2
REMARK    2  A    between atoms: C_2  and  C_3
REMARK    3  A    between atoms: C_3  and  C_4
REMARK    4  A    between atoms: C_7  and  C_8
REMARK    5  A    between atoms: C_17  and  C_19
REMARK    6  A    between atoms: C_19  and  C_20
REMARK    7  A    between atoms: C_19  and  N_21
REMARK                            x       y       z     vdW  Elec       q    Type
REMARK                         _______ _______ _______ _____ _____    ______ ____
ROOT
ATOM      1  C   UNL     1       2.998   6.763  17.863  0.00  0.00    +0.000 C 
ATOM      2  C   UNL     1       2.611   8.248  17.727  0.00  0.00    +0.000 C 
ATOM      3  C   UNL     1       1.799   8.465  18.956  0.00  0.00    +0.000 A 
ATOM      4  C   UNL     1       1.073   9.604  19.266  0.00  0.00    +0.000 A 
ATOM      5  C   UNL     1       0.409   9.650  20.489  0.00  0.00    +0.000 A 
ATOM      6  C   UNL     1       0.490   8.567  21.375  0.00  0.00    +0.000 A 
ATOM      7  C   UNL     1       1.241   7.429  21.052  0.00  0.00    +0.000 A 
ATOM      8  C   UNL     1       1.900   7.379  19.832  0.00  0.00    +0.000 A 
ATOM      9  N   UNL     1       2.712   6.354  19.273  0.00  0.00    +0.000 N 
ATOM     10  C   UNL     1       2.968   5.135  19.888  0.00  0.00    +0.000 C 
ATOM     11  O   UNL     1       2.518   4.839  21.006  0.00  0.00    +0.000 OA
ENDROOT
BRANCH   1  15
ATOM     12  C   UNL     1       6.543   6.727  17.204  0.00  0.00    +0.000 A 
ATOM     13  C   UNL     1       6.124   5.816  16.261  0.00  0.00    +0.000 A 
ATOM     14  N   UNL     1       4.770   5.737  16.417  0.00  0.00    +0.000 N 
ATOM     15  C   UNL     1       4.416   6.583  17.444  0.00  0.00    +0.000 A 
ATOM     16  N   UNL     1       5.476   7.188  17.931  0.00  0.00    +0.000 NA
ATOM     17  H   UNL     1       4.143   5.158  15.877  0.00  0.00    +0.000 HD
BRANCH  12  18
ATOM     18  C   UNL     1       7.899   7.282  17.441  0.00  0.00    +0.000 C 
BRANCH  18  20
ATOM     19  C   UNL     1       8.796   9.296  18.672  0.00  0.00    +0.000 C 
ATOM     20  C   UNL     1       7.814   8.796  17.632  0.00  0.00    +0.000 C 
ENDBRANCH  18  20
ENDBRANCH  12  18
ENDBRANCH   1  15
BRANCH  10  21
ATOM     21  C   UNL     1       3.906   4.097  19.191  0.00  0.00    +0.000 C 
ATOM     22  C   UNL     1       3.654   2.647  19.580  0.00  0.00    +0.000 C 
BRANCH  21  23
ATOM     23  N   UNL     1       5.327   4.379  19.546  0.00  0.00    +0.000 NA
ATOM     24  H   UNL     1       5.456   4.102  20.523  0.00  0.00    +0.000 HD
ATOM     25  H   UNL     1       5.424   5.398  19.584  0.00  0.00    +0.000 HD
ENDBRANCH  21  23
ENDBRANCH  10  21
TORSDOF 5
ENDMDL
MODEL 5
REMARK VINA RESULT:      -6.7      2.553      3.558
REMARK  Name = 
REMARK  7 active torsions:
REMARK  status: ('A' for Active; 'I' for Inactive)
REMARK    1  A    between atoms: C_1  and  C_2
REMARK    2  A    between atoms: C_2  and  C_3
REMARK    3  A    between atoms: C_3  and  C_4
REMARK    4  A    between atoms: C_7  and  C_8
REMARK    5  A    between atoms: C_17  and  C_19
REMARK    6  A    between atoms: C_19  and  C_20
REMARK    7  A    between atoms: C_19  and  N_21
REMARK                            x       y       z     vdW  Elec       q    Type
REMARK                         _______ _______ _______ _____ _____    ______ ____
ROOT
ATOM      1  C   UNL     1       4.537   3.426  17.275  0.00  0.00    +0.000 C 
ATOM      2  C   UNL     1       3.067   2.992  17.110  0.00  0.00    +0.000 C 
ATOM      3  C   UNL     1       2.472   3.439  18.399  0.00  0.00    +0.000 A 
ATOM      4  C   UNL     1       1.189   3.166  18.846  0.00  0.00    +0.000 A 
ATOM      5  C   UNL     1       0.784   3.709  20.062  0.00  0.00    +0.000 A 
ATOM      6  C   UNL     1       1.661   4.516  20.798  0.00  0.00    +0.000 A 
ATOM      7  C   UNL     1       2.950   4.795  20.326  0.00  0.00    +0.000 A 
ATOM      8  C   UNL     1       3.358   4.251  19.116  0.00  0.00    +0.000 A 
ATOM      9  N   UNL     1       4.596   4.376  18.428  0.00  0.00    +0.000 N 
ATOM     10  C   UNL     1       5.688   5.087  18.906  0.00  0.00    +0.000 C 
ATOM     11  O   UNL     1       5.671   5.701  19.985  0.00  0.00    +0.000 OA
ENDROOT
BRANCH   1  15
ATOM     12  C   UNL     1       5.939   4.280  14.064  0.00  0.00    +0.000 A 
ATOM     13  C   UNL     1       5.493   5.521  14.459  0.00  0.00    +0.000 A 
ATOM     14  N   UNL     1       4.925   5.324  15.684  0.00  0.00    +0.000 N 
ATOM     15  C   UNL     1       5.033   3.985  15.987  0.00  0.00    +0.000 A 
ATOM     16  N   UNL     1       5.642   3.340  15.018  0.00  0.00    +0.000 NA
ATOM     17  H   UNL     1       4.499   6.034  16.263  0.00  0.00    +0.000 HD
BRANCH  12  18
ATOM     18  C   UNL     1       6.717   3.897  12.860  0.00  0.00    +0.000 C 
BRANCH  18  20
ATOM     19  C   UNL     1       4.592   3.349  11.611  0.00  0.00    +0.000 C 
ATOM     20  C   UNL     1       5.950   2.846  12.058  0.00  0.00    +0.000 C 
ENDBRANCH  18  20
ENDBRANCH  12  18
ENDBRANCH   1  15
BRANCH  10  21
ATOM     21  C   UNL     1       6.989   5.183  18.044  0.00  0.00    +0.000 C 
ATOM     22  C   UNL     1       8.283   4.952  18.812  0.00  0.00    +0.000 C 
BRANCH  21  23
ATOM     23  N   UNL     1       7.101   6.545  17.446  0.00  0.00    +0.000 NA
ATOM     24  H   UNL     1       8.062   6.650  17.110  0.00  0.00    +0.000 HD
ATOM     25  H   UNL     1       7.057   7.212  18.223  0.00  0.00    +0.000 HD
ENDBRANCH  21  23
ENDBRANCH  10  21
TORSDOF 5
ENDMDL
MODEL 6
REMARK VINA RESULT:      -6.2      1.873      6.142
REMARK  Name = 
REMARK  7 active torsions:
REMARK  status: ('A' for Active; 'I' for Inactive)
REMARK    1  A    between atoms: C_1  and  C_2
REMARK    2  A    between atoms: C_2  and  C_3
REMARK    3  A    between atoms: C_3  and  C_4
REMARK    4  A    between atoms: C_7  and  C_8
REMARK    5  A    between atoms: C_17  and  C_19
REMARK    6  A    between atoms: C_19  and  C_20
REMARK    7  A    between atoms: C_19  and  N_21
REMARK                            x       y       z     vdW  Elec       q    Type
REMARK                         _______ _______ _______ _____ _____    ______ ____
ROOT
ATOM      1  C   UNL     1       4.290   5.748  18.395  0.00  0.00    +0.000 C 
ATOM      2  C   UNL     1       5.465   6.506  17.748  0.00  0.00    +0.000 C 
ATOM      3  C   UNL     1       5.836   5.595  16.631  0.00  0.00    +0.000 A 
ATOM      4  C   UNL     1       6.941   5.723  15.803  0.00  0.00    +0.000 A 
ATOM      5  C   UNL     1       7.104   4.801  14.774  0.00  0.00    +0.000 A 
ATOM      6  C   UNL     1       6.162   3.780  14.587  0.00  0.00    +0.000 A 
ATOM      7  C   UNL     1       5.044   3.674  15.424  0.00  0.00    +0.000 A 
ATOM      8  C   UNL     1       4.880   4.590  16.454  0.00  0.00    +0.000 A 
ATOM      9  N   UNL     1       3.850   4.696  17.428  0.00  0.00    +0.000 N 
ATOM     10  C   UNL     1       2.780   3.818  17.535  0.00  0.00    +0.000 C 
ATOM     11  O   UNL     1       2.618   2.859  16.763  0.00  0.00    +0.000 OA
ENDROOT
BRANCH   1  15
ATOM     12  C   UNL     1       1.771   8.295  18.810  0.00  0.00    +0.000 A 
ATOM     13  C   UNL     1       1.810   7.798  20.093  0.00  0.00    +0.000 A 
ATOM     14  N   UNL     1       2.743   6.802  20.062  0.00  0.00    +0.000 N 
ATOM     15  C   UNL     1       3.228   6.720  18.777  0.00  0.00    +0.000 A 
ATOM     16  N   UNL     1       2.650   7.614  18.007  0.00  0.00    +0.000 NA
ATOM     17  H   UNL     1       3.024   6.227  20.844  0.00  0.00    +0.000 HD
BRANCH  12  18
ATOM     18  C   UNL     1       1.010   9.448  18.269  0.00  0.00    +0.000 C 
BRANCH  18  20
ATOM     19  C   UNL     1      -1.262  10.403  18.820  0.00  0.00    +0.000 C 
ATOM     20  C   UNL     1       0.106  10.030  19.355  0.00  0.00    +0.000 C 
ENDBRANCH  18  20
ENDBRANCH  12  18
ENDBRANCH   1  15
BRANCH  10  21
ATOM     21  C   UNL     1       1.687   4.056  18.626  0.00  0.00    +0.000 C 
ATOM     22  C   UNL     1       2.001   3.450  19.987  0.00  0.00    +0.000 C 
BRANCH  21  23
ATOM     23  N   UNL     1       0.396   3.450  18.192  0.00  0.00    +0.000 NA
ATOM     24  H   UNL     1       0.404   2.471  18.491  0.00  0.00    +0.000 HD
ATOM     25  H   UNL     1       0.434   3.376  17.171  0.00  0.00    +0.000 HD
ENDBRANCH  21  23
ENDBRANCH  10  21
TORSDOF 5
ENDMDL
MODEL 7
REMARK VINA RESULT:      -6.2      1.846      5.895
REMARK  Name = 
REMARK  7 active torsions:
REMARK  status: ('A' for Active; 'I' for Inactive)
REMARK    1  A    between atoms: C_1  and  C_2
REMARK    2  A    between atoms: C_2  and  C_3
REMARK    3  A    between atoms: C_3  and  C_4
REMARK    4  A    between atoms: C_7  and  C_8
REMARK    5  A    between atoms: C_17  and  C_19
REMARK    6  A    between atoms: C_19  and  C_20
REMARK    7  A    between atoms: C_19  and  N_21
REMARK                            x       y       z     vdW  Elec       q    Type
REMARK                         _______ _______ _______ _____ _____    ______ ____
ROOT
ATOM      1  C   UNL     1       4.313   5.246  18.837  0.00  0.00    +0.000 C 
ATOM      2  C   UNL     1       5.481   6.096  18.301  0.00  0.00    +0.000 C 
ATOM      3  C   UNL     1       5.837   5.370  17.052  0.00  0.00    +0.000 A 
ATOM      4  C   UNL     1       6.932   5.625  16.241  0.00  0.00    +0.000 A 
ATOM      5  C   UNL     1       7.081   4.873  15.079  0.00  0.00    +0.000 A 
ATOM      6  C   UNL     1       6.135   3.894  14.748  0.00  0.00    +0.000 A 
ATOM      7  C   UNL     1       5.027   3.659  15.571  0.00  0.00    +0.000 A 
ATOM      8  C   UNL     1       4.877   4.403  16.733  0.00  0.00    +0.000 A 
ATOM      9  N   UNL     1       3.859   4.358  17.724  0.00  0.00    +0.000 N 
ATOM     10  C   UNL     1       2.789   3.473  17.706  0.00  0.00    +0.000 C 
ATOM     11  O   UNL     1       2.616   2.645  16.798  0.00  0.00    +0.000 OA
ENDROOT
BRANCH   1  15
ATOM     12  C   UNL     1       1.858   7.740  19.710  0.00  0.00    +0.000 A 
ATOM     13  C   UNL     1       1.772   6.934  20.821  0.00  0.00    +0.000 A 
ATOM     14  N   UNL     1       2.669   5.928  20.604  0.00  0.00    +0.000 N 
ATOM     15  C   UNL     1       3.257   6.147  19.378  0.00  0.00    +0.000 A 
ATOM     16  N   UNL     1       2.777   7.238  18.824  0.00  0.00    +0.000 NA
ATOM     17  H   UNL     1       2.864   5.159  21.230  0.00  0.00    +0.000 HD
BRANCH  12  18
ATOM     18  C   UNL     1       1.185   9.032  19.429  0.00  0.00    +0.000 C 
BRANCH  18  20
ATOM     19  C   UNL     1       1.947  11.113  18.216  0.00  0.00    +0.000 C 
ATOM     20  C   UNL     1       1.712   9.619  18.119  0.00  0.00    +0.000 C 
ENDBRANCH  18  20
ENDBRANCH  12  18
ENDBRANCH   1  15
BRANCH  10  21
ATOM     21  C   UNL     1       1.710   3.538  18.835  0.00  0.00    +0.000 C 
ATOM     22  C   UNL     1       1.975   2.627  20.026  0.00  0.00    +0.000 C 
BRANCH  21  23
ATOM     23  N   UNL     1       0.382   3.133  18.292  0.00  0.00    +0.000 NA
ATOM     24  H   UNL     1      -0.305   3.266  19.038  0.00  0.00    +0.000 HD
ATOM     25  H   UNL     1       0.406   2.114  18.184  0.00  0.00    +0.000 HD
ENDBRANCH  21  23
ENDBRANCH  10  21
TORSDOF 5
ENDMDL
MODEL 8
REMARK VINA RESULT:      -6.2      1.571      2.453
REMARK  Name = 
REMARK  7 active torsions:
REMARK  status: ('A' for Active; 'I' for Inactive)
REMARK    1  A    between atoms: C_1  and  C_2
REMARK    2  A    between atoms: C_2  and  C_3
REMARK    3  A    between atoms: C_3  and  C_4
REMARK    4  A    between atoms: C_7  and  C_8
REMARK    5  A    between atoms: C_17  and  C_19
REMARK    6  A    between atoms: C_19  and  C_20
REMARK    7  A    between atoms: C_19  and  N_21
REMARK                            x       y       z     vdW  Elec       q    Type
REMARK                         _______ _______ _______ _____ _____    ______ ____
ROOT
ATOM      1  C   UNL     1       2.661   7.150  17.884  0.00  0.00    +0.000 C 
ATOM      2  C   UNL     1       2.399   8.667  17.820  0.00  0.00    +0.000 C 
ATOM      3  C   UNL     1       1.663   8.903  19.091  0.00  0.00    +0.000 A 
ATOM      4  C   UNL     1       1.052  10.087  19.476  0.00  0.00    +0.000 A 
ATOM      5  C   UNL     1       0.449  10.140  20.729  0.00  0.00    +0.000 A 
ATOM      6  C   UNL     1       0.474   9.020  21.571  0.00  0.00    +0.000 A 
ATOM      7  C   UNL     1       1.108   7.836  21.173  0.00  0.00    +0.000 A 
ATOM      8  C   UNL     1       1.707   7.778  19.922  0.00  0.00    +0.000 A 
ATOM      9  N   UNL     1       2.403   6.711  19.290  0.00  0.00    +0.000 N 
ATOM     10  C   UNL     1       2.578   5.452  19.848  0.00  0.00    +0.000 C 
ATOM     11  O   UNL     1       2.153   5.151  20.975  0.00  0.00    +0.000 OA
ENDROOT
BRANCH   1  15
ATOM     12  C   UNL     1       6.156   6.853  17.045  0.00  0.00    +0.000 A 
ATOM     13  C   UNL     1       5.623   5.982  16.123  0.00  0.00    +0.000 A 
ATOM     14  N   UNL     1       4.277   6.002  16.348  0.00  0.00    +0.000 N 
ATOM     15  C   UNL     1       4.038   6.867  17.393  0.00  0.00    +0.000 A 
ATOM     16  N   UNL     1       5.164   7.389  17.826  0.00  0.00    +0.000 NA
ATOM     17  H   UNL     1       3.581   5.474  15.840  0.00  0.00    +0.000 HD
BRANCH  12  18
ATOM     18  C   UNL     1       7.559   7.305  17.213  0.00  0.00    +0.000 C 
BRANCH  18  20
ATOM     19  C   UNL     1       7.819   5.559  19.019  0.00  0.00    +0.000 C 
ATOM     20  C   UNL     1       8.034   7.009  18.636  0.00  0.00    +0.000 C 
ENDBRANCH  18  20
ENDBRANCH  12  18
ENDBRANCH   1  15
BRANCH  10  21
ATOM     21  C   UNL     1       3.391   4.366  19.072  0.00  0.00    +0.000 C 
ATOM     22  C   UNL     1       2.557   3.463  18.175  0.00  0.00    +0.000 C 
BRANCH  21  23
ATOM     23  N   UNL     1       4.084   3.465  20.037  0.00  0.00    +0.000 NA
ATOM     24  H   UNL     1       5.030   3.306  19.680  0.00  0.00    +0.000 HD
ATOM     25  H   UNL     1       3.648   2.542  19.943  0.00  0.00    +0.000 HD
ENDBRANCH  21  23
ENDBRANCH  10  21
TORSDOF 5
ENDMDL
MODEL 9
REMARK VINA RESULT:      -6.1      2.534      4.574
REMARK  Name = 
REMARK  7 active torsions:
REMARK  status: ('A' for Active; 'I' for Inactive)
REMARK    1  A    between atoms: C_1  and  C_2
REMARK    2  A    between atoms: C_2  and  C_3
REMARK    3  A    between atoms: C_3  and  C_4
REMARK    4  A    between atoms: C_7  and  C_8
REMARK    5  A    between atoms: C_17  and  C_19
REMARK    6  A    between atoms: C_19  and  C_20
REMARK    7  A    between atoms: C_19  and  N_21
REMARK                            x       y       z     vdW  Elec       q    Type
REMARK                         _______ _______ _______ _____ _____    ______ ____
ROOT
ATOM      1  C   UNL     1       2.222   7.079  20.460  0.00  0.00    +0.000 C 
ATOM      2  C   UNL     1       1.003   7.676  21.190  0.00  0.00    +0.000 C 
ATOM      3  C   UNL     1       0.686   8.854  20.337  0.00  0.00    +0.000 A 
ATOM      4  C   UNL     1      -0.245   9.842  20.620  0.00  0.00    +0.000 A 
ATOM      5  C   UNL     1      -0.445  10.848  19.679  0.00  0.00    +0.000 A 
ATOM      6  C   UNL     1       0.278  10.843  18.479  0.00  0.00    +0.000 A 
ATOM      7  C   UNL     1       1.205   9.830  18.203  0.00  0.00    +0.000 A 
ATOM      8  C   UNL     1       1.410   8.827  19.140  0.00  0.00    +0.000 A 
ATOM      9  N   UNL     1       2.282   7.705  19.103  0.00  0.00    +0.000 N 
ATOM     10  C   UNL     1       3.157   7.428  18.062  0.00  0.00    +0.000 C 
ATOM     11  O   UNL     1       3.241   8.138  17.048  0.00  0.00    +0.000 OA
ENDROOT
BRANCH   1  15
ATOM     12  C   UNL     1       1.678   3.548  19.966  0.00  0.00    +0.000 A 
ATOM     13  C   UNL     1       2.275   3.518  21.205  0.00  0.00    +0.000 A 
ATOM     14  N   UNL     1       2.540   4.823  21.506  0.00  0.00    +0.000 N 
ATOM     15  C   UNL     1       2.110   5.594  20.450  0.00  0.00    +0.000 A 
ATOM     16  N   UNL     1       1.587   4.838  19.510  0.00  0.00    +0.000 NA
ATOM     17  H   UNL     1       2.976   5.160  22.353  0.00  0.00    +0.000 HD
BRANCH  12  18
ATOM     18  C   UNL     1       1.091   2.438  19.175  0.00  0.00    +0.000 C 
BRANCH  18  20
ATOM     19  C   UNL     1       3.359   1.627  18.415  0.00  0.00    +0.000 C 
ATOM     20  C   UNL     1       1.992   2.117  17.982  0.00  0.00    +0.000 C 
ENDBRANCH  18  20
ENDBRANCH  12  18
ENDBRANCH   1  15
BRANCH  10  21
ATOM     21  C   UNL     1       4.045   6.143  18.116  0.00  0.00    +0.000 C 
ATOM     22  C   UNL     1       5.493   6.348  17.692  0.00  0.00    +0.000 C 
BRANCH  21  23
ATOM     23  N   UNL     1       3.490   5.104  17.202  0.00  0.00    +0.000 NA
ATOM     24  H   UNL     1       3.188   5.581  16.348  0.00  0.00    +0.000 HD
ATOM     25  H   UNL     1       2.606   4.792  17.614  0.00  0.00    +0.000 HD
ENDBRANCH  21  23
ENDBRANCH  10  21
TORSDOF 5
ENDMDL
