MODEL 1
REMARK VINA RESULT:      -7.2      0.000      0.000
REMARK  Name = 
REMARK  9 active torsions:
REMARK  status: ('A' for Active; 'I' for Inactive)
REMARK    1  A    between atoms: C_1  and  C_2
REMARK    2  A    between atoms: C_6  and  C_7
REMARK    3  A    between atoms: C_8  and  N_9
REMARK    4  A    between atoms: C_13  and  C_14
REMARK    5  A    between atoms: C_14  and  C_15
REMARK    6  A    between atoms: C_14  and  N_20
REMARK    7  A    between atoms: N_23  and  C_24
REMARK    8  A    between atoms: C_24  and  C_25
REMARK    9  A    between atoms: C_26  and  C_27
REMARK                            x       y       z     vdW  Elec       q    Type
REMARK                         _______ _______ _______ _____ _____    ______ ____
ROOT
ATOM      1  C   UNL     1       0.043  13.175  18.826  0.00  0.00    +0.000 C 
ENDROOT
BRANCH   1   2
ATOM      2  N   UNL     1       1.119  12.291  19.379  0.00  0.00    +0.000 NA
ATOM      3  C   UNL     1       0.693  11.447  20.518  0.00  0.00    +0.000 C 
ATOM      4  C   UNL     1       0.386   9.939  20.286  0.00  0.00    +0.000 C 
ATOM      5  N   UNL     1       1.334   9.304  19.405  0.00  0.00    +0.000 NA
ATOM      6  C   UNL     1       1.680  10.009  18.194  0.00  0.00    +0.000 C 
ATOM      7  C   UNL     1       1.963  11.527  18.430  0.00  0.00    +0.000 C 
BRANCH   5   8
ATOM      8  C   UNL     1       1.820   7.970  19.668  0.00  0.00    +0.000 C 
BRANCH   8   9
ATOM      9  C   UNL     1       2.404   7.285  18.452  0.00  0.00    +0.000 C 
ATOM     10  C   UNL     1       3.397   6.381  18.505  0.00  0.00    +0.000 C 
BRANCH  10  11
ATOM     11  C   UNL     1       4.147   5.768  17.404  0.00  0.00    +0.000 A 
ATOM     12  C   UNL     1       4.787   6.650  16.518  0.00  0.00    +0.000 A 
ATOM     13  C   UNL     1       5.486   6.176  15.411  0.00  0.00    +0.000 A 
ATOM     14  C   UNL     1       5.566   4.807  15.182  0.00  0.00    +0.000 A 
ATOM     15  C   UNL     1       4.959   3.917  16.068  0.00  0.00    +0.000 A 
ATOM     16  C   UNL     1       4.255   4.394  17.180  0.00  0.00    +0.000 A 
ENDBRANCH  10  11
ENDBRANCH   8   9
ENDBRANCH   5   8
ENDBRANCH   1   2
BRANCH   1  21
ATOM     17  N   UNL     1      -2.203  13.160  20.332  0.00  0.00    +0.000 N 
ATOM     18  N   UNL     1      -3.430  12.629  20.071  0.00  0.00    +0.000 NA
ATOM     19  N   UNL     1      -3.346  11.908  18.978  0.00  0.00    +0.000 NA
ATOM     20  N   UNL     1      -2.095  11.953  18.475  0.00  0.00    +0.000 NA
ATOM     21  C   UNL     1      -1.369  12.756  19.245  0.00  0.00    +0.000 A 
BRANCH  17  29
ATOM     22  C   UNL     1      -3.310  16.082  20.657  0.00  0.00    +0.000 C 
ATOM     23  C   UNL     1      -2.489  15.292  21.657  0.00  0.00    +0.000 A 
ATOM     24  C   UNL     1      -2.260  16.039  22.841  0.00  0.00    +0.000 A 
ATOM     25  C   UNL     1      -1.628  15.472  23.933  0.00  0.00    +0.000 A 
ATOM     26  C   UNL     1      -1.326  14.134  23.907  0.00  0.00    +0.000 A 
ATOM     27  C   UNL     1      -1.614  13.321  22.774  0.00  0.00    +0.000 A 
ATOM     28  C   UNL     1      -1.653  11.840  23.072  0.00  0.00    +0.000 C 
ATOM     29  C   UNL     1      -2.064  13.914  21.570  0.00  0.00    +0.000 A 
ENDBRANCH  17  29
ENDBRANCH   1  21
BRANCH   1  30
ATOM     30  C   UNL     1       0.366  14.644  19.159  0.00  0.00    +0.000 A 
ATOM     31  C   UNL     1      -0.155  15.809  18.607  0.00  0.00    +0.000 A 
ATOM     32  C   UNL     1       0.039  16.947  19.444  0.00  0.00    +0.000 A 
ATOM     33  C   UNL     1       0.846  16.657  20.519  0.00  0.00    +0.000 A 
ATOM     34  S   UNL     1       1.402  15.038  20.480  0.00  0.00    +0.000 S 
ENDBRANCH   1  30
TORSDOF 7
ENDMDL
MODEL 2
REMARK VINA RESULT:      -7.1      1.746      2.419
REMARK  Name = 
REMARK  9 active torsions:
REMARK  status: ('A' for Active; 'I' for Inactive)
REMARK    1  A    between atoms: C_1  and  C_2
REMARK    2  A    between atoms: C_6  and  C_7
REMARK    3  A    between atoms: C_8  and  N_9
REMARK    4  A    between atoms: C_13  and  C_14
REMARK    5  A    between atoms: C_14  and  C_15
REMARK    6  A    between atoms: C_14  and  N_20
REMARK    7  A    between atoms: N_23  and  C_24
REMARK    8  A    between atoms: C_24  and  C_25
REMARK    9  A    between atoms: C_26  and  C_27
REMARK                            x       y       z     vdW  Elec       q    Type
REMARK                         _______ _______ _______ _____ _____    ______ ____
ROOT
ATOM      1  C   UNL     1      -0.194  13.165  18.824  0.00  0.00    +0.000 C 
ENDROOT
BRANCH   1   2
ATOM      2  N   UNL     1       0.881  12.241  19.310  0.00  0.00    +0.000 NA
ATOM      3  C   UNL     1       0.419  10.866  19.607  0.00  0.00    +0.000 C 
ATOM      4  C   UNL     1       0.707   9.722  18.592  0.00  0.00    +0.000 C 
ATOM      5  N   UNL     1       2.034   9.789  18.035  0.00  0.00    +0.000 NA
ATOM      6  C   UNL     1       2.493  11.080  17.582  0.00  0.00    +0.000 C 
ATOM      7  C   UNL     1       2.179  12.229  18.594  0.00  0.00    +0.000 C 
BRANCH   5   8
ATOM      8  C   UNL     1       2.819   8.594  17.829  0.00  0.00    +0.000 C 
BRANCH   8   9
ATOM      9  C   UNL     1       2.118   7.324  18.261  0.00  0.00    +0.000 C 
ATOM     10  C   UNL     1       2.601   6.478  19.187  0.00  0.00    +0.000 C 
BRANCH  10  11
ATOM     11  C   UNL     1       2.104   5.156  19.578  0.00  0.00    +0.000 A 
ATOM     12  C   UNL     1       2.251   4.811  20.932  0.00  0.00    +0.000 A 
ATOM     13  C   UNL     1       1.857   3.560  21.401  0.00  0.00    +0.000 A 
ATOM     14  C   UNL     1       1.298   2.639  20.522  0.00  0.00    +0.000 A 
ATOM     15  C   UNL     1       1.121   2.978  19.181  0.00  0.00    +0.000 A 
ATOM     16  C   UNL     1       1.518   4.234  18.708  0.00  0.00    +0.000 A 
ENDBRANCH  10  11
ENDBRANCH   8   9
ENDBRANCH   5   8
ENDBRANCH   1   2
BRANCH   1  21
ATOM     17  N   UNL     1      -2.461  13.062  20.296  0.00  0.00    +0.000 N 
ATOM     18  N   UNL     1      -3.678  12.530  19.995  0.00  0.00    +0.000 NA
ATOM     19  N   UNL     1      -3.570  11.856  18.874  0.00  0.00    +0.000 NA
ATOM     20  N   UNL     1      -2.313  11.936  18.392  0.00  0.00    +0.000 NA
ATOM     21  C   UNL     1      -1.607  12.714  19.205  0.00  0.00    +0.000 A 
BRANCH  17  29
ATOM     22  C   UNL     1      -3.826  15.846  20.805  0.00  0.00    +0.000 C 
ATOM     23  C   UNL     1      -2.897  15.092  21.736  0.00  0.00    +0.000 A 
ATOM     24  C   UNL     1      -2.696  15.798  22.950  0.00  0.00    +0.000 A 
ATOM     25  C   UNL     1      -1.974  15.243  23.991  0.00  0.00    +0.000 A 
ATOM     26  C   UNL     1      -1.549  13.943  23.886  0.00  0.00    +0.000 A 
ATOM     27  C   UNL     1      -1.800  13.162  22.723  0.00  0.00    +0.000 A 
ATOM     28  C   UNL     1      -1.689  11.671  22.944  0.00  0.00    +0.000 C 
ATOM     29  C   UNL     1      -2.348  13.766  21.566  0.00  0.00    +0.000 A 
ENDBRANCH  17  29
ENDBRANCH   1  21
BRANCH   1  30
ATOM     30  C   UNL     1       0.127  14.604  19.272  0.00  0.00    +0.000 A 
ATOM     31  C   UNL     1      -0.319  15.811  18.747  0.00  0.00    +0.000 A 
ATOM     32  C   UNL     1      -0.179  16.894  19.665  0.00  0.00    +0.000 A 
ATOM     33  C   UNL     1       0.522  16.521  20.788  0.00  0.00    +0.000 A 
ATOM     34  S   UNL     1       1.047  14.894  20.702  0.00  0.00    +0.000 S 
ENDBRANCH   1  30
TORSDOF 7
ENDMDL
MODEL 3
REMARK VINA RESULT:      -7.1      2.068      3.925
REMARK  Name = 
REMARK  9 active torsions:
REMARK  status: ('A' for Active; 'I' for Inactive)
REMARK    1  A    between atoms: C_1  and  C_2
REMARK    2  A    between atoms: C_6  and  C_7
REMARK    3  A    between atoms: C_8  and  N_9
REMARK    4  A    between atoms: C_13  and  C_14
REMARK    5  A    between atoms: C_14  and  C_15
REMARK    6  A    between atoms: C_14  and  N_20
REMARK    7  A    between atoms: N_23  and  C_24
REMARK    8  A    between atoms: C_24  and  C_25
REMARK    9  A    between atoms: C_26  and  C_27
REMARK                            x       y       z     vdW  Elec       q    Type
REMARK                         _______ _______ _______ _____ _____    ______ ____
ROOT
ATOM      1  C   UNL     1      -0.319  11.888  21.581  0.00  0.00    +0.000 C 
ENDROOT
BRANCH   1   2
ATOM      2  N   UNL     1      -0.505  10.403  21.637  0.00  0.00    +0.000 NA
ATOM      3  C   UNL     1      -0.402   9.722  20.326  0.00  0.00    +0.000 C 
ATOM      4  C   UNL     1       0.902   8.957  19.956  0.00  0.00    +0.000 C 
ATOM      5  N   UNL     1       1.434   8.195  21.058  0.00  0.00    +0.000 NA
ATOM      6  C   UNL     1       1.504   8.854  22.340  0.00  0.00    +0.000 C 
ATOM      7  C   UNL     1       0.202   9.641  22.694  0.00  0.00    +0.000 C 
BRANCH   5   8
ATOM      8  C   UNL     1       1.983   6.874  20.856  0.00  0.00    +0.000 C 
BRANCH   8   9
ATOM      9  C   UNL     1       2.492   6.636  19.451  0.00  0.00    +0.000 C 
ATOM     10  C   UNL     1       3.475   5.772  19.145  0.00  0.00    +0.000 C 
BRANCH  10  11
ATOM     11  C   UNL     1       4.157   5.563  17.864  0.00  0.00    +0.000 A 
ATOM     12  C   UNL     1       4.551   6.721  17.172  0.00  0.00    +0.000 A 
ATOM     13  C   UNL     1       5.162   6.638  15.924  0.00  0.00    +0.000 A 
ATOM     14  C   UNL     1       5.400   5.393  15.355  0.00  0.00    +0.000 A 
ATOM     15  C   UNL     1       5.039   4.234  16.042  0.00  0.00    +0.000 A 
ATOM     16  C   UNL     1       4.423   4.316  17.296  0.00  0.00    +0.000 A 
ENDBRANCH  10  11
ENDBRANCH   8   9
ENDBRANCH   5   8
ENDBRANCH   1   2
BRANCH   1  21
ATOM     17  N   UNL     1      -1.280  12.601  19.155  0.00  0.00    +0.000 N 
ATOM     18  N   UNL     1      -0.714  13.360  18.176  0.00  0.00    +0.000 NA
ATOM     19  N   UNL     1       0.539  13.584  18.498  0.00  0.00    +0.000 NA
ATOM     20  N   UNL     1       0.832  13.016  19.686  0.00  0.00    +0.000 NA
ATOM     21  C   UNL     1      -0.272  12.446  20.155  0.00  0.00    +0.000 A 
BRANCH  17  29
ATOM     22  C   UNL     1      -3.759  14.101  20.370  0.00  0.00    +0.000 C 
ATOM     23  C   UNL     1      -3.761  12.802  19.589  0.00  0.00    +0.000 A 
ATOM     24  C   UNL     1      -5.077  12.295  19.431  0.00  0.00    +0.000 A 
ATOM     25  C   UNL     1      -5.326  11.178  18.655  0.00  0.00    +0.000 A 
ATOM     26  C   UNL     1      -4.297  10.627  17.934  0.00  0.00    +0.000 A 
ATOM     27  C   UNL     1      -2.975  11.151  17.990  0.00  0.00    +0.000 A 
ATOM     28  C   UNL     1      -2.102  10.746  16.825  0.00  0.00    +0.000 C 
ATOM     29  C   UNL     1      -2.648  12.155  18.932  0.00  0.00    +0.000 A 
ENDBRANCH  17  29
ENDBRANCH   1  21
BRANCH   1  30
ATOM     30  C   UNL     1      -1.378  12.571  22.467  0.00  0.00    +0.000 A 
ATOM     31  C   UNL     1      -2.564  12.058  22.979  0.00  0.00    +0.000 A 
ATOM     32  C   UNL     1      -3.052  12.809  24.089  0.00  0.00    +0.000 A 
ATOM     33  C   UNL     1      -2.328  13.962  24.282  0.00  0.00    +0.000 A 
ATOM     34  S   UNL     1      -1.107  14.153  23.097  0.00  0.00    +0.000 S 
ENDBRANCH   1  30
TORSDOF 7
ENDMDL
MODEL 4
REMARK VINA RESULT:      -6.9      1.859      2.572
REMARK  Name = 
REMARK  9 active torsions:
REMARK  status: ('A' for Active; 'I' for Inactive)
REMARK    1  A    between atoms: C_1  and  C_2
REMARK    2  A    between atoms: C_6  and  C_7
REMARK    3  A    between atoms: C_8  and  N_9
REMARK    4  A    between atoms: C_13  and  C_14
REMARK    5  A    between atoms: C_14  and  C_15
REMARK    6  A    between atoms: C_14  and  N_20
REMARK    7  A    between atoms: N_23  and  C_24
REMARK    8  A    between atoms: C_24  and  C_25
REMARK    9  A    between atoms: C_26  and  C_27
REMARK                            x       y       z     vdW  Elec       q    Type
REMARK                         _______ _______ _______ _____ _____    ______ ____
ROOT
ATOM      1  C   UNL     1      -0.853  13.029  19.336  0.00  0.00    +0.000 C 
ENDROOT
BRANCH   1   2
ATOM      2  N   UNL     1       0.059  11.921  19.768  0.00  0.00    +0.000 NA
ATOM      3  C   UNL     1      -0.436  10.562  19.454  0.00  0.00    +0.000 C 
ATOM      4  C   UNL     1       0.158   9.788  18.241  0.00  0.00    +0.000 C 
ATOM      5  N   UNL     1       1.588   9.934  18.130  0.00  0.00    +0.000 NA
ATOM      6  C   UNL     1       2.126  11.265  18.276  0.00  0.00    +0.000 C 
ATOM      7  C   UNL     1       1.508  12.046  19.479  0.00  0.00    +0.000 C 
BRANCH   5   8
ATOM      8  C   UNL     1       2.427   8.815  17.769  0.00  0.00    +0.000 C 
BRANCH   8   9
ATOM      9  C   UNL     1       2.279   7.623  18.689  0.00  0.00    +0.000 C 
ATOM     10  C   UNL     1       2.283   6.346  18.269  0.00  0.00    +0.000 C 
BRANCH  10  11
ATOM     11  C   UNL     1       1.998   5.124  19.027  0.00  0.00    +0.000 A 
ATOM     12  C   UNL     1       1.607   4.003  18.276  0.00  0.00    +0.000 A 
ATOM     13  C   UNL     1       1.266   2.805  18.899  0.00  0.00    +0.000 A 
ATOM     14  C   UNL     1       1.324   2.708  20.284  0.00  0.00    +0.000 A 
ATOM     15  C   UNL     1       1.737   3.804  21.041  0.00  0.00    +0.000 A 
ATOM     16  C   UNL     1       2.078   5.009  20.416  0.00  0.00    +0.000 A 
ENDBRANCH  10  11
ENDBRANCH   8   9
ENDBRANCH   5   8
ENDBRANCH   1   2
BRANCH   1  21
ATOM     17  N   UNL     1      -3.178  13.331  20.686  0.00  0.00    +0.000 N 
ATOM     18  N   UNL     1      -4.434  12.910  20.372  0.00  0.00    +0.000 NA
ATOM     19  N   UNL     1      -4.357  12.117  19.329  0.00  0.00    +0.000 NA
ATOM     20  N   UNL     1      -3.080  12.006  18.910  0.00  0.00    +0.000 NA
ATOM     21  C   UNL     1      -2.324  12.779  19.682  0.00  0.00    +0.000 A 
BRANCH  17  29
ATOM     22  C   UNL     1      -3.854  16.399  20.730  0.00  0.00    +0.000 C 
ATOM     23  C   UNL     1      -3.255  15.572  21.850  0.00  0.00    +0.000 A 
ATOM     24  C   UNL     1      -3.023  16.360  23.007  0.00  0.00    +0.000 A 
ATOM     25  C   UNL     1      -2.585  15.787  24.188  0.00  0.00    +0.000 A 
ATOM     26  C   UNL     1      -2.489  14.420  24.268  0.00  0.00    +0.000 A 
ATOM     27  C   UNL     1      -2.793  13.579  23.161  0.00  0.00    +0.000 A 
ATOM     28  C   UNL     1      -3.083  12.145  23.537  0.00  0.00    +0.000 C 
ATOM     29  C   UNL     1      -3.038  14.143  21.886  0.00  0.00    +0.000 A 
ENDBRANCH  17  29
ENDBRANCH   1  21
BRANCH   1  30
ATOM     30  C   UNL     1      -0.321  14.370  19.874  0.00  0.00    +0.000 A 
ATOM     31  C   UNL     1       0.226  14.669  21.117  0.00  0.00    +0.000 A 
ATOM     32  C   UNL     1       0.996  15.869  21.103  0.00  0.00    +0.000 A 
ATOM     33  C   UNL     1       0.875  16.539  19.908  0.00  0.00    +0.000 A 
ATOM     34  S   UNL     1      -0.202  15.745  18.839  0.00  0.00    +0.000 S 
ENDBRANCH   1  30
TORSDOF 7
ENDMDL
MODEL 5
REMARK VINA RESULT:      -6.9      2.307      3.457
REMARK  Name = 
REMARK  9 active torsions:
REMARK  status: ('A' for Active; 'I' for Inactive)
REMARK    1  A    between atoms: C_1  and  C_2
REMARK    2  A    between atoms: C_6  and  C_7
REMARK    3  A    between atoms: C_8  and  N_9
REMARK    4  A    between atoms: C_13  and  C_14
REMARK    5  A    between atoms: C_14  and  C_15
REMARK    6  A    between atoms: C_14  and  N_20
REMARK    7  A    between atoms: N_23  and  C_24
REMARK    8  A    between atoms: C_24  and  C_25
REMARK    9  A    between atoms: C_26  and  C_27
REMARK                            x       y       z     vdW  Elec       q    Type
REMARK                         _______ _______ _______ _____ _____    ______ ____
ROOT
ATOM      1  C   UNL     1      -1.491  12.782  20.668  0.00  0.00    +0.000 C 
ENDROOT
BRANCH   1   2
ATOM      2  N   UNL     1      -0.414  11.744  20.746  0.00  0.00    +0.000 NA
ATOM      3  C   UNL     1      -0.770  10.445  20.131  0.00  0.00    +0.000 C 
ATOM      4  C   UNL     1      -0.209  10.080  18.725  0.00  0.00    +0.000 C 
ATOM      5  N   UNL     1       1.174  10.449  18.562  0.00  0.00    +0.000 NA
ATOM      6  C   UNL     1       1.560  11.767  19.005  0.00  0.00    +0.000 C 
ATOM      7  C   UNL     1       0.973  12.137  20.404  0.00  0.00    +0.000 C 
BRANCH   5   8
ATOM      8  C   UNL     1       2.103   9.581  17.876  0.00  0.00    +0.000 C 
BRANCH   8   9
ATOM      9  C   UNL     1       2.162   8.181  18.447  0.00  0.00    +0.000 C 
ATOM     10  C   UNL     1       2.826   7.163  17.873  0.00  0.00    +0.000 C 
BRANCH  10  11
ATOM     11  C   UNL     1       2.834   5.743  18.237  0.00  0.00    +0.000 A 
ATOM     12  C   UNL     1       3.910   5.309  19.029  0.00  0.00    +0.000 A 
ATOM     13  C   UNL     1       4.041   3.971  19.391  0.00  0.00    +0.000 A 
ATOM     14  C   UNL     1       3.089   3.048  18.975  0.00  0.00    +0.000 A 
ATOM     15  C   UNL     1       2.001   3.469  18.211  0.00  0.00    +0.000 A 
ATOM     16  C   UNL     1       1.869   4.813  17.845  0.00  0.00    +0.000 A 
ENDBRANCH  10  11
ENDBRANCH   8   9
ENDBRANCH   5   8
ENDBRANCH   1   2
BRANCH   1  21
ATOM     17  N   UNL     1      -3.913  13.035  21.845  0.00  0.00    +0.000 N 
ATOM     18  N   UNL     1      -4.388  12.489  22.999  0.00  0.00    +0.000 NA
ATOM     19  N   UNL     1      -3.390  11.911  23.626  0.00  0.00    +0.000 NA
ATOM     20  N   UNL     1      -2.251  12.030  22.915  0.00  0.00    +0.000 NA
ATOM     21  C   UNL     1      -2.534  12.667  21.784  0.00  0.00    +0.000 A 
BRANCH  17  29
ATOM     22  C   UNL     1      -6.482  11.770  20.551  0.00  0.00    +0.000 C 
ATOM     23  C   UNL     1      -5.968  13.186  20.383  0.00  0.00    +0.000 A 
ATOM     24  C   UNL     1      -6.818  13.948  19.540  0.00  0.00    +0.000 A 
ATOM     25  C   UNL     1      -6.602  15.299  19.338  0.00  0.00    +0.000 A 
ATOM     26  C   UNL     1      -5.620  15.931  20.059  0.00  0.00    +0.000 A 
ATOM     27  C   UNL     1      -4.796  15.228  20.982  0.00  0.00    +0.000 A 
ATOM     28  C   UNL     1      -4.114  16.114  21.998  0.00  0.00    +0.000 C 
ATOM     29  C   UNL     1      -4.853  13.816  21.053  0.00  0.00    +0.000 A 
ENDBRANCH  17  29
ENDBRANCH   1  21
BRANCH   1  30
ATOM     30  C   UNL     1      -0.850  14.180  20.577  0.00  0.00    +0.000 A 
ATOM     31  C   UNL     1      -0.650  14.988  19.464  0.00  0.00    +0.000 A 
ATOM     32  C   UNL     1      -0.444  16.357  19.810  0.00  0.00    +0.000 A 
ATOM     33  C   UNL     1      -0.319  16.525  21.169  0.00  0.00    +0.000 A 
ATOM     34  S   UNL     1      -0.399  15.033  22.007  0.00  0.00    +0.000 S 
ENDBRANCH   1  30
TORSDOF 7
ENDMDL
MODEL 6
REMARK VINA RESULT:      -6.9      3.110      4.269
REMARK  Name = 
REMARK  9 active torsions:
REMARK  status: ('A' for Active; 'I' for Inactive)
REMARK    1  A    between atoms: C_1  and  C_2
REMARK    2  A    between atoms: C_6  and  C_7
REMARK    3  A    between atoms: C_8  and  N_9
REMARK    4  A    between atoms: C_13  and  C_14
REMARK    5  A    between atoms: C_14  and  C_15
REMARK    6  A    between atoms: C_14  and  N_20
REMARK    7  A    between atoms: N_23  and  C_24
REMARK    8  A    between atoms: C_24  and  C_25
REMARK    9  A    between atoms: C_26  and  C_27
REMARK                            x       y       z     vdW  Elec       q    Type
REMARK                         _______ _______ _______ _____ _____    ______ ____
ROOT
ATOM      1  C   UNL     1      -2.568  12.471  19.580  0.00  0.00    +0.000 C 
ENDROOT
BRANCH   1   2
ATOM      2  N   UNL     1      -1.627  11.350  19.898  0.00  0.00    +0.000 NA
ATOM      3  C   UNL     1      -1.538  10.309  18.850  0.00  0.00    +0.000 C 
ATOM      4  C   UNL     1      -0.311  10.286  17.891  0.00  0.00    +0.000 C 
ATOM      5  N   UNL     1       0.933  10.547  18.569  0.00  0.00    +0.000 NA
ATOM      6  C   UNL     1       0.957  11.651  19.499  0.00  0.00    +0.000 C 
ATOM      7  C   UNL     1      -0.289  11.683  20.440  0.00  0.00    +0.000 C 
BRANCH   5   8
ATOM      8  C   UNL     1       2.132   9.811  18.240  0.00  0.00    +0.000 C 
BRANCH   8   9
ATOM      9  C   UNL     1       1.932   8.312  18.199  0.00  0.00    +0.000 C 
ATOM     10  C   UNL     1       2.146   7.497  19.246  0.00  0.00    +0.000 C 
BRANCH  10  11
ATOM     11  C   UNL     1       2.139   6.032  19.294  0.00  0.00    +0.000 A 
ATOM     12  C   UNL     1       2.369   5.368  18.077  0.00  0.00    +0.000 A 
ATOM     13  C   UNL     1       2.336   3.978  18.000  0.00  0.00    +0.000 A 
ATOM     14  C   UNL     1       2.084   3.231  19.144  0.00  0.00    +0.000 A 
ATOM     15  C   UNL     1       1.882   3.875  20.364  0.00  0.00    +0.000 A 
ATOM     16  C   UNL     1       1.913   5.271  20.443  0.00  0.00    +0.000 A 
ENDBRANCH  10  11
ENDBRANCH   8   9
ENDBRANCH   5   8
ENDBRANCH   1   2
BRANCH   1  21
ATOM     17  N   UNL     1      -5.109  12.137  18.714  0.00  0.00    +0.000 N 
ATOM     18  N   UNL     1      -5.581  11.869  17.465  0.00  0.00    +0.000 NA
ATOM     19  N   UNL     1      -4.561  11.593  16.687  0.00  0.00    +0.000 NA
ATOM     20  N   UNL     1      -3.403  11.690  17.370  0.00  0.00    +0.000 NA
ATOM     21  C   UNL     1      -3.686  12.076  18.609  0.00  0.00    +0.000 A 
BRANCH  17  29
ATOM     22  C   UNL     1      -6.240  14.997  19.358  0.00  0.00    +0.000 C 
ATOM     23  C   UNL     1      -6.524  13.706  20.100  0.00  0.00    +0.000 A 
ATOM     24  C   UNL     1      -7.420  13.916  21.179  0.00  0.00    +0.000 A 
ATOM     25  C   UNL     1      -7.905  12.857  21.924  0.00  0.00    +0.000 A 
ATOM     26  C   UNL     1      -7.604  11.576  21.534  0.00  0.00    +0.000 A 
ATOM     27  C   UNL     1      -6.779  11.309  20.406  0.00  0.00    +0.000 A 
ATOM     28  C   UNL     1      -6.926   9.912  19.851  0.00  0.00    +0.000 C 
ATOM     29  C   UNL     1      -6.100  12.368  19.755  0.00  0.00    +0.000 A 
ENDBRANCH  17  29
ENDBRANCH   1  21
BRANCH   1  30
ATOM     30  C   UNL     1      -3.091  13.090  20.890  0.00  0.00    +0.000 A 
ATOM     31  C   UNL     1      -3.571  12.461  22.033  0.00  0.00    +0.000 A 
ATOM     32  C   UNL     1      -3.546  13.311  23.178  0.00  0.00    +0.000 A 
ATOM     33  C   UNL     1      -3.216  14.604  22.846  0.00  0.00    +0.000 A 
ATOM     34  S   UNL     1      -2.992  14.791  21.158  0.00  0.00    +0.000 S 
ENDBRANCH   1  30
TORSDOF 7
ENDMDL
MODEL 7
REMARK VINA RESULT:      -6.9      2.360      3.452
REMARK  Name = 
REMARK  9 active torsions:
REMARK  status: ('A' for Active; 'I' for Inactive)
REMARK    1  A    between atoms: C_1  and  C_2
REMARK    2  A    between atoms: C_6  and  C_7
REMARK    3  A    between atoms: C_8  and  N_9
REMARK    4  A    between atoms: C_13  and  C_14
REMARK    5  A    between atoms: C_14  and  C_15
REMARK    6  A    between atoms: C_14  and  N_20
REMARK    7  A    between atoms: N_23  and  C_24
REMARK    8  A    between atoms: C_24  and  C_25
REMARK    9  A    between atoms: C_26  and  C_27
REMARK                            x       y       z     vdW  Elec       q    Type
REMARK                         _______ _______ _______ _____ _____    ______ ____
ROOT
ATOM      1  C   UNL     1      -1.844  12.398  20.275  0.00  0.00    +0.000 C 
ENDROOT
BRANCH   1   2
ATOM      2  N   UNL     1      -0.965  11.188  20.349  0.00  0.00    +0.000 NA
ATOM      3  C   UNL     1      -1.167  10.215  19.252  0.00  0.00    +0.000 C 
ATOM      4  C   UNL     1      -0.149  10.160  18.076  0.00  0.00    +0.000 C 
ATOM      5  N   UNL     1       1.219  10.276  18.514  0.00  0.00    +0.000 NA
ATOM      6  C   UNL     1       1.516  11.310  19.476  0.00  0.00    +0.000 C 
ATOM      7  C   UNL     1       0.476  11.377  20.640  0.00  0.00    +0.000 C 
BRANCH   5   8
ATOM      8  C   UNL     1       2.263   9.471  17.924  0.00  0.00    +0.000 C 
BRANCH   8   9
ATOM      9  C   UNL     1       1.935   7.995  17.869  0.00  0.00    +0.000 C 
ATOM     10  C   UNL     1       2.627   7.048  18.525  0.00  0.00    +0.000 C 
BRANCH  10  11
ATOM     11  C   UNL     1       2.510   5.589  18.434  0.00  0.00    +0.000 A 
ATOM     12  C   UNL     1       3.319   4.958  17.475  0.00  0.00    +0.000 A 
ATOM     13  C   UNL     1       3.252   3.582  17.272  0.00  0.00    +0.000 A 
ATOM     14  C   UNL     1       2.381   2.815  18.037  0.00  0.00    +0.000 A 
ATOM     15  C   UNL     1       1.591   3.424  19.011  0.00  0.00    +0.000 A 
ATOM     16  C   UNL     1       1.657   4.807  19.215  0.00  0.00    +0.000 A 
ENDBRANCH  10  11
ENDBRANCH   8   9
ENDBRANCH   5   8
ENDBRANCH   1   2
BRANCH   1  21
ATOM     17  N   UNL     1      -4.155  12.992  21.548  0.00  0.00    +0.000 N 
ATOM     18  N   UNL     1      -4.573  12.668  22.803  0.00  0.00    +0.000 NA
ATOM     19  N   UNL     1      -3.565  12.132  23.450  0.00  0.00    +0.000 NA
ATOM     20  N   UNL     1      -2.476  12.062  22.658  0.00  0.00    +0.000 NA
ATOM     21  C   UNL     1      -2.807  12.530  21.459  0.00  0.00    +0.000 A 
BRANCH  17  29
ATOM     22  C   UNL     1      -3.932  16.072  20.971  0.00  0.00    +0.000 C 
ATOM     23  C   UNL     1      -5.040  15.132  20.539  0.00  0.00    +0.000 A 
ATOM     24  C   UNL     1      -6.031  15.813  19.785  0.00  0.00    +0.000 A 
ATOM     25  C   UNL     1      -7.077  15.128  19.193  0.00  0.00    +0.000 A 
ATOM     26  C   UNL     1      -7.086  13.757  19.242  0.00  0.00    +0.000 A 
ATOM     27  C   UNL     1      -6.068  13.022  19.912  0.00  0.00    +0.000 A 
ATOM     28  C   UNL     1      -5.969  11.576  19.487  0.00  0.00    +0.000 C 
ATOM     29  C   UNL     1      -5.106  13.698  20.701  0.00  0.00    +0.000 A 
ENDBRANCH  17  29
ENDBRANCH   1  21
BRANCH   1  30
ATOM     30  C   UNL     1      -0.974  13.651  20.057  0.00  0.00    +0.000 A 
ATOM     31  C   UNL     1      -0.534  14.224  18.870  0.00  0.00    +0.000 A 
ATOM     32  C   UNL     1      -0.139  15.585  19.031  0.00  0.00    +0.000 A 
ATOM     33  C   UNL     1      -0.123  15.957  20.355  0.00  0.00    +0.000 A 
ATOM     34  S   UNL     1      -0.531  14.654  21.388  0.00  0.00    +0.000 S 
ENDBRANCH   1  30
TORSDOF 7
ENDMDL
MODEL 8
REMARK VINA RESULT:      -6.8      0.933      1.052
REMARK  Name = 
REMARK  9 active torsions:
REMARK  status: ('A' for Active; 'I' for Inactive)
REMARK    1  A    between atoms: C_1  and  C_2
REMARK    2  A    between atoms: C_6  and  C_7
REMARK    3  A    between atoms: C_8  and  N_9
REMARK    4  A    between atoms: C_13  and  C_14
REMARK    5  A    between atoms: C_14  and  C_15
REMARK    6  A    between atoms: C_14  and  N_20
REMARK    7  A    between atoms: N_23  and  C_24
REMARK    8  A    between atoms: C_24  and  C_25
REMARK    9  A    between atoms: C_26  and  C_27
REMARK                            x       y       z     vdW  Elec       q    Type
REMARK                         _______ _______ _______ _____ _____    ______ ____
ROOT
ATOM      1  C   UNL     1       0.294  13.149  18.860  0.00  0.00    +0.000 C 
ENDROOT
BRANCH   1   2
ATOM      2  N   UNL     1       1.358  12.193  19.306  0.00  0.00    +0.000 NA
ATOM      3  C   UNL     1       0.958  11.308  20.423  0.00  0.00    +0.000 C 
ATOM      4  C   UNL     1       0.573   9.828  20.131  0.00  0.00    +0.000 C 
ATOM      5  N   UNL     1       1.444   9.203  19.168  0.00  0.00    +0.000 NA
ATOM      6  C   UNL     1       1.756   9.956  17.977  0.00  0.00    +0.000 C 
ATOM      7  C   UNL     1       2.116  11.447  18.274  0.00  0.00    +0.000 C 
BRANCH   5   8
ATOM      8  C   UNL     1       1.885   7.838  19.335  0.00  0.00    +0.000 C 
BRANCH   8   9
ATOM      9  C   UNL     1       2.987   7.434  18.381  0.00  0.00    +0.000 C 
ATOM     10  C   UNL     1       3.672   6.281  18.470  0.00  0.00    +0.000 C 
BRANCH  10  11
ATOM     11  C   UNL     1       4.850   5.845  17.714  0.00  0.00    +0.000 A 
ATOM     12  C   UNL     1       4.787   6.000  16.319  0.00  0.00    +0.000 A 
ATOM     13  C   UNL     1       5.831   5.574  15.501  0.00  0.00    +0.000 A 
ATOM     14  C   UNL     1       6.961   4.998  16.071  0.00  0.00    +0.000 A 
ATOM     15  C   UNL     1       7.048   4.862  17.456  0.00  0.00    +0.000 A 
ATOM     16  C   UNL     1       5.999   5.288  18.278  0.00  0.00    +0.000 A 
ENDBRANCH  10  11
ENDBRANCH   8   9
ENDBRANCH   5   8
ENDBRANCH   1   2
BRANCH   1  21
ATOM     17  N   UNL     1      -2.031  13.020  20.236  0.00  0.00    +0.000 N 
ATOM     18  N   UNL     1      -3.226  12.467  19.888  0.00  0.00    +0.000 NA
ATOM     19  N   UNL     1      -3.060  11.787  18.778  0.00  0.00    +0.000 NA
ATOM     20  N   UNL     1      -1.786  11.884  18.347  0.00  0.00    +0.000 NA
ATOM     21  C   UNL     1      -1.127  12.678  19.184  0.00  0.00    +0.000 A 
BRANCH  17  29
ATOM     22  C   UNL     1      -3.186  15.921  20.583  0.00  0.00    +0.000 C 
ATOM     23  C   UNL     1      -2.425  15.104  21.609  0.00  0.00    +0.000 A 
ATOM     24  C   UNL     1      -2.283  15.811  22.831  0.00  0.00    +0.000 A 
ATOM     25  C   UNL     1      -1.720  15.212  23.943  0.00  0.00    +0.000 A 
ATOM     26  C   UNL     1      -1.404  13.878  23.892  0.00  0.00    +0.000 A 
ATOM     27  C   UNL     1      -1.607  13.102  22.716  0.00  0.00    +0.000 A 
ATOM     28  C   UNL     1      -1.652  11.612  22.960  0.00  0.00    +0.000 C 
ATOM     29  C   UNL     1      -1.982  13.732  21.505  0.00  0.00    +0.000 A 
ENDBRANCH  17  29
ENDBRANCH   1  21
BRANCH   1  30
ATOM     30  C   UNL     1       0.608  14.556  19.403  0.00  0.00    +0.000 A 
ATOM     31  C   UNL     1       1.454  14.933  20.440  0.00  0.00    +0.000 A 
ATOM     32  C   UNL     1       1.827  16.308  20.370  0.00  0.00    +0.000 A 
ATOM     33  C   UNL     1       1.125  16.977  19.394  0.00  0.00    +0.000 A 
ATOM     34  S   UNL     1      -0.008  15.959  18.612  0.00  0.00    +0.000 S 
ENDBRANCH   1  30
TORSDOF 7
ENDMDL
MODEL 9
REMARK VINA RESULT:      -6.8      3.103      4.206
REMARK  Name = 
REMARK  9 active torsions:
REMARK  status: ('A' for Active; 'I' for Inactive)
REMARK    1  A    between atoms: C_1  and  C_2
REMARK    2  A    between atoms: C_6  and  C_7
REMARK    3  A    between atoms: C_8  and  N_9
REMARK    4  A    between atoms: C_13  and  C_14
REMARK    5  A    between atoms: C_14  and  C_15
REMARK    6  A    between atoms: C_14  and  N_20
REMARK    7  A    between atoms: N_23  and  C_24
REMARK    8  A    between atoms: C_24  and  C_25
REMARK    9  A    between atoms: C_26  and  C_27
REMARK                            x       y       z     vdW  Elec       q    Type
REMARK                         _______ _______ _______ _____ _____    ______ ____
ROOT
ATOM      1  C   UNL     1      -1.937  11.548  20.211  0.00  0.00    +0.000 C 
ENDROOT
BRANCH   1   2
ATOM      2  N   UNL     1      -0.551  11.269  20.705  0.00  0.00    +0.000 NA
ATOM      3  C   UNL     1      -0.493  10.462  21.946  0.00  0.00    +0.000 C 
ATOM      4  C   UNL     1      -0.137   8.949  21.863  0.00  0.00    +0.000 C 
ATOM      5  N   UNL     1       0.928   8.675  20.932  0.00  0.00    +0.000 NA
ATOM      6  C   UNL     1       0.853   9.313  19.640  0.00  0.00    +0.000 C 
ATOM      7  C   UNL     1       0.472  10.826  19.728  0.00  0.00    +0.000 C 
BRANCH   5   8
ATOM      8  C   UNL     1       1.957   7.709  21.239  0.00  0.00    +0.000 C 
BRANCH   8   9
ATOM      9  C   UNL     1       2.079   6.603  20.213  0.00  0.00    +0.000 C 
ATOM     10  C   UNL     1       1.789   5.315  20.461  0.00  0.00    +0.000 C 
BRANCH  10  11
ATOM     11  C   UNL     1       2.009   4.139  19.613  0.00  0.00    +0.000 A 
ATOM     12  C   UNL     1       3.190   4.131  18.853  0.00  0.00    +0.000 A 
ATOM     13  C   UNL     1       3.473   3.086  17.978  0.00  0.00    +0.000 A 
ATOM     14  C   UNL     1       2.583   2.025  17.860  0.00  0.00    +0.000 A 
ATOM     15  C   UNL     1       1.419   2.006  18.628  0.00  0.00    +0.000 A 
ATOM     16  C   UNL     1       1.132   3.057  19.507  0.00  0.00    +0.000 A 
ENDBRANCH  10  11
ENDBRANCH   8   9
ENDBRANCH   5   8
ENDBRANCH   1   2
BRANCH   1  21
ATOM     17  N   UNL     1      -3.583  13.577  20.912  0.00  0.00    +0.000 N 
ATOM     18  N   UNL     1      -3.321  14.904  21.069  0.00  0.00    +0.000 NA
ATOM     19  N   UNL     1      -2.106  15.141  20.634  0.00  0.00    +0.000 NA
ATOM     20  N   UNL     1      -1.524  14.001  20.206  0.00  0.00    +0.000 NA
ATOM     21  C   UNL     1      -2.376  13.002  20.408  0.00  0.00    +0.000 A 
BRANCH  17  29
ATOM     22  C   UNL     1      -5.511  12.318  18.774  0.00  0.00    +0.000 C 
ATOM     23  C   UNL     1      -5.830  12.653  20.218  0.00  0.00    +0.000 A 
ATOM     24  C   UNL     1      -7.167  12.309  20.545  0.00  0.00    +0.000 A 
ATOM     25  C   UNL     1      -7.640  12.424  21.840  0.00  0.00    +0.000 A 
ATOM     26  C   UNL     1      -6.763  12.762  22.840  0.00  0.00    +0.000 A 
ATOM     27  C   UNL     1      -5.391  13.033  22.577  0.00  0.00    +0.000 A 
ATOM     28  C   UNL     1      -4.498  12.929  23.791  0.00  0.00    +0.000 C 
ATOM     29  C   UNL     1      -4.929  13.130  21.243  0.00  0.00    +0.000 A 
ENDBRANCH  17  29
ENDBRANCH   1  21
BRANCH   1  30
ATOM     30  C   UNL     1      -2.070  11.064  18.755  0.00  0.00    +0.000 A 
ATOM     31  C   UNL     1      -2.650   9.902  18.260  0.00  0.00    +0.000 A 
ATOM     32  C   UNL     1      -2.978  10.000  16.876  0.00  0.00    +0.000 A 
ATOM     33  C   UNL     1      -2.487  11.156  16.316  0.00  0.00    +0.000 A 
ATOM     34  S   UNL     1      -1.595  12.082  17.446  0.00  0.00    +0.000 S 
ENDBRANCH   1  30
TORSDOF 7
ENDMDL
