MODEL 1
REMARK VINA RESULT:      -6.7      0.000      0.000
REMARK  Name = 
REMARK  10 active torsions:
REMARK  status: ('A' for Active; 'I' for Inactive)
REMARK    1  A    between atoms: C_1  and  C_2
REMARK    2  A    between atoms: C_2  and  C_3
REMARK    3  A    between atoms: C_2  and  C_4
REMARK    4  A    between atoms: C_4  and  C_5
REMARK    5  A    between atoms: C_5  and  C_6
REMARK    6  A    between atoms: C_8  and  C_9
REMARK    7  A    between atoms: C_9  and  N_10
REMARK    8  A    between atoms: N_10  and  C_11
REMARK    9  A    between atoms: C_11  and  C_12
REMARK   10  A    between atoms: N_14  and  C_15
REMARK                            x       y       z     vdW  Elec       q    Type
REMARK                         _______ _______ _______ _____ _____    ______ ____
ROOT
ATOM      1  C   UNL     1       6.457   4.658  15.754  0.00  0.00    +0.000 C 
ENDROOT
BRANCH   1   4
ATOM      2  C   UNL     1       7.706   7.510  17.604  0.00  0.00    +0.000 A 
ATOM      3  N   UNL     1       7.190   6.910  16.552  0.00  0.00    +0.000 NA
ATOM      4  C   UNL     1       7.025   5.555  16.814  0.00  0.00    +0.000 A 
ATOM      5  C   UNL     1       7.468   5.150  18.059  0.00  0.00    +0.000 A 
ATOM      6  S   UNL     1       8.078   6.485  18.933  0.00  0.00    +0.000 S 
BRANCH   2   7
ATOM      7  C   UNL     1       7.955   8.984  17.700  0.00  0.00    +0.000 C 
BRANCH   7   8
ATOM      8  C   UNL     1       8.818   9.308  18.925  0.00  0.00    +0.000 C 
BRANCH   8  10
ATOM      9  C   UNL     1       9.894  11.047  20.377  0.00  0.00    +0.000 C 
ATOM     10  C   UNL     1       9.224  10.790  19.025  0.00  0.00    +0.000 C 
ATOM     11  C   UNL     1      10.162  11.220  17.898  0.00  0.00    +0.000 C 
ENDBRANCH   8  10
ENDBRANCH   7   8
ENDBRANCH   2   7
ENDBRANCH   1   4
BRANCH   1  12
ATOM     12  N   UNL     1       5.869   3.449  16.339  0.00  0.00    +0.000 NA
ATOM     13  H   UNL     1       6.460   3.156  17.120  0.00  0.00    +0.000 HD
BRANCH  12  14
ATOM     14  C   UNL     1       4.500   3.681  16.826  0.00  0.00    +0.000 C 
BRANCH  14  15
ATOM     15  C   UNL     1       4.272   3.166  18.269  0.00  0.00    +0.000 C 
ATOM     16  C   UNL     1       3.966   4.343  19.227  0.00  0.00    +0.000 C 
ATOM     17  N   UNL     1       2.669   4.966  18.892  0.00  0.00    +0.000 NA
ATOM     18  C   UNL     1       2.380   6.101  19.762  0.00  0.00    +0.000 C 
ATOM     19  C   UNL     1       1.621   3.930  18.988  0.00  0.00    +0.000 C 
ATOM     20  C   UNL     1       1.937   2.722  18.086  0.00  0.00    +0.000 C 
ATOM     21  O   UNL     1       3.230   2.173  18.365  0.00  0.00    +0.000 OA
ENDBRANCH  14  15
ENDBRANCH  12  14
ENDBRANCH   1  12
TORSDOF 7
ENDMDL
MODEL 2
REMARK VINA RESULT:      -6.5      3.071      5.652
REMARK  Name = 
REMARK  10 active torsions:
REMARK  status: ('A' for Active; 'I' for Inactive)
REMARK    1  A    between atoms: C_1  and  C_2
REMARK    2  A    between atoms: C_2  and  C_3
REMARK    3  A    between atoms: C_2  and  C_4
REMARK    4  A    between atoms: C_4  and  C_5
REMARK    5  A    between atoms: C_5  and  C_6
REMARK    6  A    between atoms: C_8  and  C_9
REMARK    7  A    between atoms: C_9  and  N_10
REMARK    8  A    between atoms: N_10  and  C_11
REMARK    9  A    between atoms: C_11  and  C_12
REMARK   10  A    between atoms: N_14  and  C_15
REMARK                            x       y       z     vdW  Elec       q    Type
REMARK                         _______ _______ _______ _____ _____    ______ ____
ROOT
ATOM      1  C   UNL     1       7.414   5.666  18.684  0.00  0.00    +0.000 C 
ENDROOT
BRANCH   1   4
ATOM      2  C   UNL     1       6.598   5.126  15.197  0.00  0.00    +0.000 A 
ATOM      3  N   UNL     1       7.290   4.929  16.299  0.00  0.00    +0.000 NA
ATOM      4  C   UNL     1       6.779   5.715  17.326  0.00  0.00    +0.000 A 
ATOM      5  C   UNL     1       5.727   6.532  16.957  0.00  0.00    +0.000 A 
ATOM      6  S   UNL     1       5.346   6.299  15.308  0.00  0.00    +0.000 S 
BRANCH   2   7
ATOM      7  C   UNL     1       6.827   4.392  13.911  0.00  0.00    +0.000 C 
BRANCH   7   8
ATOM      8  C   UNL     1       5.559   3.647  13.479  0.00  0.00    +0.000 C 
BRANCH   8  10
ATOM      9  C   UNL     1       6.136   1.991  11.687  0.00  0.00    +0.000 C 
ATOM     10  C   UNL     1       5.495   3.352  11.970  0.00  0.00    +0.000 C 
ATOM     11  C   UNL     1       4.066   3.368  11.427  0.00  0.00    +0.000 C 
ENDBRANCH   8  10
ENDBRANCH   7   8
ENDBRANCH   2   7
ENDBRANCH   1   4
BRANCH   1  12
ATOM     12  N   UNL     1       6.623   4.853  19.613  0.00  0.00    +0.000 NA
ATOM     13  H   UNL     1       6.752   5.232  20.554  0.00  0.00    +0.000 HD
BRANCH  12  14
ATOM     14  C   UNL     1       5.190   4.867  19.275  0.00  0.00    +0.000 C 
BRANCH  14  15
ATOM     15  C   UNL     1       4.646   3.472  18.878  0.00  0.00    +0.000 C 
ATOM     16  C   UNL     1       3.729   2.907  19.991  0.00  0.00    +0.000 C 
ATOM     17  N   UNL     1       2.499   3.717  20.117  0.00  0.00    +0.000 NA
ATOM     18  C   UNL     1       1.639   3.220  21.185  0.00  0.00    +0.000 C 
ATOM     19  C   UNL     1       1.804   3.706  18.813  0.00  0.00    +0.000 C 
ATOM     20  C   UNL     1       2.720   4.209  17.682  0.00  0.00    +0.000 C 
ATOM     21  O   UNL     1       3.944   3.469  17.618  0.00  0.00    +0.000 OA
ENDBRANCH  14  15
ENDBRANCH  12  14
ENDBRANCH   1  12
TORSDOF 7
ENDMDL
MODEL 3
REMARK VINA RESULT:      -6.5      3.511      5.665
REMARK  Name = 
REMARK  10 active torsions:
REMARK  status: ('A' for Active; 'I' for Inactive)
REMARK    1  A    between atoms: C_1  and  C_2
REMARK    2  A    between atoms: C_2  and  C_3
REMARK    3  A    between atoms: C_2  and  C_4
REMARK    4  A    between atoms: C_4  and  C_5
REMARK    5  A    between atoms: C_5  and  C_6
REMARK    6  A    between atoms: C_8  and  C_9
REMARK    7  A    between atoms: C_9  and  N_10
REMARK    8  A    between atoms: N_10  and  C_11
REMARK    9  A    between atoms: C_11  and  C_12
REMARK   10  A    between atoms: N_14  and  C_15
REMARK                            x       y       z     vdW  Elec       q    Type
REMARK                         _______ _______ _______ _____ _____    ______ ____
ROOT
ATOM      1  C   UNL     1       3.725   6.193  17.941  0.00  0.00    +0.000 C 
ENDROOT
BRANCH   1   4
ATOM      2  C   UNL     1       6.249   4.956  15.657  0.00  0.00    +0.000 A 
ATOM      3  N   UNL     1       5.067   5.445  15.970  0.00  0.00    +0.000 NA
ATOM      4  C   UNL     1       4.988   5.646  17.343  0.00  0.00    +0.000 A 
ATOM      5  C   UNL     1       6.110   5.257  18.049  0.00  0.00    +0.000 A 
ATOM      6  S   UNL     1       7.300   4.653  16.983  0.00  0.00    +0.000 S 
BRANCH   2   7
ATOM      7  C   UNL     1       6.707   4.681  14.257  0.00  0.00    +0.000 C 
BRANCH   7   8
ATOM      8  C   UNL     1       5.925   3.509  13.652  0.00  0.00    +0.000 C 
BRANCH   8  10
ATOM      9  C   UNL     1       6.844   2.454  11.571  0.00  0.00    +0.000 C 
ATOM     10  C   UNL     1       5.886   3.517  12.113  0.00  0.00    +0.000 C 
ATOM     11  C   UNL     1       4.483   3.273  11.558  0.00  0.00    +0.000 C 
ENDBRANCH   8  10
ENDBRANCH   7   8
ENDBRANCH   2   7
ENDBRANCH   1   4
BRANCH   1  12
ATOM     12  N   UNL     1       3.004   5.163  18.695  0.00  0.00    +0.000 NA
ATOM     13  H   UNL     1       2.705   5.573  19.583  0.00  0.00    +0.000 HD
BRANCH  12  14
ATOM     14  C   UNL     1       1.824   4.670  17.965  0.00  0.00    +0.000 C 
BRANCH  14  15
ATOM     15  C   UNL     1       1.642   3.135  18.072  0.00  0.00    +0.000 C 
ATOM     16  C   UNL     1       2.966   2.457  18.502  0.00  0.00    +0.000 C 
ATOM     17  N   UNL     1       3.327   2.842  19.883  0.00  0.00    +0.000 NA
ATOM     18  C   UNL     1       4.590   2.240  20.293  0.00  0.00    +0.000 C 
ATOM     19  C   UNL     1       2.221   2.441  20.777  0.00  0.00    +0.000 C 
ATOM     20  C   UNL     1       0.883   3.058  20.330  0.00  0.00    +0.000 C 
ATOM     21  O   UNL     1       0.580   2.745  18.965  0.00  0.00    +0.000 OA
ENDBRANCH  14  15
ENDBRANCH  12  14
ENDBRANCH   1  12
TORSDOF 7
ENDMDL
MODEL 4
REMARK VINA RESULT:      -6.4      3.711      5.382
REMARK  Name = 
REMARK  10 active torsions:
REMARK  status: ('A' for Active; 'I' for Inactive)
REMARK    1  A    between atoms: C_1  and  C_2
REMARK    2  A    between atoms: C_2  and  C_3
REMARK    3  A    between atoms: C_2  and  C_4
REMARK    4  A    between atoms: C_4  and  C_5
REMARK    5  A    between atoms: C_5  and  C_6
REMARK    6  A    between atoms: C_8  and  C_9
REMARK    7  A    between atoms: C_9  and  N_10
REMARK    8  A    between atoms: N_10  and  C_11
REMARK    9  A    between atoms: C_11  and  C_12
REMARK   10  A    between atoms: N_14  and  C_15
REMARK                            x       y       z     vdW  Elec       q    Type
REMARK                         _______ _______ _______ _____ _____    ______ ____
ROOT
ATOM      1  C   UNL     1       3.298   6.328  19.527  0.00  0.00    +0.000 C 
ENDROOT
BRANCH   1   4
ATOM      2  C   UNL     1       5.390   5.564  16.671  0.00  0.00    +0.000 A 
ATOM      3  N   UNL     1       4.317   6.045  17.263  0.00  0.00    +0.000 NA
ATOM      4  C   UNL     1       4.413   5.864  18.638  0.00  0.00    +0.000 A 
ATOM      5  C   UNL     1       5.553   5.201  19.053  0.00  0.00    +0.000 A 
ATOM      6  S   UNL     1       6.538   4.818  17.711  0.00  0.00    +0.000 S 
BRANCH   2   7
ATOM      7  C   UNL     1       5.656   5.650  15.199  0.00  0.00    +0.000 C 
BRANCH   7   8
ATOM      8  C   UNL     1       5.308   4.326  14.508  0.00  0.00    +0.000 C 
BRANCH   8  10
ATOM      9  C   UNL     1       5.718   3.283  12.264  0.00  0.00    +0.000 C 
ATOM     10  C   UNL     1       6.387   3.836  13.525  0.00  0.00    +0.000 C 
ATOM     11  C   UNL     1       7.376   4.936  13.140  0.00  0.00    +0.000 C 
ENDBRANCH   8  10
ENDBRANCH   7   8
ENDBRANCH   2   7
ENDBRANCH   1   4
BRANCH   1  12
ATOM     12  N   UNL     1       2.066   5.576  19.271  0.00  0.00    +0.000 NA
ATOM     13  H   UNL     1       2.303   4.769  18.689  0.00  0.00    +0.000 HD
BRANCH  12  14
ATOM     14  C   UNL     1       1.436   5.109  20.517  0.00  0.00    +0.000 C 
BRANCH  14  15
ATOM     15  C   UNL     1       0.934   3.646  20.433  0.00  0.00    +0.000 C 
ATOM     16  C   UNL     1       1.196   3.060  19.024  0.00  0.00    +0.000 C 
ATOM     17  N   UNL     1       2.647   2.925  18.774  0.00  0.00    +0.000 NA
ATOM     18  C   UNL     1       2.914   2.407  17.437  0.00  0.00    +0.000 C 
ATOM     19  C   UNL     1       3.215   2.048  19.819  0.00  0.00    +0.000 C 
ATOM     20  C   UNL     1       2.913   2.583  21.231  0.00  0.00    +0.000 C 
ATOM     21  O   UNL     1       1.510   2.785  21.435  0.00  0.00    +0.000 OA
ENDBRANCH  14  15
ENDBRANCH  12  14
ENDBRANCH   1  12
TORSDOF 7
ENDMDL
MODEL 5
REMARK VINA RESULT:      -6.3      3.528      5.984
REMARK  Name = 
REMARK  10 active torsions:
REMARK  status: ('A' for Active; 'I' for Inactive)
REMARK    1  A    between atoms: C_1  and  C_2
REMARK    2  A    between atoms: C_2  and  C_3
REMARK    3  A    between atoms: C_2  and  C_4
REMARK    4  A    between atoms: C_4  and  C_5
REMARK    5  A    between atoms: C_5  and  C_6
REMARK    6  A    between atoms: C_8  and  C_9
REMARK    7  A    between atoms: C_9  and  N_10
REMARK    8  A    between atoms: N_10  and  C_11
REMARK    9  A    between atoms: C_11  and  C_12
REMARK   10  A    between atoms: N_14  and  C_15
REMARK                            x       y       z     vdW  Elec       q    Type
REMARK                         _______ _______ _______ _____ _____    ______ ____
ROOT
ATOM      1  C   UNL     1       4.953   5.588  18.851  0.00  0.00    +0.000 C 
ENDROOT
BRANCH   1   4
ATOM      2  C   UNL     1       5.589   4.568  15.435  0.00  0.00    +0.000 A 
ATOM      3  N   UNL     1       4.822   4.895  16.454  0.00  0.00    +0.000 NA
ATOM      4  C   UNL     1       5.608   5.193  17.561  0.00  0.00    +0.000 A 
ATOM      5  C   UNL     1       6.967   5.038  17.362  0.00  0.00    +0.000 A 
ATOM      6  S   UNL     1       7.277   4.538  15.758  0.00  0.00    +0.000 S 
BRANCH   2   7
ATOM      7  C   UNL     1       5.082   4.254  14.060  0.00  0.00    +0.000 C 
BRANCH   7   8
ATOM      8  C   UNL     1       6.195   3.646  13.199  0.00  0.00    +0.000 C 
BRANCH   8  10
ATOM      9  C   UNL     1       4.532   3.274  11.360  0.00  0.00    +0.000 C 
ATOM     10  C   UNL     1       5.689   2.648  12.142  0.00  0.00    +0.000 C 
ATOM     11  C   UNL     1       6.786   2.210  11.173  0.00  0.00    +0.000 C 
ENDBRANCH   8  10
ENDBRANCH   7   8
ENDBRANCH   2   7
ENDBRANCH   1   4
BRANCH   1  12
ATOM     12  N   UNL     1       3.520   5.835  18.667  0.00  0.00    +0.000 NA
ATOM     13  H   UNL     1       3.153   5.116  18.039  0.00  0.00    +0.000 HD
BRANCH  12  14
ATOM     14  C   UNL     1       2.784   5.789  19.941  0.00  0.00    +0.000 C 
BRANCH  14  15
ATOM     15  C   UNL     1       1.526   4.886  19.884  0.00  0.00    +0.000 C 
ATOM     16  C   UNL     1       1.588   3.941  18.659  0.00  0.00    +0.000 C 
ATOM     17  N   UNL     1       2.688   2.965  18.806  0.00  0.00    +0.000 NA
ATOM     18  C   UNL     1       2.784   2.088  17.644  0.00  0.00    +0.000 C 
ATOM     19  C   UNL     1       2.459   2.196  20.047  0.00  0.00    +0.000 C 
ATOM     20  C   UNL     1       2.335   3.123  21.270  0.00  0.00    +0.000 C 
ATOM     21  O   UNL     1       1.319   4.116  21.085  0.00  0.00    +0.000 OA
ENDBRANCH  14  15
ENDBRANCH  12  14
ENDBRANCH   1  12
TORSDOF 7
ENDMDL
MODEL 6
REMARK VINA RESULT:      -6.2      1.230      1.527
REMARK  Name = 
REMARK  10 active torsions:
REMARK  status: ('A' for Active; 'I' for Inactive)
REMARK    1  A    between atoms: C_1  and  C_2
REMARK    2  A    between atoms: C_2  and  C_3
REMARK    3  A    between atoms: C_2  and  C_4
REMARK    4  A    between atoms: C_4  and  C_5
REMARK    5  A    between atoms: C_5  and  C_6
REMARK    6  A    between atoms: C_8  and  C_9
REMARK    7  A    between atoms: C_9  and  N_10
REMARK    8  A    between atoms: N_10  and  C_11
REMARK    9  A    between atoms: C_11  and  C_12
REMARK   10  A    between atoms: N_14  and  C_15
REMARK                            x       y       z     vdW  Elec       q    Type
REMARK                         _______ _______ _______ _____ _____    ______ ____
ROOT
ATOM      1  C   UNL     1       6.427   4.378  16.478  0.00  0.00    +0.000 C 
ENDROOT
BRANCH   1   4
ATOM      2  C   UNL     1       7.697   7.548  17.684  0.00  0.00    +0.000 A 
ATOM      3  N   UNL     1       7.115   6.758  16.807  0.00  0.00    +0.000 NA
ATOM      4  C   UNL     1       7.045   5.463  17.308  0.00  0.00    +0.000 A 
ATOM      5  C   UNL     1       7.625   5.295  18.552  0.00  0.00    +0.000 A 
ATOM      6  S   UNL     1       8.245   6.781  19.122  0.00  0.00    +0.000 S 
BRANCH   2   7
ATOM      7  C   UNL     1       7.878   9.024  17.505  0.00  0.00    +0.000 C 
BRANCH   7   8
ATOM      8  C   UNL     1       8.736   9.605  18.635  0.00  0.00    +0.000 C 
BRANCH   8  10
ATOM      9  C   UNL     1       8.729  11.973  17.809  0.00  0.00    +0.000 C 
ATOM     10  C   UNL     1       9.618  10.789  18.200  0.00  0.00    +0.000 C 
ATOM     11  C   UNL     1      10.601  11.222  19.287  0.00  0.00    +0.000 C 
ENDBRANCH   8  10
ENDBRANCH   7   8
ENDBRANCH   2   7
ENDBRANCH   1   4
BRANCH   1  12
ATOM     12  N   UNL     1       4.966   4.503  16.441  0.00  0.00    +0.000 NA
ATOM     13  H   UNL     1       4.612   3.860  15.729  0.00  0.00    +0.000 HD
BRANCH  12  14
ATOM     14  C   UNL     1       4.351   4.179  17.738  0.00  0.00    +0.000 C 
BRANCH  14  15
ATOM     15  C   UNL     1       3.451   2.920  17.686  0.00  0.00    +0.000 C 
ATOM     16  C   UNL     1       3.275   2.316  19.100  0.00  0.00    +0.000 C 
ATOM     17  N   UNL     1       2.508   3.233  19.970  0.00  0.00    +0.000 NA
ATOM     18  C   UNL     1       2.363   2.696  21.318  0.00  0.00    +0.000 C 
ATOM     19  C   UNL     1       1.194   3.475  19.339  0.00  0.00    +0.000 C 
ATOM     20  C   UNL     1       1.348   4.021  17.907  0.00  0.00    +0.000 C 
ATOM     21  O   UNL     1       2.158   3.164  17.094  0.00  0.00    +0.000 OA
ENDBRANCH  14  15
ENDBRANCH  12  14
ENDBRANCH   1  12
TORSDOF 7
ENDMDL
MODEL 7
REMARK VINA RESULT:      -6.2      3.040      5.300
REMARK  Name = 
REMARK  10 active torsions:
REMARK  status: ('A' for Active; 'I' for Inactive)
REMARK    1  A    between atoms: C_1  and  C_2
REMARK    2  A    between atoms: C_2  and  C_3
REMARK    3  A    between atoms: C_2  and  C_4
REMARK    4  A    between atoms: C_4  and  C_5
REMARK    5  A    between atoms: C_5  and  C_6
REMARK    6  A    between atoms: C_8  and  C_9
REMARK    7  A    between atoms: C_9  and  N_10
REMARK    8  A    between atoms: N_10  and  C_11
REMARK    9  A    between atoms: C_11  and  C_12
REMARK   10  A    between atoms: N_14  and  C_15
REMARK                            x       y       z     vdW  Elec       q    Type
REMARK                         _______ _______ _______ _____ _____    ______ ____
ROOT
ATOM      1  C   UNL     1       3.485   6.739  17.689  0.00  0.00    +0.000 C 
ENDROOT
BRANCH   1   4
ATOM      2  C   UNL     1       6.237   5.371  15.773  0.00  0.00    +0.000 A 
ATOM      3  N   UNL     1       4.969   5.636  16.008  0.00  0.00    +0.000 NA
ATOM      4  C   UNL     1       4.845   6.332  17.205  0.00  0.00    +0.000 A 
ATOM      5  C   UNL     1       6.035   6.540  17.877  0.00  0.00    +0.000 A 
ATOM      6  S   UNL     1       7.338   5.882  16.991  0.00  0.00    +0.000 S 
BRANCH   2   7
ATOM      7  C   UNL     1       6.745   4.693  14.538  0.00  0.00    +0.000 C 
BRANCH   7   8
ATOM      8  C   UNL     1       5.672   3.773  13.944  0.00  0.00    +0.000 C 
BRANCH   8  10
ATOM      9  C   UNL     1       4.678   3.436  11.667  0.00  0.00    +0.000 C 
ATOM     10  C   UNL     1       5.960   3.335  12.497  0.00  0.00    +0.000 C 
ATOM     11  C   UNL     1       7.064   4.163  11.840  0.00  0.00    +0.000 C 
ENDBRANCH   8  10
ENDBRANCH   7   8
ENDBRANCH   2   7
ENDBRANCH   1   4
BRANCH   1  12
ATOM     12  N   UNL     1       2.855   5.668  18.469  0.00  0.00    +0.000 NA
ATOM     13  H   UNL     1       2.065   6.071  18.978  0.00  0.00    +0.000 HD
BRANCH  12  14
ATOM     14  C   UNL     1       2.374   4.572  17.613  0.00  0.00    +0.000 C 
BRANCH  14  15
ATOM     15  C   UNL     1       2.831   3.175  18.101  0.00  0.00    +0.000 C 
ATOM     16  C   UNL     1       3.206   3.217  19.603  0.00  0.00    +0.000 C 
ATOM     17  N   UNL     1       2.012   3.482  20.433  0.00  0.00    +0.000 NA
ATOM     18  C   UNL     1       2.353   3.561  21.850  0.00  0.00    +0.000 C 
ATOM     19  C   UNL     1       1.023   2.416  20.173  0.00  0.00    +0.000 C 
ATOM     20  C   UNL     1       0.681   2.318  18.675  0.00  0.00    +0.000 C 
ATOM     21  O   UNL     1       1.854   2.140  17.871  0.00  0.00    +0.000 OA
ENDBRANCH  14  15
ENDBRANCH  12  14
ENDBRANCH   1  12
TORSDOF 7
ENDMDL
MODEL 8
REMARK VINA RESULT:      -6.1      3.433      5.510
REMARK  Name = 
REMARK  10 active torsions:
REMARK  status: ('A' for Active; 'I' for Inactive)
REMARK    1  A    between atoms: C_1  and  C_2
REMARK    2  A    between atoms: C_2  and  C_3
REMARK    3  A    between atoms: C_2  and  C_4
REMARK    4  A    between atoms: C_4  and  C_5
REMARK    5  A    between atoms: C_5  and  C_6
REMARK    6  A    between atoms: C_8  and  C_9
REMARK    7  A    between atoms: C_9  and  N_10
REMARK    8  A    between atoms: N_10  and  C_11
REMARK    9  A    between atoms: C_11  and  C_12
REMARK   10  A    between atoms: N_14  and  C_15
REMARK                            x       y       z     vdW  Elec       q    Type
REMARK                         _______ _______ _______ _____ _____    ______ ____
ROOT
ATOM      1  C   UNL     1       6.051   5.211  19.112  0.00  0.00    +0.000 C 
ENDROOT
BRANCH   1   4
ATOM      2  C   UNL     1       6.296   5.282  15.500  0.00  0.00    +0.000 A 
ATOM      3  N   UNL     1       6.564   4.811  16.699  0.00  0.00    +0.000 NA
ATOM      4  C   UNL     1       5.893   5.557  17.661  0.00  0.00    +0.000 A 
ATOM      5  C   UNL     1       5.160   6.617  17.161  0.00  0.00    +0.000 A 
ATOM      6  S   UNL     1       5.284   6.671  15.458  0.00  0.00    +0.000 S 
BRANCH   2   7
ATOM      7  C   UNL     1       6.795   4.678  14.222  0.00  0.00    +0.000 C 
BRANCH   7   8
ATOM      8  C   UNL     1       5.769   3.689  13.655  0.00  0.00    +0.000 C 
BRANCH   8  10
ATOM      9  C   UNL     1       6.797   2.527  11.684  0.00  0.00    +0.000 C 
ATOM     10  C   UNL     1       5.785   3.591  12.119  0.00  0.00    +0.000 C 
ATOM     11  C   UNL     1       4.412   3.260  11.535  0.00  0.00    +0.000 C 
ENDBRANCH   8  10
ENDBRANCH   7   8
ENDBRANCH   2   7
ENDBRANCH   1   4
BRANCH   1  12
ATOM     12  N   UNL     1       5.344   3.970  19.444  0.00  0.00    +0.000 NA
ATOM     13  H   UNL     1       4.808   4.131  20.300  0.00  0.00    +0.000 HD
BRANCH  12  14
ATOM     14  C   UNL     1       4.430   3.552  18.369  0.00  0.00    +0.000 C 
BRANCH  14  15
ATOM     15  C   UNL     1       3.681   2.234  18.686  0.00  0.00    +0.000 C 
ATOM     16  C   UNL     1       3.315   2.162  20.189  0.00  0.00    +0.000 C 
ATOM     17  N   UNL     1       2.319   3.198  20.535  0.00  0.00    +0.000 NA
ATOM     18  C   UNL     1       1.988   3.169  21.955  0.00  0.00    +0.000 C 
ATOM     19  C   UNL     1       1.122   2.984  19.696  0.00  0.00    +0.000 C 
ATOM     20  C   UNL     1       1.475   2.992  18.197  0.00  0.00    +0.000 C 
ATOM     21  O   UNL     1       2.498   2.039  17.885  0.00  0.00    +0.000 OA
ENDBRANCH  14  15
ENDBRANCH  12  14
ENDBRANCH   1  12
TORSDOF 7
ENDMDL
MODEL 9
REMARK VINA RESULT:      -6.1      1.623      2.224
REMARK  Name = 
REMARK  10 active torsions:
REMARK  status: ('A' for Active; 'I' for Inactive)
REMARK    1  A    between atoms: C_1  and  C_2
REMARK    2  A    between atoms: C_2  and  C_3
REMARK    3  A    between atoms: C_2  and  C_4
REMARK    4  A    between atoms: C_4  and  C_5
REMARK    5  A    between atoms: C_5  and  C_6
REMARK    6  A    between atoms: C_8  and  C_9
REMARK    7  A    between atoms: C_9  and  N_10
REMARK    8  A    between atoms: N_10  and  C_11
REMARK    9  A    between atoms: C_11  and  C_12
REMARK   10  A    between atoms: N_14  and  C_15
REMARK                            x       y       z     vdW  Elec       q    Type
REMARK                         _______ _______ _______ _____ _____    ______ ____
ROOT
ATOM      1  C   UNL     1       4.351   5.568  17.112  0.00  0.00    +0.000 C 
ENDROOT
BRANCH   1   4
ATOM      2  C   UNL     1       7.394   7.459  17.639  0.00  0.00    +0.000 A 
ATOM      3  N   UNL     1       6.237   7.206  17.065  0.00  0.00    +0.000 NA
ATOM      4  C   UNL     1       5.675   6.061  17.616  0.00  0.00    +0.000 A 
ATOM      5  C   UNL     1       6.453   5.441  18.575  0.00  0.00    +0.000 A 
ATOM      6  S   UNL     1       7.901   6.315  18.819  0.00  0.00    +0.000 S 
BRANCH   2   7
ATOM      7  C   UNL     1       8.245   8.656  17.341  0.00  0.00    +0.000 C 
BRANCH   7   8
ATOM      8  C   UNL     1       8.491   9.475  18.613  0.00  0.00    +0.000 C 
BRANCH   8  10
ATOM      9  C   UNL     1       8.748  11.856  17.870  0.00  0.00    +0.000 C 
ATOM     10  C   UNL     1       9.486  10.635  18.423  0.00  0.00    +0.000 C 
ATOM     11  C   UNL     1      10.205  11.012  19.717  0.00  0.00    +0.000 C 
ENDBRANCH   8  10
ENDBRANCH   7   8
ENDBRANCH   2   7
ENDBRANCH   1   4
BRANCH   1  12
ATOM     12  N   UNL     1       3.681   4.727  18.109  0.00  0.00    +0.000 NA
ATOM     13  H   UNL     1       3.675   5.234  18.997  0.00  0.00    +0.000 HD
BRANCH  12  14
ATOM     14  C   UNL     1       2.298   4.407  17.722  0.00  0.00    +0.000 C 
BRANCH  14  15
ATOM     15  C   UNL     1       1.922   2.927  17.977  0.00  0.00    +0.000 C 
ATOM     16  C   UNL     1       3.100   2.171  18.641  0.00  0.00    +0.000 C 
ATOM     17  N   UNL     1       3.351   2.687  20.003  0.00  0.00    +0.000 NA
ATOM     18  C   UNL     1       4.480   2.011  20.631  0.00  0.00    +0.000 C 
ATOM     19  C   UNL     1       2.113   2.522  20.793  0.00  0.00    +0.000 C 
ATOM     20  C   UNL     1       0.916   3.216  20.119  0.00  0.00    +0.000 C 
ATOM     21  O   UNL     1       0.729   2.767  18.771  0.00  0.00    +0.000 OA
ENDBRANCH  14  15
ENDBRANCH  12  14
ENDBRANCH   1  12
TORSDOF 7
ENDMDL
