MODEL 1
REMARK VINA RESULT:      -6.9      0.000      0.000
REMARK  Name = 
REMARK  13 active torsions:
REMARK  status: ('A' for Active; 'I' for Inactive)
REMARK    1  A    between atoms: C_1  and  C_2
REMARK    2  A    between atoms: C_2  and  C_3
REMARK    3  A    between atoms: C_2  and  C_4
REMARK    4  A    between atoms: C_4  and  C_5
REMARK    5  A    between atoms: C_4  and  N_8
REMARK    6  A    between atoms: C_5  and  O_7
REMARK    7  A    between atoms: N_8  and  C_9
REMARK    8  A    between atoms: C_10  and  C_12
REMARK    9  A    between atoms: C_15  and  N_16
REMARK   10  A    between atoms: C_17  and  C_19
REMARK   11  A    between atoms: C_19  and  C_20
REMARK   12  A    between atoms: C_19  and  O_21
REMARK   13  A    between atoms: C_19  and  C_22
REMARK                            x       y       z     vdW  Elec       q    Type
REMARK                         _______ _______ _______ _____ _____    ______ ____
ROOT
ATOM      1  C   UNL     1       2.738   6.896  19.116  0.00  0.00    +0.000 A 
ATOM      2  C   UNL     1       2.687   7.666  17.954  0.00  0.00    +0.000 A 
ATOM      3  C   UNL     1       2.023   8.898  17.935  0.00  0.00    +0.000 A 
ATOM      4  C   UNL     1       1.337   9.374  19.054  0.00  0.00    +0.000 A 
ATOM      5  C   UNL     1       1.264   8.528  20.174  0.00  0.00    +0.000 A 
ATOM      6 CL   UNL     1       0.350   8.986  21.571  0.00  0.00    +0.000 Cl
ATOM      7  C   UNL     1       1.962   7.306  20.210  0.00  0.00    +0.000 A 
ENDROOT
BRANCH   1  10
ATOM      8  N   UNL     1       2.992   4.373  19.134  0.00  0.00    +0.000 N 
ATOM      9  C   UNL     1       1.679   4.132  18.531  0.00  0.00    +0.000 C 
ATOM     10  C   UNL     1       3.572   5.649  19.223  0.00  0.00    +0.000 C 
ATOM     11  O   UNL     1       4.793   5.776  19.348  0.00  0.00    +0.000 OA
BRANCH   8  12
ATOM     12  C   UNL     1       3.885   3.194  19.293  0.00  0.00    +0.000 C 
BRANCH  12  14
ATOM     13  C   UNL     1       4.629   1.572  21.117  0.00  0.00    +0.000 C 
ATOM     14  C   UNL     1       3.427   2.196  20.391  0.00  0.00    +0.000 C 
ATOM     15  C   UNL     1       2.540   2.892  21.431  0.00  0.00    +0.000 C 
ENDBRANCH  12  14
BRANCH  12  16
ATOM     16  C   UNL     1       4.011   2.516  17.910  0.00  0.00    +0.000 C 
ATOM     17  O   UNL     1       4.472   3.035  16.900  0.00  0.00    +0.000 OA
BRANCH  16  18
ATOM     18  O   UNL     1       3.642   1.210  17.941  0.00  0.00    +0.000 OA
ATOM     19  H   UNL     1       4.017   0.730  18.711  0.00  0.00    +0.000 HD
ENDBRANCH  16  18
ENDBRANCH  12  16
ENDBRANCH   8  12
ENDBRANCH   1  10
BRANCH   4  20
ATOM     20  N   UNL     1       0.732  10.662  19.071  0.00  0.00    +0.000 N 
ATOM     21  C   UNL     1      -0.540  10.973  18.590  0.00  0.00    +0.000 C 
ATOM     22  O   UNL     1      -1.318  10.163  18.079  0.00  0.00    +0.000 OA
ATOM     23  H   UNL     1       1.322  11.438  19.374  0.00  0.00    +0.000 HD
BRANCH  21  24
ATOM     24  C   UNL     1      -0.933  12.453  18.700  0.00  0.00    +0.000 C 
ATOM     25  C   UNL     1       0.258  13.269  19.220  0.00  0.00    +0.000 C 
BRANCH  24  26
ATOM     26  C   UNL     1      -2.115  12.537  19.692  0.00  0.00    +0.000 C 
ATOM     27  F   UNL     1      -3.303  12.204  19.141  0.00  0.00    +0.000 F 
ATOM     28  F   UNL     1      -1.939  11.724  20.766  0.00  0.00    +0.000 F 
ATOM     29  F   UNL     1      -2.259  13.793  20.183  0.00  0.00    +0.000 F 
ENDBRANCH  24  26
BRANCH  24  30
ATOM     30  O   UNL     1      -1.263  12.947  17.383  0.00  0.00    +0.000 OA
ATOM     31  H   UNL     1      -1.216  12.196  16.762  0.00  0.00    +0.000 HD
ENDBRANCH  24  30
ENDBRANCH  21  24
ENDBRANCH   4  20
TORSDOF 9
ENDMDL
MODEL 2
REMARK VINA RESULT:      -6.8      4.440      9.140
REMARK  Name = 
REMARK  13 active torsions:
REMARK  status: ('A' for Active; 'I' for Inactive)
REMARK    1  A    between atoms: C_1  and  C_2
REMARK    2  A    between atoms: C_2  and  C_3
REMARK    3  A    between atoms: C_2  and  C_4
REMARK    4  A    between atoms: C_4  and  C_5
REMARK    5  A    between atoms: C_4  and  N_8
REMARK    6  A    between atoms: C_5  and  O_7
REMARK    7  A    between atoms: N_8  and  C_9
REMARK    8  A    between atoms: C_10  and  C_12
REMARK    9  A    between atoms: C_15  and  N_16
REMARK   10  A    between atoms: C_17  and  C_19
REMARK   11  A    between atoms: C_19  and  C_20
REMARK   12  A    between atoms: C_19  and  O_21
REMARK   13  A    between atoms: C_19  and  C_22
REMARK                            x       y       z     vdW  Elec       q    Type
REMARK                         _______ _______ _______ _____ _____    ______ ____
ROOT
ATOM      1  C   UNL     1       1.136   9.181  18.947  0.00  0.00    +0.000 A 
ATOM      2  C   UNL     1       2.004   9.211  17.857  0.00  0.00    +0.000 A 
ATOM      3  C   UNL     1       2.893   8.156  17.614  0.00  0.00    +0.000 A 
ATOM      4  C   UNL     1       2.987   7.069  18.485  0.00  0.00    +0.000 A 
ATOM      5  C   UNL     1       2.219   7.115  19.661  0.00  0.00    +0.000 A 
ATOM      6 CL   UNL     1       2.346   5.863  20.850  0.00  0.00    +0.000 Cl
ATOM      7  C   UNL     1       1.298   8.155  19.888  0.00  0.00    +0.000 A 
ENDROOT
BRANCH   1  10
ATOM      8  N   UNL     1       0.265  11.327  19.983  0.00  0.00    +0.000 N 
ATOM      9  C   UNL     1       1.596  11.806  20.363  0.00  0.00    +0.000 C 
ATOM     10  C   UNL     1       0.061  10.213  19.152  0.00  0.00    +0.000 C 
ATOM     11  O   UNL     1      -0.999  10.078  18.532  0.00  0.00    +0.000 OA
BRANCH   8  12
ATOM     12  C   UNL     1      -0.866  12.275  20.162  0.00  0.00    +0.000 C 
BRANCH  12  14
ATOM     13  C   UNL     1      -2.385  13.530  21.785  0.00  0.00    +0.000 C 
ATOM     14  C   UNL     1      -1.071  12.748  21.626  0.00  0.00    +0.000 C 
ATOM     15  C   UNL     1      -1.096  11.556  22.591  0.00  0.00    +0.000 C 
ENDBRANCH  12  14
BRANCH  12  16
ATOM     16  C   UNL     1      -0.638  13.459  19.197  0.00  0.00    +0.000 C 
ATOM     17  O   UNL     1      -0.085  14.515  19.480  0.00  0.00    +0.000 OA
BRANCH  16  18
ATOM     18  O   UNL     1      -1.031  13.174  17.929  0.00  0.00    +0.000 OA
ATOM     19  H   UNL     1      -1.975  12.908  17.877  0.00  0.00    +0.000 HD
ENDBRANCH  16  18
ENDBRANCH  12  16
ENDBRANCH   8  12
ENDBRANCH   1  10
BRANCH   4  20
ATOM     20  N   UNL     1       3.826   5.954  18.202  0.00  0.00    +0.000 N 
ATOM     21  C   UNL     1       5.159   6.016  17.800  0.00  0.00    +0.000 C 
ATOM     22  O   UNL     1       5.797   7.060  17.632  0.00  0.00    +0.000 OA
ATOM     23  H   UNL     1       3.377   5.036  18.203  0.00  0.00    +0.000 HD
BRANCH  21  24
ATOM     24  C   UNL     1       5.821   4.658  17.527  0.00  0.00    +0.000 C 
ATOM     25  C   UNL     1       7.340   4.835  17.406  0.00  0.00    +0.000 C 
BRANCH  24  26
ATOM     26  C   UNL     1       5.236   4.125  16.199  0.00  0.00    +0.000 C 
ATOM     27  F   UNL     1       6.011   3.188  15.609  0.00  0.00    +0.000 F 
ATOM     28  F   UNL     1       4.009   3.567  16.369  0.00  0.00    +0.000 F 
ATOM     29  F   UNL     1       5.080   5.121  15.293  0.00  0.00    +0.000 F 
ENDBRANCH  24  26
BRANCH  24  30
ATOM     30  O   UNL     1       5.568   3.783  18.649  0.00  0.00    +0.000 OA
ATOM     31  H   UNL     1       6.145   4.065  19.383  0.00  0.00    +0.000 HD
ENDBRANCH  24  30
ENDBRANCH  21  24
ENDBRANCH   4  20
TORSDOF 9
ENDMDL
MODEL 3
REMARK VINA RESULT:      -6.7      0.747      1.090
REMARK  Name = 
REMARK  13 active torsions:
REMARK  status: ('A' for Active; 'I' for Inactive)
REMARK    1  A    between atoms: C_1  and  C_2
REMARK    2  A    between atoms: C_2  and  C_3
REMARK    3  A    between atoms: C_2  and  C_4
REMARK    4  A    between atoms: C_4  and  C_5
REMARK    5  A    between atoms: C_4  and  N_8
REMARK    6  A    between atoms: C_5  and  O_7
REMARK    7  A    between atoms: N_8  and  C_9
REMARK    8  A    between atoms: C_10  and  C_12
REMARK    9  A    between atoms: C_15  and  N_16
REMARK   10  A    between atoms: C_17  and  C_19
REMARK   11  A    between atoms: C_19  and  C_20
REMARK   12  A    between atoms: C_19  and  O_21
REMARK   13  A    between atoms: C_19  and  C_22
REMARK                            x       y       z     vdW  Elec       q    Type
REMARK                         _______ _______ _______ _____ _____    ______ ____
ROOT
ATOM      1  C   UNL     1       2.596   7.061  19.189  0.00  0.00    +0.000 A 
ATOM      2  C   UNL     1       2.427   7.822  18.034  0.00  0.00    +0.000 A 
ATOM      3  C   UNL     1       1.703   9.021  18.060  0.00  0.00    +0.000 A 
ATOM      4  C   UNL     1       1.074   9.466  19.224  0.00  0.00    +0.000 A 
ATOM      5  C   UNL     1       1.121   8.622  20.347  0.00  0.00    +0.000 A 
ATOM      6 CL   UNL     1       0.285   9.040  21.804  0.00  0.00    +0.000 Cl
ATOM      7  C   UNL     1       1.879   7.436  20.335  0.00  0.00    +0.000 A 
ENDROOT
BRANCH   1  10
ATOM      8  N   UNL     1       2.991   4.559  19.057  0.00  0.00    +0.000 N 
ATOM      9  C   UNL     1       1.706   4.285  18.409  0.00  0.00    +0.000 C 
ATOM     10  C   UNL     1       3.496   5.857  19.239  0.00  0.00    +0.000 C 
ATOM     11  O   UNL     1       4.706   6.043  19.401  0.00  0.00    +0.000 OA
BRANCH   8  12
ATOM     12  C   UNL     1       3.945   3.423  19.164  0.00  0.00    +0.000 C 
BRANCH  12  14
ATOM     13  C   UNL     1       4.742   1.656  20.825  0.00  0.00    +0.000 C 
ATOM     14  C   UNL     1       3.519   2.332  20.184  0.00  0.00    +0.000 C 
ATOM     15  C   UNL     1       2.654   2.930  21.300  0.00  0.00    +0.000 C 
ENDBRANCH  12  14
BRANCH  12  16
ATOM     16  C   UNL     1       4.140   2.845  17.745  0.00  0.00    +0.000 C 
ATOM     17  O   UNL     1       4.599   3.451  16.783  0.00  0.00    +0.000 OA
BRANCH  16  18
ATOM     18  O   UNL     1       3.838   1.523  17.681  0.00  0.00    +0.000 OA
ATOM     19  H   UNL     1       3.450   1.183  18.516  0.00  0.00    +0.000 HD
ENDBRANCH  16  18
ENDBRANCH  12  16
ENDBRANCH   8  12
ENDBRANCH   1  10
BRANCH   4  20
ATOM     20  N   UNL     1       0.408  10.723  19.282  0.00  0.00    +0.000 N 
ATOM     21  C   UNL     1      -0.932  10.952  18.971  0.00  0.00    +0.000 C 
ATOM     22  O   UNL     1      -1.728  10.085  18.600  0.00  0.00    +0.000 OA
ATOM     23  H   UNL     1       0.992  11.538  19.475  0.00  0.00    +0.000 HD
BRANCH  21  24
ATOM     24  C   UNL     1      -1.385  12.415  19.086  0.00  0.00    +0.000 C 
ATOM     25  C   UNL     1      -0.404  13.323  18.333  0.00  0.00    +0.000 C 
BRANCH  24  26
ATOM     26  C   UNL     1      -1.397  12.771  20.590  0.00  0.00    +0.000 C 
ATOM     27  F   UNL     1      -0.198  13.190  21.052  0.00  0.00    +0.000 F 
ATOM     28  F   UNL     1      -2.291  13.752  20.876  0.00  0.00    +0.000 F 
ATOM     29  F   UNL     1      -1.747  11.703  21.348  0.00  0.00    +0.000 F 
ENDBRANCH  24  26
BRANCH  24  30
ATOM     30  O   UNL     1      -2.680  12.552  18.462  0.00  0.00    +0.000 OA
ATOM     31  H   UNL     1      -2.613  12.200  17.554  0.00  0.00    +0.000 HD
ENDBRANCH  24  30
ENDBRANCH  21  24
ENDBRANCH   4  20
TORSDOF 9
ENDMDL
MODEL 4
REMARK VINA RESULT:      -6.7      1.130      1.387
REMARK  Name = 
REMARK  13 active torsions:
REMARK  status: ('A' for Active; 'I' for Inactive)
REMARK    1  A    between atoms: C_1  and  C_2
REMARK    2  A    between atoms: C_2  and  C_3
REMARK    3  A    between atoms: C_2  and  C_4
REMARK    4  A    between atoms: C_4  and  C_5
REMARK    5  A    between atoms: C_4  and  N_8
REMARK    6  A    between atoms: C_5  and  O_7
REMARK    7  A    between atoms: N_8  and  C_9
REMARK    8  A    between atoms: C_10  and  C_12
REMARK    9  A    between atoms: C_15  and  N_16
REMARK   10  A    between atoms: C_17  and  C_19
REMARK   11  A    between atoms: C_19  and  C_20
REMARK   12  A    between atoms: C_19  and  O_21
REMARK   13  A    between atoms: C_19  and  C_22
REMARK                            x       y       z     vdW  Elec       q    Type
REMARK                         _______ _______ _______ _____ _____    ______ ____
ROOT
ATOM      1  C   UNL     1       2.540   7.202  19.128  0.00  0.00    +0.000 A 
ATOM      2  C   UNL     1       2.480   8.055  18.027  0.00  0.00    +0.000 A 
ATOM      3  C   UNL     1       1.845   9.300  18.113  0.00  0.00    +0.000 A 
ATOM      4  C   UNL     1       1.196   9.707  19.281  0.00  0.00    +0.000 A 
ATOM      5  C   UNL     1       1.130   8.783  20.337  0.00  0.00    +0.000 A 
ATOM      6 CL   UNL     1       0.260   9.158  21.787  0.00  0.00    +0.000 Cl
ATOM      7  C   UNL     1       1.800   7.547  20.267  0.00  0.00    +0.000 A 
ENDROOT
BRANCH   1  10
ATOM      8  N   UNL     1       2.821   4.735  18.612  0.00  0.00    +0.000 N 
ATOM      9  C   UNL     1       1.681   4.690  17.693  0.00  0.00    +0.000 C 
ATOM     10  C   UNL     1       3.347   5.933  19.123  0.00  0.00    +0.000 C 
ATOM     11  O   UNL     1       4.507   5.981  19.543  0.00  0.00    +0.000 OA
BRANCH   8  12
ATOM     12  C   UNL     1       3.672   3.518  18.685  0.00  0.00    +0.000 C 
BRANCH  12  14
ATOM     13  C   UNL     1       3.847   0.980  18.467  0.00  0.00    +0.000 C 
ATOM     14  C   UNL     1       2.897   2.189  18.478  0.00  0.00    +0.000 C 
ATOM     15  C   UNL     1       1.859   1.979  19.587  0.00  0.00    +0.000 C 
ENDBRANCH  12  14
BRANCH  12  16
ATOM     16  C   UNL     1       4.816   3.687  17.661  0.00  0.00    +0.000 C 
ATOM     17  O   UNL     1       4.678   3.795  16.448  0.00  0.00    +0.000 OA
BRANCH  16  18
ATOM     18  O   UNL     1       6.029   3.811  18.258  0.00  0.00    +0.000 OA
ATOM     19  H   UNL     1       5.987   4.321  19.096  0.00  0.00    +0.000 HD
ENDBRANCH  16  18
ENDBRANCH  12  16
ENDBRANCH   8  12
ENDBRANCH   1  10
BRANCH   4  20
ATOM     20  N   UNL     1       0.622  11.004  19.406  0.00  0.00    +0.000 N 
ATOM     21  C   UNL     1      -0.682  11.356  19.057  0.00  0.00    +0.000 C 
ATOM     22  O   UNL     1      -1.520  10.581  18.588  0.00  0.00    +0.000 OA
ATOM     23  H   UNL     1       1.254  11.756  19.684  0.00  0.00    +0.000 HD
BRANCH  21  24
ATOM     24  C   UNL     1      -1.032  12.837  19.263  0.00  0.00    +0.000 C 
ATOM     25  C   UNL     1       0.126  13.550  19.972  0.00  0.00    +0.000 C 
BRANCH  24  26
ATOM     26  C   UNL     1      -2.306  12.885  20.137  0.00  0.00    +0.000 C 
ATOM     27  F   UNL     1      -2.546  14.104  20.669  0.00  0.00    +0.000 F 
ATOM     28  F   UNL     1      -3.419  12.538  19.438  0.00  0.00    +0.000 F 
ATOM     29  F   UNL     1      -2.225  12.021  21.178  0.00  0.00    +0.000 F 
ENDBRANCH  24  26
BRANCH  24  30
ATOM     30  O   UNL     1      -1.208  13.458  17.971  0.00  0.00    +0.000 OA
ATOM     31  H   UNL     1      -1.013  14.409  18.069  0.00  0.00    +0.000 HD
ENDBRANCH  24  30
ENDBRANCH  21  24
ENDBRANCH   4  20
TORSDOF 9
ENDMDL
MODEL 5
REMARK VINA RESULT:      -6.7      1.460      2.009
REMARK  Name = 
REMARK  13 active torsions:
REMARK  status: ('A' for Active; 'I' for Inactive)
REMARK    1  A    between atoms: C_1  and  C_2
REMARK    2  A    between atoms: C_2  and  C_3
REMARK    3  A    between atoms: C_2  and  C_4
REMARK    4  A    between atoms: C_4  and  C_5
REMARK    5  A    between atoms: C_4  and  N_8
REMARK    6  A    between atoms: C_5  and  O_7
REMARK    7  A    between atoms: N_8  and  C_9
REMARK    8  A    between atoms: C_10  and  C_12
REMARK    9  A    between atoms: C_15  and  N_16
REMARK   10  A    between atoms: C_17  and  C_19
REMARK   11  A    between atoms: C_19  and  C_20
REMARK   12  A    between atoms: C_19  and  O_21
REMARK   13  A    between atoms: C_19  and  C_22
REMARK                            x       y       z     vdW  Elec       q    Type
REMARK                         _______ _______ _______ _____ _____    ______ ____
ROOT
ATOM      1  C   UNL     1       2.386   7.011  19.339  0.00  0.00    +0.000 A 
ATOM      2  C   UNL     1       2.235   7.766  18.176  0.00  0.00    +0.000 A 
ATOM      3  C   UNL     1       1.654   9.040  18.214  0.00  0.00    +0.000 A 
ATOM      4  C   UNL     1       1.149   9.575  19.401  0.00  0.00    +0.000 A 
ATOM      5  C   UNL     1       1.167   8.752  20.539  0.00  0.00    +0.000 A 
ATOM      6 CL   UNL     1       0.472   9.289  22.031  0.00  0.00    +0.000 Cl
ATOM      7  C   UNL     1       1.785   7.487  20.514  0.00  0.00    +0.000 A 
ENDROOT
BRANCH   1  10
ATOM      8  N   UNL     1       4.018   5.355  18.326  0.00  0.00    +0.000 N 
ATOM      9  C   UNL     1       4.582   6.327  17.386  0.00  0.00    +0.000 C 
ATOM     10  C   UNL     1       3.145   5.713  19.367  0.00  0.00    +0.000 C 
ATOM     11  O   UNL     1       3.014   4.985  20.355  0.00  0.00    +0.000 OA
BRANCH   8  12
ATOM     12  C   UNL     1       4.695   4.034  18.414  0.00  0.00    +0.000 C 
BRANCH  12  14
ATOM     13  C   UNL     1       3.679   1.701  18.607  0.00  0.00    +0.000 C 
ATOM     14  C   UNL     1       3.952   2.890  17.673  0.00  0.00    +0.000 C 
ATOM     15  C   UNL     1       2.614   3.380  17.107  0.00  0.00    +0.000 C 
ENDBRANCH  12  14
BRANCH  12  16
ATOM     16  C   UNL     1       6.140   4.218  17.897  0.00  0.00    +0.000 C 
ATOM     17  O   UNL     1       7.081   4.656  18.548  0.00  0.00    +0.000 OA
BRANCH  16  18
ATOM     18  O   UNL     1       6.301   3.736  16.638  0.00  0.00    +0.000 OA
ATOM     19  H   UNL     1       6.977   4.233  16.127  0.00  0.00    +0.000 HD
ENDBRANCH  16  18
ENDBRANCH  12  16
ENDBRANCH   8  12
ENDBRANCH   1  10
BRANCH   4  20
ATOM     20  N   UNL     1       0.635  10.901  19.466  0.00  0.00    +0.000 N 
ATOM     21  C   UNL     1      -0.656  11.293  19.112  0.00  0.00    +0.000 C 
ATOM     22  O   UNL     1      -1.533  10.535  18.691  0.00  0.00    +0.000 OA
ATOM     23  H   UNL     1       1.303  11.637  19.700  0.00  0.00    +0.000 HD
BRANCH  21  24
ATOM     24  C   UNL     1      -0.937  12.797  19.246  0.00  0.00    +0.000 C 
ATOM     25  C   UNL     1       0.289  13.504  19.836  0.00  0.00    +0.000 C 
BRANCH  24  26
ATOM     26  C   UNL     1      -2.151  12.950  20.192  0.00  0.00    +0.000 C 
ATOM     27  F   UNL     1      -2.092  12.144  21.275  0.00  0.00    +0.000 F 
ATOM     28  F   UNL     1      -2.279  14.220  20.657  0.00  0.00    +0.000 F 
ATOM     29  F   UNL     1      -3.312  12.656  19.558  0.00  0.00    +0.000 F 
ENDBRANCH  24  26
BRANCH  24  30
ATOM     30  O   UNL     1      -1.172  13.346  17.931  0.00  0.00    +0.000 OA
ATOM     31  H   UNL     1      -0.309  13.429  17.484  0.00  0.00    +0.000 HD
ENDBRANCH  24  30
ENDBRANCH  21  24
ENDBRANCH   4  20
TORSDOF 9
ENDMDL
MODEL 6
REMARK VINA RESULT:      -6.6      4.522      9.091
REMARK  Name = 
REMARK  13 active torsions:
REMARK  status: ('A' for Active; 'I' for Inactive)
REMARK    1  A    between atoms: C_1  and  C_2
REMARK    2  A    between atoms: C_2  and  C_3
REMARK    3  A    between atoms: C_2  and  C_4
REMARK    4  A    between atoms: C_4  and  C_5
REMARK    5  A    between atoms: C_4  and  N_8
REMARK    6  A    between atoms: C_5  and  O_7
REMARK    7  A    between atoms: N_8  and  C_9
REMARK    8  A    between atoms: C_10  and  C_12
REMARK    9  A    between atoms: C_15  and  N_16
REMARK   10  A    between atoms: C_17  and  C_19
REMARK   11  A    between atoms: C_19  and  C_20
REMARK   12  A    between atoms: C_19  and  O_21
REMARK   13  A    between atoms: C_19  and  C_22
REMARK                            x       y       z     vdW  Elec       q    Type
REMARK                         _______ _______ _______ _____ _____    ______ ____
ROOT
ATOM      1  C   UNL     1       1.124   9.096  19.040  0.00  0.00    +0.000 A 
ATOM      2  C   UNL     1       1.890   9.266  17.888  0.00  0.00    +0.000 A 
ATOM      3  C   UNL     1       2.798   8.283  17.474  0.00  0.00    +0.000 A 
ATOM      4  C   UNL     1       3.014   7.128  18.228  0.00  0.00    +0.000 A 
ATOM      5  C   UNL     1       2.351   7.030  19.464  0.00  0.00    +0.000 A 
ATOM      6 CL   UNL     1       2.634   5.685  20.516  0.00  0.00    +0.000 Cl
ATOM      7  C   UNL     1       1.410   7.998  19.864  0.00  0.00    +0.000 A 
ENDROOT
BRANCH   1  10
ATOM      8  N   UNL     1       0.256  11.086  20.350  0.00  0.00    +0.000 N 
ATOM      9  C   UNL     1       1.593  11.589  20.674  0.00  0.00    +0.000 C 
ATOM     10  C   UNL     1       0.029  10.050  19.429  0.00  0.00    +0.000 C 
ATOM     11  O   UNL     1      -1.071   9.927  18.882  0.00  0.00    +0.000 OA
BRANCH   8  12
ATOM     12  C   UNL     1      -0.894  11.958  20.710  0.00  0.00    +0.000 C 
BRANCH  12  14
ATOM     13  C   UNL     1      -2.404  12.867  22.557  0.00  0.00    +0.000 C 
ATOM     14  C   UNL     1      -1.066  12.182  22.237  0.00  0.00    +0.000 C 
ATOM     15  C   UNL     1      -1.007  10.853  22.999  0.00  0.00    +0.000 C 
ENDBRANCH  12  14
BRANCH  12  16
ATOM     16  C   UNL     1      -0.727  13.289  19.944  0.00  0.00    +0.000 C 
ATOM     17  O   UNL     1      -0.197  14.303  20.381  0.00  0.00    +0.000 OA
BRANCH  16  18
ATOM     18  O   UNL     1      -1.147  13.198  18.656  0.00  0.00    +0.000 OA
ATOM     19  H   UNL     1      -1.708  12.407  18.496  0.00  0.00    +0.000 HD
ENDBRANCH  16  18
ENDBRANCH  12  16
ENDBRANCH   8  12
ENDBRANCH   1  10
BRANCH   4  20
ATOM     20  N   UNL     1       3.870   6.085  17.774  0.00  0.00    +0.000 N 
ATOM     21  C   UNL     1       5.222   6.218  17.458  0.00  0.00    +0.000 C 
ATOM     22  O   UNL     1       5.863   7.270  17.530  0.00  0.00    +0.000 OA
ATOM     23  H   UNL     1       3.426   5.188  17.572  0.00  0.00    +0.000 HD
BRANCH  21  24
ATOM     24  C   UNL     1       5.901   4.936  16.956  0.00  0.00    +0.000 C 
ATOM     25  C   UNL     1       7.321   4.843  17.529  0.00  0.00    +0.000 C 
BRANCH  24  26
ATOM     26  C   UNL     1       5.951   5.021  15.414  0.00  0.00    +0.000 C 
ATOM     27  F   UNL     1       5.172   6.001  14.904  0.00  0.00    +0.000 F 
ATOM     28  F   UNL     1       7.210   5.243  14.954  0.00  0.00    +0.000 F 
ATOM     29  F   UNL     1       5.535   3.864  14.842  0.00  0.00    +0.000 F 
ENDBRANCH  24  26
BRANCH  24  30
ATOM     30  O   UNL     1       5.157   3.795  17.437  0.00  0.00    +0.000 OA
ATOM     31  H   UNL     1       4.407   4.129  17.964  0.00  0.00    +0.000 HD
ENDBRANCH  24  30
ENDBRANCH  21  24
ENDBRANCH   4  20
TORSDOF 9
ENDMDL
MODEL 7
REMARK VINA RESULT:      -6.6      2.009      2.818
REMARK  Name = 
REMARK  13 active torsions:
REMARK  status: ('A' for Active; 'I' for Inactive)
REMARK    1  A    between atoms: C_1  and  C_2
REMARK    2  A    between atoms: C_2  and  C_3
REMARK    3  A    between atoms: C_2  and  C_4
REMARK    4  A    between atoms: C_4  and  C_5
REMARK    5  A    between atoms: C_4  and  N_8
REMARK    6  A    between atoms: C_5  and  O_7
REMARK    7  A    between atoms: N_8  and  C_9
REMARK    8  A    between atoms: C_10  and  C_12
REMARK    9  A    between atoms: C_15  and  N_16
REMARK   10  A    between atoms: C_17  and  C_19
REMARK   11  A    between atoms: C_19  and  C_20
REMARK   12  A    between atoms: C_19  and  O_21
REMARK   13  A    between atoms: C_19  and  C_22
REMARK                            x       y       z     vdW  Elec       q    Type
REMARK                         _______ _______ _______ _____ _____    ______ ____
ROOT
ATOM      1  C   UNL     1       2.366   7.277  18.741  0.00  0.00    +0.000 A 
ATOM      2  C   UNL     1       2.000   8.223  17.785  0.00  0.00    +0.000 A 
ATOM      3  C   UNL     1       1.394   9.429  18.158  0.00  0.00    +0.000 A 
ATOM      4  C   UNL     1       1.078   9.703  19.491  0.00  0.00    +0.000 A 
ATOM      5  C   UNL     1       1.311   8.686  20.432  0.00  0.00    +0.000 A 
ATOM      6 CL   UNL     1       0.858   8.893  22.090  0.00  0.00    +0.000 Cl
ATOM      7  C   UNL     1       1.955   7.488  20.065  0.00  0.00    +0.000 A 
ENDROOT
BRANCH   1  10
ATOM      8  N   UNL     1       4.333   6.125  17.630  0.00  0.00    +0.000 N 
ATOM      9  C   UNL     1       5.099   7.362  17.464  0.00  0.00    +0.000 C 
ATOM     10  C   UNL     1       3.159   6.047  18.397  0.00  0.00    +0.000 C 
ATOM     11  O   UNL     1       2.774   4.963  18.847  0.00  0.00    +0.000 OA
BRANCH   8  12
ATOM     12  C   UNL     1       5.031   4.853  17.301  0.00  0.00    +0.000 C 
BRANCH  12  14
ATOM     13  C   UNL     1       7.420   4.393  16.528  0.00  0.00    +0.000 C 
ATOM     14  C   UNL     1       6.052   4.974  16.137  0.00  0.00    +0.000 C 
ATOM     15  C   UNL     1       5.552   4.237  14.888  0.00  0.00    +0.000 C 
ENDBRANCH  12  14
BRANCH  12  16
ATOM     16  C   UNL     1       5.691   4.336  18.599  0.00  0.00    +0.000 C 
ATOM     17  O   UNL     1       6.431   4.983  19.331  0.00  0.00    +0.000 OA
BRANCH  16  18
ATOM     18  O   UNL     1       5.280   3.083  18.921  0.00  0.00    +0.000 OA
ATOM     19  H   UNL     1       4.777   3.055  19.764  0.00  0.00    +0.000 HD
ENDBRANCH  16  18
ENDBRANCH  12  16
ENDBRANCH   8  12
ENDBRANCH   1  10
BRANCH   4  20
ATOM     20  N   UNL     1       0.541  10.959  19.890  0.00  0.00    +0.000 N 
ATOM     21  C   UNL     1      -0.769  11.390  19.682  0.00  0.00    +0.000 C 
ATOM     22  O   UNL     1      -1.646  10.732  19.115  0.00  0.00    +0.000 OA
ATOM     23  H   UNL     1       1.202  11.635  20.276  0.00  0.00    +0.000 HD
BRANCH  21  24
ATOM     24  C   UNL     1      -1.075  12.808  20.185  0.00  0.00    +0.000 C 
ATOM     25  C   UNL     1       0.225  13.495  20.622  0.00  0.00    +0.000 C 
BRANCH  24  26
ATOM     26  C   UNL     1      -2.037  12.667  21.387  0.00  0.00    +0.000 C 
ATOM     27  F   UNL     1      -3.334  12.558  21.026  0.00  0.00    +0.000 F 
ATOM     28  F   UNL     1      -1.749  11.577  22.146  0.00  0.00    +0.000 F 
ATOM     29  F   UNL     1      -1.956  13.739  22.213  0.00  0.00    +0.000 F 
ENDBRANCH  24  26
BRANCH  24  30
ATOM     30  O   UNL     1      -1.636  13.578  19.098  0.00  0.00    +0.000 OA
ATOM     31  H   UNL     1      -2.607  13.552  19.185  0.00  0.00    +0.000 HD
ENDBRANCH  24  30
ENDBRANCH  21  24
ENDBRANCH   4  20
TORSDOF 9
ENDMDL
MODEL 8
REMARK VINA RESULT:      -6.6      2.276      3.068
REMARK  Name = 
REMARK  13 active torsions:
REMARK  status: ('A' for Active; 'I' for Inactive)
REMARK    1  A    between atoms: C_1  and  C_2
REMARK    2  A    between atoms: C_2  and  C_3
REMARK    3  A    between atoms: C_2  and  C_4
REMARK    4  A    between atoms: C_4  and  C_5
REMARK    5  A    between atoms: C_4  and  N_8
REMARK    6  A    between atoms: C_5  and  O_7
REMARK    7  A    between atoms: N_8  and  C_9
REMARK    8  A    between atoms: C_10  and  C_12
REMARK    9  A    between atoms: C_15  and  N_16
REMARK   10  A    between atoms: C_17  and  C_19
REMARK   11  A    between atoms: C_19  and  C_20
REMARK   12  A    between atoms: C_19  and  O_21
REMARK   13  A    between atoms: C_19  and  C_22
REMARK                            x       y       z     vdW  Elec       q    Type
REMARK                         _______ _______ _______ _____ _____    ______ ____
ROOT
ATOM      1  C   UNL     1       2.629   7.691  18.493  0.00  0.00    +0.000 A 
ATOM      2  C   UNL     1       2.066   8.635  17.636  0.00  0.00    +0.000 A 
ATOM      3  C   UNL     1       1.167   9.597  18.113  0.00  0.00    +0.000 A 
ATOM      4  C   UNL     1       0.754   9.609  19.447  0.00  0.00    +0.000 A 
ATOM      5  C   UNL     1       1.207   8.566  20.273  0.00  0.00    +0.000 A 
ATOM      6 CL   UNL     1       0.669   8.438  21.913  0.00  0.00    +0.000 Cl
ATOM      7  C   UNL     1       2.140   7.621  19.806  0.00  0.00    +0.000 A 
ENDROOT
BRANCH   1  10
ATOM      8  N   UNL     1       3.504   5.360  18.011  0.00  0.00    +0.000 N 
ATOM      9  C   UNL     1       2.170   4.755  17.967  0.00  0.00    +0.000 C 
ATOM     10  C   UNL     1       3.715   6.748  18.054  0.00  0.00    +0.000 C 
ATOM     11  O   UNL     1       4.791   7.230  17.688  0.00  0.00    +0.000 OA
BRANCH   8  12
ATOM     12  C   UNL     1       4.645   4.497  17.605  0.00  0.00    +0.000 C 
BRANCH  12  14
ATOM     13  C   UNL     1       7.033   4.658  16.716  0.00  0.00    +0.000 C 
ATOM     14  C   UNL     1       5.583   5.143  16.550  0.00  0.00    +0.000 C 
ATOM     15  C   UNL     1       5.121   4.810  15.126  0.00  0.00    +0.000 C 
ENDBRANCH  12  14
BRANCH  12  16
ATOM     16  C   UNL     1       5.406   4.099  18.890  0.00  0.00    +0.000 C 
ATOM     17  O   UNL     1       6.004   4.867  19.633  0.00  0.00    +0.000 OA
BRANCH  16  18
ATOM     18  O   UNL     1       5.261   2.782  19.186  0.00  0.00    +0.000 OA
ATOM     19  H   UNL     1       5.066   2.235  18.394  0.00  0.00    +0.000 HD
ENDBRANCH  16  18
ENDBRANCH  12  16
ENDBRANCH   8  12
ENDBRANCH   1  10
BRANCH   4  20
ATOM     20  N   UNL     1      -0.092  10.632  19.960  0.00  0.00    +0.000 N 
ATOM     21  C   UNL     1       0.316  11.714  20.740  0.00  0.00    +0.000 C 
ATOM     22  O   UNL     1       1.479  11.931  21.092  0.00  0.00    +0.000 OA
ATOM     23  H   UNL     1      -1.096  10.503  19.823  0.00  0.00    +0.000 HD
BRANCH  21  24
ATOM     24  C   UNL     1      -0.812  12.653  21.190  0.00  0.00    +0.000 C 
ATOM     25  C   UNL     1      -0.308  14.102  21.200  0.00  0.00    +0.000 C 
BRANCH  24  26
ATOM     26  C   UNL     1      -1.224  12.219  22.615  0.00  0.00    +0.000 C 
ATOM     27  F   UNL     1      -1.045  13.185  23.543  0.00  0.00    +0.000 F 
ATOM     28  F   UNL     1      -2.531  11.852  22.679  0.00  0.00    +0.000 F 
ATOM     29  F   UNL     1      -0.506  11.148  23.032  0.00  0.00    +0.000 F 
ENDBRANCH  24  26
BRANCH  24  30
ATOM     30  O   UNL     1      -1.895  12.571  20.237  0.00  0.00    +0.000 OA
ATOM     31  H   UNL     1      -2.731  12.703  20.723  0.00  0.00    +0.000 HD
ENDBRANCH  24  30
ENDBRANCH  21  24
ENDBRANCH   4  20
TORSDOF 9
ENDMDL
MODEL 9
REMARK VINA RESULT:      -6.6      1.081      1.411
REMARK  Name = 
REMARK  13 active torsions:
REMARK  status: ('A' for Active; 'I' for Inactive)
REMARK    1  A    between atoms: C_1  and  C_2
REMARK    2  A    between atoms: C_2  and  C_3
REMARK    3  A    between atoms: C_2  and  C_4
REMARK    4  A    between atoms: C_4  and  C_5
REMARK    5  A    between atoms: C_4  and  N_8
REMARK    6  A    between atoms: C_5  and  O_7
REMARK    7  A    between atoms: N_8  and  C_9
REMARK    8  A    between atoms: C_10  and  C_12
REMARK    9  A    between atoms: C_15  and  N_16
REMARK   10  A    between atoms: C_17  and  C_19
REMARK   11  A    between atoms: C_19  and  C_20
REMARK   12  A    between atoms: C_19  and  O_21
REMARK   13  A    between atoms: C_19  and  C_22
REMARK                            x       y       z     vdW  Elec       q    Type
REMARK                         _______ _______ _______ _____ _____    ______ ____
ROOT
ATOM      1  C   UNL     1       2.497   7.226  18.996  0.00  0.00    +0.000 A 
ATOM      2  C   UNL     1       2.289   7.864  17.774  0.00  0.00    +0.000 A 
ATOM      3  C   UNL     1       1.561   9.058  17.699  0.00  0.00    +0.000 A 
ATOM      4  C   UNL     1       0.967   9.621  18.830  0.00  0.00    +0.000 A 
ATOM      5  C   UNL     1       1.052   8.897  20.032  0.00  0.00    +0.000 A 
ATOM      6 CL   UNL     1       0.259   9.463  21.463  0.00  0.00    +0.000 Cl
ATOM      7  C   UNL     1       1.814   7.717  20.118  0.00  0.00    +0.000 A 
ENDROOT
BRANCH   1  10
ATOM      8  N   UNL     1       2.924   4.727  18.960  0.00  0.00    +0.000 N 
ATOM      9  C   UNL     1       1.690   4.421  18.231  0.00  0.00    +0.000 C 
ATOM     10  C   UNL     1       3.402   6.034  19.141  0.00  0.00    +0.000 C 
ATOM     11  O   UNL     1       4.596   6.238  19.383  0.00  0.00    +0.000 OA
BRANCH   8  12
ATOM     12  C   UNL     1       3.878   3.605  19.164  0.00  0.00    +0.000 C 
BRANCH  12  14
ATOM     13  C   UNL     1       4.568   1.798  20.831  0.00  0.00    +0.000 C 
ATOM     14  C   UNL     1       3.388   2.531  20.173  0.00  0.00    +0.000 C 
ATOM     15  C   UNL     1       2.533   3.164  21.277  0.00  0.00    +0.000 C 
ENDBRANCH  12  14
BRANCH  12  16
ATOM     16  C   UNL     1       4.187   2.998  17.777  0.00  0.00    +0.000 C 
ATOM     17  O   UNL     1       4.752   3.576  16.855  0.00  0.00    +0.000 OA
BRANCH  16  18
ATOM     18  O   UNL     1       3.853   1.685  17.703  0.00  0.00    +0.000 OA
ATOM     19  H   UNL     1       3.254   1.405  18.429  0.00  0.00    +0.000 HD
ENDBRANCH  16  18
ENDBRANCH  12  16
ENDBRANCH   8  12
ENDBRANCH   1  10
BRANCH   4  20
ATOM     20  N   UNL     1       0.298  10.877  18.779  0.00  0.00    +0.000 N 
ATOM     21  C   UNL     1       0.884  12.123  19.005  0.00  0.00    +0.000 C 
ATOM     22  O   UNL     1       2.072  12.303  19.284  0.00  0.00    +0.000 OA
ATOM     23  H   UNL     1      -0.715  10.848  18.661  0.00  0.00    +0.000 HD
BRANCH  21  24
ATOM     24  C   UNL     1      -0.077  13.317  18.921  0.00  0.00    +0.000 C 
ATOM     25  C   UNL     1       0.723  14.624  18.852  0.00  0.00    +0.000 C 
BRANCH  24  26
ATOM     26  C   UNL     1      -0.950  13.290  20.196  0.00  0.00    +0.000 C 
ATOM     27  F   UNL     1      -0.279  12.886  21.297  0.00  0.00    +0.000 F 
ATOM     28  F   UNL     1      -1.474  14.511  20.483  0.00  0.00    +0.000 F 
ATOM     29  F   UNL     1      -2.003  12.447  20.057  0.00  0.00    +0.000 F 
ENDBRANCH  24  26
BRANCH  24  30
ATOM     30  O   UNL     1      -0.849  13.209  17.704  0.00  0.00    +0.000 OA
ATOM     31  H   UNL     1      -1.267  12.328  17.693  0.00  0.00    +0.000 HD
ENDBRANCH  24  30
ENDBRANCH  21  24
ENDBRANCH   4  20
TORSDOF 9
ENDMDL
