MODEL 1
REMARK VINA RESULT:      -8.7      0.000      0.000
REMARK  Name = 
REMARK  8 active torsions:
REMARK  status: ('A' for Active; 'I' for Inactive)
REMARK    1  A    between atoms: C_2  and  C_3
REMARK    2  A    between atoms: C_4  and  C_5
REMARK    3  A    between atoms: N_7  and  C_8
REMARK    4  A    between atoms: C_8  and  C_9
REMARK    5  A    between atoms: C_9  and  C_10
REMARK    6  A    between atoms: C_17  and  C_18
REMARK    7  A    between atoms: C_21  and  O_22
REMARK    8  A    between atoms: O_22  and  C_23
REMARK                            x       y       z     vdW  Elec       q    Type
REMARK                         _______ _______ _______ _____ _____    ______ ____
ROOT
ATOM      1  C   UNL     1       2.935   3.345  19.744  0.00  0.00    +0.000 C 
ATOM      2  C   UNL     1       3.413   4.550  19.386  0.00  0.00    +0.000 C 
ATOM      3  C   UNL     1       4.899   4.466  19.230  0.00  0.00    +0.000 C 
ATOM      4  O   UNL     1       5.270   3.122  19.594  0.00  0.00    +0.000 OA
ATOM      5  C   UNL     1       4.077   2.406  19.946  0.00  0.00    +0.000 C 
ENDROOT
BRANCH   3   6
ATOM      6  C   UNL     1       5.389   4.714  17.814  0.00  0.00    +0.000 A 
ATOM      7  C   UNL     1       4.839   3.995  16.744  0.00  0.00    +0.000 A 
ATOM      8  C   UNL     1       5.422   4.062  15.477  0.00  0.00    +0.000 A 
ATOM      9  C   UNL     1       6.531   4.878  15.247  0.00  0.00    +0.000 A 
ATOM     10  C   UNL     1       7.049   5.644  16.289  0.00  0.00    +0.000 A 
ATOM     11  C   UNL     1       6.476   5.569  17.562  0.00  0.00    +0.000 A 
BRANCH   9  12
ATOM     12  O   UNL     1       7.054   4.802  13.986  0.00  0.00    +0.000 OA
ATOM     13  C   UNL     1       6.439   3.857  13.118  0.00  0.00    +0.000 C 
ENDBRANCH   9  12
ENDBRANCH   3   6
BRANCH   2  14
ATOM     14  C   UNL     1       2.624   5.799  19.241  0.00  0.00    +0.000 C 
ATOM     15  O   UNL     1       2.104   6.104  18.170  0.00  0.00    +0.000 OA
ATOM     16  N   UNL     1       2.473   6.574  20.361  0.00  0.00    +0.000 N 
ATOM     17  H   UNL     1       2.989   6.380  21.206  0.00  0.00    +0.000 HD
BRANCH  16  18
ATOM     18  C   UNL     1       1.745   7.835  20.331  0.00  0.00    +0.000 C 
BRANCH  18  19
ATOM     19  C   UNL     1       0.850   8.017  21.558  0.00  0.00    +0.000 C 
BRANCH  19  20
ATOM     20  C   UNL     1       0.127   9.339  21.540  0.00  0.00    +0.000 A 
ATOM     21  C   UNL     1      -0.133   9.997  20.330  0.00  0.00    +0.000 A 
ATOM     22  C   UNL     1      -0.806  11.222  20.320  0.00  0.00    +0.000 A 
ATOM     23  C   UNL     1      -1.220  11.807  21.518  0.00  0.00    +0.000 A 
ATOM     24  C   UNL     1      -0.954  11.168  22.727  0.00  0.00    +0.000 A 
ATOM     25  C   UNL     1      -0.282   9.947  22.731  0.00  0.00    +0.000 A 
ATOM     26  F   UNL     1      -0.028   9.352  23.904  0.00  0.00    +0.000 F 
ENDBRANCH  19  20
ENDBRANCH  18  19
ENDBRANCH  16  18
ENDBRANCH   2  14
BRANCH   1  28
ATOM     27  C   UNL     1       0.752   2.525  18.929  0.00  0.00    +0.000 C 
ATOM     28  C   UNL     1       1.560   2.937  19.912  0.00  0.00    +0.000 C 
ENDBRANCH   1  28
TORSDOF 7
ENDMDL
MODEL 2
REMARK VINA RESULT:      -8.4      1.077      1.381
REMARK  Name = 
REMARK  8 active torsions:
REMARK  status: ('A' for Active; 'I' for Inactive)
REMARK    1  A    between atoms: C_2  and  C_3
REMARK    2  A    between atoms: C_4  and  C_5
REMARK    3  A    between atoms: N_7  and  C_8
REMARK    4  A    between atoms: C_8  and  C_9
REMARK    5  A    between atoms: C_9  and  C_10
REMARK    6  A    between atoms: C_17  and  C_18
REMARK    7  A    between atoms: C_21  and  O_22
REMARK    8  A    between atoms: O_22  and  C_23
REMARK                            x       y       z     vdW  Elec       q    Type
REMARK                         _______ _______ _______ _____ _____    ______ ____
ROOT
ATOM      1  C   UNL     1       2.695   3.689  19.710  0.00  0.00    +0.000 C 
ATOM      2  C   UNL     1       3.290   4.876  19.496  0.00  0.00    +0.000 C 
ATOM      3  C   UNL     1       4.775   4.689  19.483  0.00  0.00    +0.000 C 
ATOM      4  O   UNL     1       5.012   3.298  19.776  0.00  0.00    +0.000 OA
ATOM      5  C   UNL     1       3.742   2.653  19.950  0.00  0.00    +0.000 C 
ENDROOT
BRANCH   3   6
ATOM      6  C   UNL     1       5.426   4.999  18.146  0.00  0.00    +0.000 A 
ATOM      7  C   UNL     1       5.166   4.187  17.033  0.00  0.00    +0.000 A 
ATOM      8  C   UNL     1       5.916   4.335  15.864  0.00  0.00    +0.000 A 
ATOM      9  C   UNL     1       6.900   5.319  15.771  0.00  0.00    +0.000 A 
ATOM     10  C   UNL     1       7.125   6.171  16.849  0.00  0.00    +0.000 A 
ATOM     11  C   UNL     1       6.386   6.018  18.026  0.00  0.00    +0.000 A 
BRANCH   9  12
ATOM     12  O   UNL     1       7.612   5.317  14.603  0.00  0.00    +0.000 OA
ATOM     13  C   UNL     1       7.017   4.616  13.517  0.00  0.00    +0.000 C 
ENDBRANCH   9  12
ENDBRANCH   3   6
BRANCH   2  14
ATOM     14  C   UNL     1       2.608   6.188  19.372  0.00  0.00    +0.000 C 
ATOM     15  O   UNL     1       2.474   6.737  18.280  0.00  0.00    +0.000 OA
ATOM     16  N   UNL     1       2.105   6.741  20.522  0.00  0.00    +0.000 N 
ATOM     17  H   UNL     1       2.312   6.345  21.426  0.00  0.00    +0.000 HD
BRANCH  16  18
ATOM     18  C   UNL     1       1.444   8.038  20.525  0.00  0.00    +0.000 C 
BRANCH  18  19
ATOM     19  C   UNL     1       1.511   8.718  21.894  0.00  0.00    +0.000 C 
BRANCH  19  20
ATOM     20  C   UNL     1       0.511   9.839  22.019  0.00  0.00    +0.000 A 
ATOM     21  C   UNL     1      -0.410   9.863  23.075  0.00  0.00    +0.000 A 
ATOM     22  C   UNL     1      -1.333  10.905  23.187  0.00  0.00    +0.000 A 
ATOM     23  C   UNL     1      -1.353  11.931  22.240  0.00  0.00    +0.000 A 
ATOM     24  C   UNL     1      -0.452  11.909  21.178  0.00  0.00    +0.000 A 
ATOM     25  C   UNL     1       0.467  10.867  21.073  0.00  0.00    +0.000 A 
ATOM     26  F   UNL     1       1.321  10.859  20.040  0.00  0.00    +0.000 F 
ENDBRANCH  19  20
ENDBRANCH  18  19
ENDBRANCH  16  18
ENDBRANCH   2  14
BRANCH   1  28
ATOM     27  C   UNL     1       0.698   2.465  18.924  0.00  0.00    +0.000 C 
ATOM     28  C   UNL     1       1.285   3.376  19.708  0.00  0.00    +0.000 C 
ENDBRANCH   1  28
TORSDOF 7
ENDMDL
MODEL 3
REMARK VINA RESULT:      -8.3      0.419      1.015
REMARK  Name = 
REMARK  8 active torsions:
REMARK  status: ('A' for Active; 'I' for Inactive)
REMARK    1  A    between atoms: C_2  and  C_3
REMARK    2  A    between atoms: C_4  and  C_5
REMARK    3  A    between atoms: N_7  and  C_8
REMARK    4  A    between atoms: C_8  and  C_9
REMARK    5  A    between atoms: C_9  and  C_10
REMARK    6  A    between atoms: C_17  and  C_18
REMARK    7  A    between atoms: C_21  and  O_22
REMARK    8  A    between atoms: O_22  and  C_23
REMARK                            x       y       z     vdW  Elec       q    Type
REMARK                         _______ _______ _______ _____ _____    ______ ____
ROOT
ATOM      1  C   UNL     1       2.680   3.424  19.817  0.00  0.00    +0.000 C 
ATOM      2  C   UNL     1       3.330   4.564  19.521  0.00  0.00    +0.000 C 
ATOM      3  C   UNL     1       4.801   4.296  19.473  0.00  0.00    +0.000 C 
ATOM      4  O   UNL     1       4.974   2.912  19.835  0.00  0.00    +0.000 OA
ATOM      5  C   UNL     1       3.678   2.347  20.083  0.00  0.00    +0.000 C 
ENDROOT
BRANCH   3   6
ATOM      6  C   UNL     1       5.423   4.498  18.102  0.00  0.00    +0.000 A 
ATOM      7  C   UNL     1       6.544   5.328  17.955  0.00  0.00    +0.000 A 
ATOM      8  C   UNL     1       6.992   5.684  16.681  0.00  0.00    +0.000 A 
ATOM      9  C   UNL     1       6.362   5.186  15.540  0.00  0.00    +0.000 A 
ATOM     10  C   UNL     1       5.285   4.313  15.675  0.00  0.00    +0.000 A 
ATOM     11  C   UNL     1       4.825   3.964  16.948  0.00  0.00    +0.000 A 
BRANCH   9  12
ATOM     12  O   UNL     1       6.847   5.665  14.355  0.00  0.00    +0.000 OA
ATOM     13  C   UNL     1       7.192   4.682  13.385  0.00  0.00    +0.000 C 
ENDBRANCH   9  12
ENDBRANCH   3   6
BRANCH   2  14
ATOM     14  C   UNL     1       2.714   5.903  19.345  0.00  0.00    +0.000 C 
ATOM     15  O   UNL     1       2.544   6.386  18.228  0.00  0.00    +0.000 OA
ATOM     16  N   UNL     1       2.312   6.558  20.481  0.00  0.00    +0.000 N 
ATOM     17  H   UNL     1       2.551   6.211  21.397  0.00  0.00    +0.000 HD
BRANCH  16  18
ATOM     18  C   UNL     1       1.724   7.889  20.433  0.00  0.00    +0.000 C 
BRANCH  18  19
ATOM     19  C   UNL     1       0.565   8.046  21.418  0.00  0.00    +0.000 C 
BRANCH  19  20
ATOM     20  C   UNL     1      -0.002   9.443  21.408  0.00  0.00    +0.000 A 
ATOM     21  C   UNL     1      -0.220  10.118  20.199  0.00  0.00    +0.000 A 
ATOM     22  C   UNL     1      -0.748  11.412  20.196  0.00  0.00    +0.000 A 
ATOM     23  C   UNL     1      -1.056  12.049  21.399  0.00  0.00    +0.000 A 
ATOM     24  C   UNL     1      -0.829  11.392  22.607  0.00  0.00    +0.000 A 
ATOM     25  C   UNL     1      -0.303  10.102  22.603  0.00  0.00    +0.000 A 
ATOM     26  F   UNL     1      -0.084   9.489  23.775  0.00  0.00    +0.000 F 
ENDBRANCH  19  20
ENDBRANCH  18  19
ENDBRANCH  16  18
ENDBRANCH   2  14
BRANCH   1  28
ATOM     27  C   UNL     1       0.546   2.526  18.956  0.00  0.00    +0.000 C 
ATOM     28  C   UNL     1       1.256   3.188  19.876  0.00  0.00    +0.000 C 
ENDBRANCH   1  28
TORSDOF 7
ENDMDL
MODEL 4
REMARK VINA RESULT:      -8.2      1.038      1.663
REMARK  Name = 
REMARK  8 active torsions:
REMARK  status: ('A' for Active; 'I' for Inactive)
REMARK    1  A    between atoms: C_2  and  C_3
REMARK    2  A    between atoms: C_4  and  C_5
REMARK    3  A    between atoms: N_7  and  C_8
REMARK    4  A    between atoms: C_8  and  C_9
REMARK    5  A    between atoms: C_9  and  C_10
REMARK    6  A    between atoms: C_17  and  C_18
REMARK    7  A    between atoms: C_21  and  O_22
REMARK    8  A    between atoms: O_22  and  C_23
REMARK                            x       y       z     vdW  Elec       q    Type
REMARK                         _______ _______ _______ _____ _____    ______ ____
ROOT
ATOM      1  C   UNL     1       2.866   3.220  19.923  0.00  0.00    +0.000 C 
ATOM      2  C   UNL     1       3.437   4.393  19.593  0.00  0.00    +0.000 C 
ATOM      3  C   UNL     1       4.922   4.220  19.533  0.00  0.00    +0.000 C 
ATOM      4  O   UNL     1       5.189   2.859  19.924  0.00  0.00    +0.000 OA
ATOM      5  C   UNL     1       3.935   2.217  20.200  0.00  0.00    +0.000 C 
ENDROOT
BRANCH   3   6
ATOM      6  C   UNL     1       5.515   4.430  18.151  0.00  0.00    +0.000 A 
ATOM      7  C   UNL     1       6.630   5.263  17.983  0.00  0.00    +0.000 A 
ATOM      8  C   UNL     1       7.051   5.626  16.702  0.00  0.00    +0.000 A 
ATOM      9  C   UNL     1       6.398   5.132  15.572  0.00  0.00    +0.000 A 
ATOM     10  C   UNL     1       5.327   4.255  15.726  0.00  0.00    +0.000 A 
ATOM     11  C   UNL     1       4.895   3.899  17.007  0.00  0.00    +0.000 A 
BRANCH   9  12
ATOM     12  O   UNL     1       6.858   5.617  14.380  0.00  0.00    +0.000 OA
ATOM     13  C   UNL     1       7.044   4.652  13.350  0.00  0.00    +0.000 C 
ENDBRANCH   9  12
ENDBRANCH   3   6
BRANCH   2  14
ATOM     14  C   UNL     1       2.733   5.685  19.394  0.00  0.00    +0.000 C 
ATOM     15  O   UNL     1       2.349   6.037  18.282  0.00  0.00    +0.000 OA
ATOM     16  N   UNL     1       2.502   6.446  20.511  0.00  0.00    +0.000 N 
ATOM     17  H   UNL     1       2.913   6.209  21.400  0.00  0.00    +0.000 HD
BRANCH  16  18
ATOM     18  C   UNL     1       1.848   7.745  20.433  0.00  0.00    +0.000 C 
BRANCH  18  19
ATOM     19  C   UNL     1       0.419   7.708  20.978  0.00  0.00    +0.000 C 
BRANCH  19  20
ATOM     20  C   UNL     1      -0.076   9.079  21.362  0.00  0.00    +0.000 A 
ATOM     21  C   UNL     1      -0.335   9.398  22.702  0.00  0.00    +0.000 A 
ATOM     22  C   UNL     1      -0.792  10.671  23.051  0.00  0.00    +0.000 A 
ATOM     23  C   UNL     1      -1.003  11.637  22.065  0.00  0.00    +0.000 A 
ATOM     24  C   UNL     1      -0.762  11.326  20.729  0.00  0.00    +0.000 A 
ATOM     25  C   UNL     1      -0.307  10.054  20.387  0.00  0.00    +0.000 A 
ATOM     26  F   UNL     1      -0.088   9.770  19.096  0.00  0.00    +0.000 F 
ENDBRANCH  19  20
ENDBRANCH  18  19
ENDBRANCH  16  18
ENDBRANCH   2  14
BRANCH   1  28
ATOM     27  C   UNL     1       0.674   2.614  18.960  0.00  0.00    +0.000 C 
ATOM     28  C   UNL     1       1.462   2.894  20.004  0.00  0.00    +0.000 C 
ENDBRANCH   1  28
TORSDOF 7
ENDMDL
MODEL 5
REMARK VINA RESULT:      -7.8      2.226      2.693
REMARK  Name = 
REMARK  8 active torsions:
REMARK  status: ('A' for Active; 'I' for Inactive)
REMARK    1  A    between atoms: C_2  and  C_3
REMARK    2  A    between atoms: C_4  and  C_5
REMARK    3  A    between atoms: N_7  and  C_8
REMARK    4  A    between atoms: C_8  and  C_9
REMARK    5  A    between atoms: C_9  and  C_10
REMARK    6  A    between atoms: C_17  and  C_18
REMARK    7  A    between atoms: C_21  and  O_22
REMARK    8  A    between atoms: O_22  and  C_23
REMARK                            x       y       z     vdW  Elec       q    Type
REMARK                         _______ _______ _______ _____ _____    ______ ____
ROOT
ATOM      1  C   UNL     1       2.699   3.413  18.498  0.00  0.00    +0.000 C 
ATOM      2  C   UNL     1       3.331   4.190  19.395  0.00  0.00    +0.000 C 
ATOM      3  C   UNL     1       4.806   3.958  19.298  0.00  0.00    +0.000 C 
ATOM      4  O   UNL     1       4.990   2.923  18.312  0.00  0.00    +0.000 OA
ATOM      5  C   UNL     1       3.699   2.542  17.814  0.00  0.00    +0.000 C 
ENDROOT
BRANCH   3   6
ATOM      6  C   UNL     1       5.597   5.173  18.848  0.00  0.00    +0.000 A 
ATOM      7  C   UNL     1       5.112   5.982  17.811  0.00  0.00    +0.000 A 
ATOM      8  C   UNL     1       5.923   6.971  17.252  0.00  0.00    +0.000 A 
ATOM      9  C   UNL     1       7.209   7.199  17.744  0.00  0.00    +0.000 A 
ATOM     10  C   UNL     1       7.679   6.442  18.814  0.00  0.00    +0.000 A 
ATOM     11  C   UNL     1       6.875   5.442  19.368  0.00  0.00    +0.000 A 
BRANCH   9  12
ATOM     12  O   UNL     1       7.930   8.143  17.067  0.00  0.00    +0.000 OA
ATOM     13  C   UNL     1       8.295   9.297  17.816  0.00  0.00    +0.000 C 
ENDBRANCH   9  12
ENDBRANCH   3   6
BRANCH   2  14
ATOM     14  C   UNL     1       2.686   5.084  20.390  0.00  0.00    +0.000 C 
ATOM     15  O   UNL     1       2.378   4.676  21.508  0.00  0.00    +0.000 OA
ATOM     16  N   UNL     1       2.484   6.387  20.017  0.00  0.00    +0.000 N 
ATOM     17  H   UNL     1       2.635   6.690  19.068  0.00  0.00    +0.000 HD
BRANCH  16  18
ATOM     18  C   UNL     1       1.833   7.346  20.899  0.00  0.00    +0.000 C 
BRANCH  18  19
ATOM     19  C   UNL     1       1.304   8.565  20.140  0.00  0.00    +0.000 C 
BRANCH  19  20
ATOM     20  C   UNL     1       0.561   9.515  21.043  0.00  0.00    +0.000 A 
ATOM     21  C   UNL     1       0.018   9.073  22.258  0.00  0.00    +0.000 A 
ATOM     22  C   UNL     1      -0.668   9.960  23.091  0.00  0.00    +0.000 A 
ATOM     23  C   UNL     1      -0.827  11.295  22.718  0.00  0.00    +0.000 A 
ATOM     24  C   UNL     1      -0.304  11.742  21.507  0.00  0.00    +0.000 A 
ATOM     25  C   UNL     1       0.380  10.853  20.680  0.00  0.00    +0.000 A 
ATOM     26  F   UNL     1       0.868  11.298  19.515  0.00  0.00    +0.000 F 
ENDBRANCH  19  20
ENDBRANCH  18  19
ENDBRANCH  16  18
ENDBRANCH   2  14
BRANCH   1  28
ATOM     27  C   UNL     1       0.376   2.632  18.804  0.00  0.00    +0.000 C 
ATOM     28  C   UNL     1       1.292   3.374  18.174  0.00  0.00    +0.000 C 
ENDBRANCH   1  28
TORSDOF 7
ENDMDL
MODEL 6
REMARK VINA RESULT:      -7.7      1.912      4.582
REMARK  Name = 
REMARK  8 active torsions:
REMARK  status: ('A' for Active; 'I' for Inactive)
REMARK    1  A    between atoms: C_2  and  C_3
REMARK    2  A    between atoms: C_4  and  C_5
REMARK    3  A    between atoms: N_7  and  C_8
REMARK    4  A    between atoms: C_8  and  C_9
REMARK    5  A    between atoms: C_9  and  C_10
REMARK    6  A    between atoms: C_17  and  C_18
REMARK    7  A    between atoms: C_21  and  O_22
REMARK    8  A    between atoms: O_22  and  C_23
REMARK                            x       y       z     vdW  Elec       q    Type
REMARK                         _______ _______ _______ _____ _____    ______ ____
ROOT
ATOM      1  C   UNL     1       6.616   5.890  17.009  0.00  0.00    +0.000 C 
ATOM      2  C   UNL     1       5.292   5.763  16.811  0.00  0.00    +0.000 C 
ATOM      3  C   UNL     1       4.977   4.342  16.463  0.00  0.00    +0.000 C 
ATOM      4  O   UNL     1       6.240   3.650  16.404  0.00  0.00    +0.000 OA
ATOM      5  C   UNL     1       7.282   4.588  16.710  0.00  0.00    +0.000 C 
ENDROOT
BRANCH   3   6
ATOM      6  C   UNL     1       4.107   3.632  17.484  0.00  0.00    +0.000 A 
ATOM      7  C   UNL     1       2.801   3.248  17.149  0.00  0.00    +0.000 A 
ATOM      8  C   UNL     1       1.928   2.788  18.137  0.00  0.00    +0.000 A 
ATOM      9  C   UNL     1       2.354   2.660  19.460  0.00  0.00    +0.000 A 
ATOM     10  C   UNL     1       3.667   2.981  19.793  0.00  0.00    +0.000 A 
ATOM     11  C   UNL     1       4.541   3.455  18.809  0.00  0.00    +0.000 A 
BRANCH   9  12
ATOM     12  O   UNL     1       1.387   2.269  20.344  0.00  0.00    +0.000 OA
ATOM     13  C   UNL     1       1.583   2.675  21.694  0.00  0.00    +0.000 C 
ENDBRANCH   9  12
ENDBRANCH   3   6
BRANCH   2  14
ATOM     14  C   UNL     1       4.292   6.859  16.846  0.00  0.00    +0.000 C 
ATOM     15  O   UNL     1       4.147   7.621  15.893  0.00  0.00    +0.000 OA
ATOM     16  N   UNL     1       3.516   6.960  17.972  0.00  0.00    +0.000 N 
ATOM     17  H   UNL     1       3.711   6.407  18.793  0.00  0.00    +0.000 HD
BRANCH  16  18
ATOM     18  C   UNL     1       2.524   8.014  18.130  0.00  0.00    +0.000 C 
BRANCH  18  19
ATOM     19  C   UNL     1       1.931   8.044  19.540  0.00  0.00    +0.000 C 
BRANCH  19  20
ATOM     20  C   UNL     1       1.064   9.256  19.764  0.00  0.00    +0.000 A 
ATOM     21  C   UNL     1       1.051  10.309  18.838  0.00  0.00    +0.000 A 
ATOM     22  C   UNL     1       0.244  11.429  19.050  0.00  0.00    +0.000 A 
ATOM     23  C   UNL     1      -0.553  11.515  20.193  0.00  0.00    +0.000 A 
ATOM     24  C   UNL     1      -0.537  10.481  21.126  0.00  0.00    +0.000 A 
ATOM     25  C   UNL     1       0.270   9.366  20.909  0.00  0.00    +0.000 A 
ATOM     26  F   UNL     1       0.279   8.386  21.822  0.00  0.00    +0.000 F 
ENDBRANCH  19  20
ENDBRANCH  18  19
ENDBRANCH  16  18
ENDBRANCH   2  14
BRANCH   1  28
ATOM     27  C   UNL     1       8.122   7.104  18.544  0.00  0.00    +0.000 C 
ATOM     28  C   UNL     1       7.353   7.050  17.452  0.00  0.00    +0.000 C 
ENDBRANCH   1  28
TORSDOF 7
ENDMDL
MODEL 7
REMARK VINA RESULT:      -7.7      1.278      1.566
REMARK  Name = 
REMARK  8 active torsions:
REMARK  status: ('A' for Active; 'I' for Inactive)
REMARK    1  A    between atoms: C_2  and  C_3
REMARK    2  A    between atoms: C_4  and  C_5
REMARK    3  A    between atoms: N_7  and  C_8
REMARK    4  A    between atoms: C_8  and  C_9
REMARK    5  A    between atoms: C_9  and  C_10
REMARK    6  A    between atoms: C_17  and  C_18
REMARK    7  A    between atoms: C_21  and  O_22
REMARK    8  A    between atoms: O_22  and  C_23
REMARK                            x       y       z     vdW  Elec       q    Type
REMARK                         _______ _______ _______ _____ _____    ______ ____
ROOT
ATOM      1  C   UNL     1       2.937   3.189  19.770  0.00  0.00    +0.000 C 
ATOM      2  C   UNL     1       3.369   4.442  19.538  0.00  0.00    +0.000 C 
ATOM      3  C   UNL     1       4.865   4.456  19.530  0.00  0.00    +0.000 C 
ATOM      4  O   UNL     1       5.286   3.114  19.846  0.00  0.00    +0.000 OA
ATOM      5  C   UNL     1       4.113   2.307  20.029  0.00  0.00    +0.000 C 
ENDROOT
BRANCH   3   6
ATOM      6  C   UNL     1       5.475   4.828  18.190  0.00  0.00    +0.000 A 
ATOM      7  C   UNL     1       5.178   4.071  17.048  0.00  0.00    +0.000 A 
ATOM      8  C   UNL     1       5.890   4.274  15.865  0.00  0.00    +0.000 A 
ATOM      9  C   UNL     1       6.874   5.261  15.787  0.00  0.00    +0.000 A 
ATOM     10  C   UNL     1       7.135   6.060  16.897  0.00  0.00    +0.000 A 
ATOM     11  C   UNL     1       6.434   5.851  18.088  0.00  0.00    +0.000 A 
BRANCH   9  12
ATOM     12  O   UNL     1       7.549   5.313  14.599  0.00  0.00    +0.000 OA
ATOM     13  C   UNL     1       6.956   4.599  13.519  0.00  0.00    +0.000 C 
ENDBRANCH   9  12
ENDBRANCH   3   6
BRANCH   2  14
ATOM     14  C   UNL     1       2.518   5.649  19.391  0.00  0.00    +0.000 C 
ATOM     15  O   UNL     1       1.869   6.091  20.336  0.00  0.00    +0.000 OA
ATOM     16  N   UNL     1       2.518   6.266  18.166  0.00  0.00    +0.000 N 
ATOM     17  H   UNL     1       2.961   5.842  17.366  0.00  0.00    +0.000 HD
BRANCH  16  18
ATOM     18  C   UNL     1       1.698   7.439  17.898  0.00  0.00    +0.000 C 
BRANCH  18  19
ATOM     19  C   UNL     1       2.202   8.680  18.637  0.00  0.00    +0.000 C 
BRANCH  19  20
ATOM     20  C   UNL     1       1.070   9.526  19.160  0.00  0.00    +0.000 A 
ATOM     21  C   UNL     1       0.248  10.246  18.283  0.00  0.00    +0.000 A 
ATOM     22  C   UNL     1      -0.801  11.027  18.774  0.00  0.00    +0.000 A 
ATOM     23  C   UNL     1      -1.036  11.104  20.148  0.00  0.00    +0.000 A 
ATOM     24  C   UNL     1      -0.216  10.404  21.030  0.00  0.00    +0.000 A 
ATOM     25  C   UNL     1       0.829   9.627  20.534  0.00  0.00    +0.000 A 
ATOM     26  F   UNL     1       1.612   8.967  21.398  0.00  0.00    +0.000 F 
ENDBRANCH  19  20
ENDBRANCH  18  19
ENDBRANCH  16  18
ENDBRANCH   2  14
BRANCH   1  28
ATOM     27  C   UNL     1       0.881   2.361  18.681  0.00  0.00    +0.000 C 
ATOM     28  C   UNL     1       1.582   2.690  19.771  0.00  0.00    +0.000 C 
ENDBRANCH   1  28
TORSDOF 7
ENDMDL
MODEL 8
REMARK VINA RESULT:      -7.6      2.157      4.790
REMARK  Name = 
REMARK  8 active torsions:
REMARK  status: ('A' for Active; 'I' for Inactive)
REMARK    1  A    between atoms: C_2  and  C_3
REMARK    2  A    between atoms: C_4  and  C_5
REMARK    3  A    between atoms: N_7  and  C_8
REMARK    4  A    between atoms: C_8  and  C_9
REMARK    5  A    between atoms: C_9  and  C_10
REMARK    6  A    between atoms: C_17  and  C_18
REMARK    7  A    between atoms: C_21  and  O_22
REMARK    8  A    between atoms: O_22  and  C_23
REMARK                            x       y       z     vdW  Elec       q    Type
REMARK                         _______ _______ _______ _____ _____    ______ ____
ROOT
ATOM      1  C   UNL     1       7.065   5.955  17.666  0.00  0.00    +0.000 C 
ATOM      2  C   UNL     1       5.837   5.799  17.139  0.00  0.00    +0.000 C 
ATOM      3  C   UNL     1       5.593   4.346  16.878  0.00  0.00    +0.000 C 
ATOM      4  O   UNL     1       6.809   3.659  17.232  0.00  0.00    +0.000 OA
ATOM      5  C   UNL     1       7.755   4.632  17.699  0.00  0.00    +0.000 C 
ENDROOT
BRANCH   3   6
ATOM      6  C   UNL     1       4.467   3.749  17.704  0.00  0.00    +0.000 A 
ATOM      7  C   UNL     1       3.183   3.621  17.155  0.00  0.00    +0.000 A 
ATOM      8  C   UNL     1       2.103   3.272  17.967  0.00  0.00    +0.000 A 
ATOM      9  C   UNL     1       2.289   3.002  19.323  0.00  0.00    +0.000 A 
ATOM     10  C   UNL     1       3.570   3.066  19.867  0.00  0.00    +0.000 A 
ATOM     11  C   UNL     1       4.653   3.429  19.060  0.00  0.00    +0.000 A 
BRANCH   9  12
ATOM     12  O   UNL     1       1.145   2.742  20.025  0.00  0.00    +0.000 OA
ATOM     13  C   UNL     1       1.272   2.755  21.442  0.00  0.00    +0.000 C 
ENDBRANCH   9  12
ENDBRANCH   3   6
BRANCH   2  14
ATOM     14  C   UNL     1       4.890   6.886  16.788  0.00  0.00    +0.000 C 
ATOM     15  O   UNL     1       4.846   7.351  15.651  0.00  0.00    +0.000 OA
ATOM     16  N   UNL     1       4.044   7.319  17.777  0.00  0.00    +0.000 N 
ATOM     17  H   UNL     1       4.156   7.015  18.731  0.00  0.00    +0.000 HD
BRANCH  16  18
ATOM     18  C   UNL     1       3.094   8.400  17.555  0.00  0.00    +0.000 C 
BRANCH  18  19
ATOM     19  C   UNL     1       1.692   8.052  18.059  0.00  0.00    +0.000 C 
BRANCH  19  20
ATOM     20  C   UNL     1       1.356   8.771  19.340  0.00  0.00    +0.000 A 
ATOM     21  C   UNL     1       0.958  10.115  19.324  0.00  0.00    +0.000 A 
ATOM     22  C   UNL     1       0.645  10.775  20.515  0.00  0.00    +0.000 A 
ATOM     23  C   UNL     1       0.734  10.103  21.736  0.00  0.00    +0.000 A 
ATOM     24  C   UNL     1       1.143   8.772  21.764  0.00  0.00    +0.000 A 
ATOM     25  C   UNL     1       1.453   8.119  20.573  0.00  0.00    +0.000 A 
ATOM     26  F   UNL     1       1.852   6.841  20.621  0.00  0.00    +0.000 F 
ENDBRANCH  19  20
ENDBRANCH  18  19
ENDBRANCH  16  18
ENDBRANCH   2  14
BRANCH   1  28
ATOM     27  C   UNL     1       7.905   8.266  17.436  0.00  0.00    +0.000 C 
ATOM     28  C   UNL     1       7.686   7.162  18.158  0.00  0.00    +0.000 C 
ENDBRANCH   1  28
TORSDOF 7
ENDMDL
MODEL 9
REMARK VINA RESULT:      -7.6      2.250      4.891
REMARK  Name = 
REMARK  8 active torsions:
REMARK  status: ('A' for Active; 'I' for Inactive)
REMARK    1  A    between atoms: C_2  and  C_3
REMARK    2  A    between atoms: C_4  and  C_5
REMARK    3  A    between atoms: N_7  and  C_8
REMARK    4  A    between atoms: C_8  and  C_9
REMARK    5  A    between atoms: C_9  and  C_10
REMARK    6  A    between atoms: C_17  and  C_18
REMARK    7  A    between atoms: C_21  and  O_22
REMARK    8  A    between atoms: O_22  and  C_23
REMARK                            x       y       z     vdW  Elec       q    Type
REMARK                         _______ _______ _______ _____ _____    ______ ____
ROOT
ATOM      1  C   UNL     1       6.755   5.793  16.953  0.00  0.00    +0.000 C 
ATOM      2  C   UNL     1       5.441   5.758  16.670  0.00  0.00    +0.000 C 
ATOM      3  C   UNL     1       5.021   4.340  16.443  0.00  0.00    +0.000 C 
ATOM      4  O   UNL     1       6.216   3.541  16.549  0.00  0.00    +0.000 OA
ATOM      5  C   UNL     1       7.317   4.416  16.837  0.00  0.00    +0.000 C 
ENDROOT
BRANCH   3   6
ATOM      6  C   UNL     1       4.024   3.818  17.463  0.00  0.00    +0.000 A 
ATOM      7  C   UNL     1       2.664   3.728  17.133  0.00  0.00    +0.000 A 
ATOM      8  C   UNL     1       1.718   3.451  18.121  0.00  0.00    +0.000 A 
ATOM      9  C   UNL     1       2.113   3.217  19.439  0.00  0.00    +0.000 A 
ATOM     10  C   UNL     1       3.466   3.244  19.766  0.00  0.00    +0.000 A 
ATOM     11  C   UNL     1       4.416   3.533  18.782  0.00  0.00    +0.000 A 
BRANCH   9  12
ATOM     12  O   UNL     1       1.089   3.029  20.326  0.00  0.00    +0.000 OA
ATOM     13  C   UNL     1       1.476   2.736  21.664  0.00  0.00    +0.000 C 
ENDBRANCH   9  12
ENDBRANCH   3   6
BRANCH   2  14
ATOM     14  C   UNL     1       4.545   6.932  16.520  0.00  0.00    +0.000 C 
ATOM     15  O   UNL     1       4.372   7.467  15.427  0.00  0.00    +0.000 OA
ATOM     16  N   UNL     1       3.895   7.368  17.646  0.00  0.00    +0.000 N 
ATOM     17  H   UNL     1       4.122   7.000  18.557  0.00  0.00    +0.000 HD
BRANCH  16  18
ATOM     18  C   UNL     1       3.017   8.529  17.625  0.00  0.00    +0.000 C 
BRANCH  18  19
ATOM     19  C   UNL     1       1.587   8.181  18.044  0.00  0.00    +0.000 C 
BRANCH  19  20
ATOM     20  C   UNL     1       1.214   8.812  19.361  0.00  0.00    +0.000 A 
ATOM     21  C   UNL     1       1.547   8.192  20.573  0.00  0.00    +0.000 A 
ATOM     22  C   UNL     1       1.200   8.783  21.790  0.00  0.00    +0.000 A 
ATOM     23  C   UNL     1       0.510   9.996  21.811  0.00  0.00    +0.000 A 
ATOM     24  C   UNL     1       0.162  10.614  20.612  0.00  0.00    +0.000 A 
ATOM     25  C   UNL     1       0.510  10.020  19.401  0.00  0.00    +0.000 A 
ATOM     26  F   UNL     1       0.159  10.624  18.258  0.00  0.00    +0.000 F 
ENDBRANCH  19  20
ENDBRANCH  18  19
ENDBRANCH  16  18
ENDBRANCH   2  14
BRANCH   1  28
ATOM     27  C   UNL     1       8.072   7.140  18.551  0.00  0.00    +0.000 C 
ATOM     28  C   UNL     1       7.564   6.928  17.332  0.00  0.00    +0.000 C 
ENDBRANCH   1  28
TORSDOF 7
ENDMDL
