MODEL 1
REMARK VINA RESULT:      -7.0      0.000      0.000
REMARK  Name = 
REMARK  7 active torsions:
REMARK  status: ('A' for Active; 'I' for Inactive)
REMARK    1  A    between atoms: C_1  and  C_2
REMARK    2  A    between atoms: C_5  and  N_6
REMARK    3  A    between atoms: N_9  and  C_10
REMARK    4  A    between atoms: C_10  and  N_12
REMARK    5  A    between atoms: N_12  and  C_13
REMARK    6  A    between atoms: C_16  and  S_17
REMARK    7  A    between atoms: S_17  and  N_18
REMARK                            x       y       z     vdW  Elec       q    Type
REMARK                         _______ _______ _______ _____ _____    ______ ____
ROOT
ATOM      1  C   UNL     1       2.156   4.110  20.616  0.00  0.00    +0.000 C 
ATOM      2  S   UNL     1       0.672   3.571  20.089  0.00  0.00    +0.000 S 
ENDROOT
BRANCH   1   6
ATOM      3  N   UNL     1       4.456   4.347  18.729  0.00  0.00    +0.000 N 
ATOM      4  C   UNL     1       4.334   3.278  19.579  0.00  0.00    +0.000 C 
ATOM      5  O   UNL     1       5.058   2.287  19.617  0.00  0.00    +0.000 OA
ATOM      6  N   UNL     1       3.361   3.424  20.551  0.00  0.00    +0.000 N 
ATOM      7  H   UNL     1       4.057   5.226  19.030  0.00  0.00    +0.000 HD
ATOM      8  H   UNL     1       3.465   2.717  21.267  0.00  0.00    +0.000 HD
BRANCH   3  13
ATOM      9  C   UNL     1       6.923   4.588  14.217  0.00  0.00    +0.000 C 
ATOM     10  C   UNL     1       6.630   4.509  15.673  0.00  0.00    +0.000 A 
ATOM     11  C   UNL     1       7.493   4.714  16.732  0.00  0.00    +0.000 A 
ATOM     12  C   UNL     1       6.820   4.684  17.986  0.00  0.00    +0.000 A 
ATOM     13  C   UNL     1       5.488   4.406  17.829  0.00  0.00    +0.000 A 
ATOM     14  S   UNL     1       5.051   4.120  16.216  0.00  0.00    +0.000 S 
ENDBRANCH   3  13
ENDBRANCH   1   6
BRANCH   1  15
ATOM     15  N   UNL     1       2.251   5.340  21.232  0.00  0.00    +0.000 N 
ATOM     16  H   UNL     1       2.281   5.320  22.249  0.00  0.00    +0.000 HD
BRANCH  15  17
ATOM     17  C   UNL     1       1.979   6.590  20.636  0.00  0.00    +0.000 A 
ATOM     18  C   UNL     1       2.421   6.917  19.344  0.00  0.00    +0.000 A 
ATOM     19  C   UNL     1       2.092   8.141  18.767  0.00  0.00    +0.000 A 
ATOM     20  C   UNL     1       1.303   9.042  19.479  0.00  0.00    +0.000 A 
ATOM     21  C   UNL     1       0.851   8.732  20.766  0.00  0.00    +0.000 A 
ATOM     22  C   UNL     1       1.177   7.496  21.335  0.00  0.00    +0.000 A 
BRANCH  20  23
ATOM     23  S   UNL     1       0.892  10.594  18.742  0.00  0.00    +0.000 S 
ATOM     24  O   UNL     1      -0.374  10.473  18.060  0.00  0.00    +0.000 OA
ATOM     25  O   UNL     1       1.174  11.656  19.680  0.00  0.00    +0.000 OA
BRANCH  23  26
ATOM     26  N   UNL     1       2.059  10.713  17.542  0.00  0.00    +0.000 NA
ATOM     27  H   UNL     1       2.693  11.484  17.750  0.00  0.00    +0.000 HD
ATOM     28  H   UNL     1       2.527   9.815  17.419  0.00  0.00    +0.000 HD
ENDBRANCH  23  26
ENDBRANCH  20  23
ENDBRANCH  15  17
ENDBRANCH   1  15
TORSDOF 6
ENDMDL
MODEL 2
REMARK VINA RESULT:      -7.0      3.926      5.822
REMARK  Name = 
REMARK  7 active torsions:
REMARK  status: ('A' for Active; 'I' for Inactive)
REMARK    1  A    between atoms: C_1  and  C_2
REMARK    2  A    between atoms: C_5  and  N_6
REMARK    3  A    between atoms: N_9  and  C_10
REMARK    4  A    between atoms: C_10  and  N_12
REMARK    5  A    between atoms: N_12  and  C_13
REMARK    6  A    between atoms: C_16  and  S_17
REMARK    7  A    between atoms: S_17  and  N_18
REMARK                            x       y       z     vdW  Elec       q    Type
REMARK                         _______ _______ _______ _____ _____    ______ ____
ROOT
ATOM      1  C   UNL     1       7.050   7.252  17.516  0.00  0.00    +0.000 C 
ATOM      2  S   UNL     1       7.823   8.690  17.841  0.00  0.00    +0.000 S 
ENDROOT
BRANCH   1   6
ATOM      3  N   UNL     1       6.997   5.651  14.998  0.00  0.00    +0.000 N 
ATOM      4  C   UNL     1       7.458   5.119  16.175  0.00  0.00    +0.000 C 
ATOM      5  O   UNL     1       7.807   3.958  16.368  0.00  0.00    +0.000 OA
ATOM      6  N   UNL     1       7.647   6.043  17.187  0.00  0.00    +0.000 N 
ATOM      7  H   UNL     1       7.097   6.648  14.868  0.00  0.00    +0.000 HD
ATOM      8  H   UNL     1       8.186   5.638  17.941  0.00  0.00    +0.000 HD
BRANCH   3  13
ATOM      9  C   UNL     1       5.079   2.463  11.438  0.00  0.00    +0.000 C 
ATOM     10  C   UNL     1       5.991   3.357  12.201  0.00  0.00    +0.000 A 
ATOM     11  C   UNL     1       7.184   3.917  11.788  0.00  0.00    +0.000 A 
ATOM     12  C   UNL     1       7.711   4.827  12.747  0.00  0.00    +0.000 A 
ATOM     13  C   UNL     1       6.924   4.878  13.868  0.00  0.00    +0.000 A 
ATOM     14  S   UNL     1       5.608   3.811  13.810  0.00  0.00    +0.000 S 
ENDBRANCH   3  13
ENDBRANCH   1   6
BRANCH   1  15
ATOM     15  N   UNL     1       5.672   7.209  17.513  0.00  0.00    +0.000 N 
ATOM     16  H   UNL     1       5.206   8.096  17.334  0.00  0.00    +0.000 HD
BRANCH  15  17
ATOM     17  C   UNL     1       4.872   6.175  18.045  0.00  0.00    +0.000 A 
ATOM     18  C   UNL     1       5.276   5.405  19.147  0.00  0.00    +0.000 A 
ATOM     19  C   UNL     1       4.440   4.426  19.678  0.00  0.00    +0.000 A 
ATOM     20  C   UNL     1       3.183   4.223  19.113  0.00  0.00    +0.000 A 
ATOM     21  C   UNL     1       2.761   4.982  18.017  0.00  0.00    +0.000 A 
ATOM     22  C   UNL     1       3.602   5.971  17.496  0.00  0.00    +0.000 A 
BRANCH  20  23
ATOM     23  S   UNL     1       2.128   2.977  19.790  0.00  0.00    +0.000 S 
ATOM     24  O   UNL     1       2.714   2.473  21.009  0.00  0.00    +0.000 OA
ATOM     25  O   UNL     1       0.756   3.420  19.710  0.00  0.00    +0.000 OA
BRANCH  23  26
ATOM     26  N   UNL     1       2.288   1.752  18.654  0.00  0.00    +0.000 NA
ATOM     27  H   UNL     1       3.141   1.223  18.833  0.00  0.00    +0.000 HD
ATOM     28  H   UNL     1       1.443   1.179  18.637  0.00  0.00    +0.000 HD
ENDBRANCH  23  26
ENDBRANCH  20  23
ENDBRANCH  15  17
ENDBRANCH   1  15
TORSDOF 6
ENDMDL
MODEL 3
REMARK VINA RESULT:      -6.9      6.844     10.932
REMARK  Name = 
REMARK  7 active torsions:
REMARK  status: ('A' for Active; 'I' for Inactive)
REMARK    1  A    between atoms: C_1  and  C_2
REMARK    2  A    between atoms: C_5  and  N_6
REMARK    3  A    between atoms: N_9  and  C_10
REMARK    4  A    between atoms: C_10  and  N_12
REMARK    5  A    between atoms: N_12  and  C_13
REMARK    6  A    between atoms: C_16  and  S_17
REMARK    7  A    between atoms: S_17  and  N_18
REMARK                            x       y       z     vdW  Elec       q    Type
REMARK                         _______ _______ _______ _____ _____    ______ ____
ROOT
ATOM      1  C   UNL     1      -3.180  11.338  16.149  0.00  0.00    +0.000 C 
ATOM      2  S   UNL     1      -3.014   9.996  15.179  0.00  0.00    +0.000 S 
ENDROOT
BRANCH   1   6
ATOM      3  N   UNL     1      -5.114  11.282  18.421  0.00  0.00    +0.000 N 
ATOM      4  C   UNL     1      -5.416  11.908  17.239  0.00  0.00    +0.000 C 
ATOM      5  O   UNL     1      -6.488  12.423  16.936  0.00  0.00    +0.000 OA
ATOM      6  N   UNL     1      -4.343  12.059  16.379  0.00  0.00    +0.000 N 
ATOM      7  H   UNL     1      -4.140  11.239  18.688  0.00  0.00    +0.000 HD
ATOM      8  H   UNL     1      -4.571  12.709  15.638  0.00  0.00    +0.000 HD
BRANCH   3  13
ATOM      9  C   UNL     1      -7.910  12.676  22.513  0.00  0.00    +0.000 C 
ATOM     10  C   UNL     1      -7.344  11.901  21.378  0.00  0.00    +0.000 A 
ATOM     11  C   UNL     1      -7.839  10.750  20.795  0.00  0.00    +0.000 A 
ATOM     12  C   UNL     1      -7.096  10.369  19.642  0.00  0.00    +0.000 A 
ATOM     13  C   UNL     1      -6.040  11.216  19.429  0.00  0.00    +0.000 A 
ATOM     14  S   UNL     1      -5.892  12.413  20.620  0.00  0.00    +0.000 S 
ENDBRANCH   3  13
ENDBRANCH   1   6
BRANCH   1  15
ATOM     15  N   UNL     1      -2.070  11.861  16.779  0.00  0.00    +0.000 N 
ATOM     16  H   UNL     1      -1.408  12.342  16.174  0.00  0.00    +0.000 HD
BRANCH  15  17
ATOM     17  C   UNL     1      -1.608  11.517  18.068  0.00  0.00    +0.000 A 
ATOM     18  C   UNL     1      -1.730  12.385  19.164  0.00  0.00    +0.000 A 
ATOM     19  C   UNL     1      -1.309  11.994  20.433  0.00  0.00    +0.000 A 
ATOM     20  C   UNL     1      -0.775  10.720  20.613  0.00  0.00    +0.000 A 
ATOM     21  C   UNL     1      -0.649   9.840  19.533  0.00  0.00    +0.000 A 
ATOM     22  C   UNL     1      -1.083  10.236  18.263  0.00  0.00    +0.000 A 
BRANCH  20  23
ATOM     23  S   UNL     1      -0.240  10.232  22.225  0.00  0.00    +0.000 S 
ATOM     24  O   UNL     1      -0.502  11.304  23.154  0.00  0.00    +0.000 OA
ATOM     25  O   UNL     1      -0.651   8.869  22.470  0.00  0.00    +0.000 OA
BRANCH  23  26
ATOM     26  N   UNL     1       1.426  10.186  22.024  0.00  0.00    +0.000 NA
ATOM     27  H   UNL     1       1.712  10.891  21.346  0.00  0.00    +0.000 HD
ATOM     28  H   UNL     1       1.889  10.270  22.929  0.00  0.00    +0.000 HD
ENDBRANCH  23  26
ENDBRANCH  20  23
ENDBRANCH  15  17
ENDBRANCH   1  15
TORSDOF 6
ENDMDL
MODEL 4
REMARK VINA RESULT:      -6.9      0.673      1.287
REMARK  Name = 
REMARK  7 active torsions:
REMARK  status: ('A' for Active; 'I' for Inactive)
REMARK    1  A    between atoms: C_1  and  C_2
REMARK    2  A    between atoms: C_5  and  N_6
REMARK    3  A    between atoms: N_9  and  C_10
REMARK    4  A    between atoms: C_10  and  N_12
REMARK    5  A    between atoms: N_12  and  C_13
REMARK    6  A    between atoms: C_16  and  S_17
REMARK    7  A    between atoms: S_17  and  N_18
REMARK                            x       y       z     vdW  Elec       q    Type
REMARK                         _______ _______ _______ _____ _____    ______ ____
ROOT
ATOM      1  C   UNL     1       2.160   4.090  20.624  0.00  0.00    +0.000 C 
ATOM      2  S   UNL     1       0.670   3.552  20.111  0.00  0.00    +0.000 S 
ENDROOT
BRANCH   1   6
ATOM      3  N   UNL     1       4.452   4.323  18.727  0.00  0.00    +0.000 N 
ATOM      4  C   UNL     1       4.331   3.253  19.575  0.00  0.00    +0.000 C 
ATOM      5  O   UNL     1       5.052   2.260  19.610  0.00  0.00    +0.000 OA
ATOM      6  N   UNL     1       3.363   3.401  20.552  0.00  0.00    +0.000 N 
ATOM      7  H   UNL     1       4.056   5.203  19.030  0.00  0.00    +0.000 HD
ATOM      8  H   UNL     1       3.468   2.693  21.267  0.00  0.00    +0.000 HD
BRANCH   3  13
ATOM      9  C   UNL     1       6.899   4.546  14.202  0.00  0.00    +0.000 C 
ATOM     10  C   UNL     1       6.612   4.475  15.660  0.00  0.00    +0.000 A 
ATOM     11  C   UNL     1       7.479   4.689  16.715  0.00  0.00    +0.000 A 
ATOM     12  C   UNL     1       6.811   4.664  17.971  0.00  0.00    +0.000 A 
ATOM     13  C   UNL     1       5.479   4.380  17.821  0.00  0.00    +0.000 A 
ATOM     14  S   UNL     1       5.036   4.083  16.212  0.00  0.00    +0.000 S 
ENDBRANCH   3  13
ENDBRANCH   1   6
BRANCH   1  15
ATOM     15  N   UNL     1       2.262   5.323  21.233  0.00  0.00    +0.000 N 
ATOM     16  H   UNL     1       2.345   5.305  22.247  0.00  0.00    +0.000 HD
BRANCH  15  17
ATOM     17  C   UNL     1       1.938   6.566  20.651  0.00  0.00    +0.000 A 
ATOM     18  C   UNL     1       1.196   7.544  21.332  0.00  0.00    +0.000 A 
ATOM     19  C   UNL     1       0.936   8.780  20.746  0.00  0.00    +0.000 A 
ATOM     20  C   UNL     1       1.434   9.050  19.473  0.00  0.00    +0.000 A 
ATOM     21  C   UNL     1       2.178   8.090  18.779  0.00  0.00    +0.000 A 
ATOM     22  C   UNL     1       2.443   6.854  19.379  0.00  0.00    +0.000 A 
BRANCH  20  23
ATOM     23  S   UNL     1       1.098  10.619  18.734  0.00  0.00    +0.000 S 
ATOM     24  O   UNL     1       0.541  11.502  19.732  0.00  0.00    +0.000 OA
ATOM     25  O   UNL     1       2.210  10.997  17.893  0.00  0.00    +0.000 OA
BRANCH  23  26
ATOM     26  N   UNL     1      -0.162  10.236  17.694  0.00  0.00    +0.000 NA
ATOM     27  H   UNL     1      -1.052  10.318  18.184  0.00  0.00    +0.000 HD
ATOM     28  H   UNL     1      -0.102  10.804  16.848  0.00  0.00    +0.000 HD
ENDBRANCH  23  26
ENDBRANCH  20  23
ENDBRANCH  15  17
ENDBRANCH   1  15
TORSDOF 6
ENDMDL
MODEL 5
REMARK VINA RESULT:      -6.8      1.520      1.576
REMARK  Name = 
REMARK  7 active torsions:
REMARK  status: ('A' for Active; 'I' for Inactive)
REMARK    1  A    between atoms: C_1  and  C_2
REMARK    2  A    between atoms: C_5  and  N_6
REMARK    3  A    between atoms: N_9  and  C_10
REMARK    4  A    between atoms: C_10  and  N_12
REMARK    5  A    between atoms: N_12  and  C_13
REMARK    6  A    between atoms: C_16  and  S_17
REMARK    7  A    between atoms: S_17  and  N_18
REMARK                            x       y       z     vdW  Elec       q    Type
REMARK                         _______ _______ _______ _____ _____    ______ ____
ROOT
ATOM      1  C   UNL     1       2.367   5.098  20.447  0.00  0.00    +0.000 C 
ATOM      2  S   UNL     1       1.212   4.010  19.943  0.00  0.00    +0.000 S 
ENDROOT
BRANCH   1   6
ATOM      3  N   UNL     1       4.026   5.283  17.973  0.00  0.00    +0.000 N 
ATOM      4  C   UNL     1       4.545   4.805  19.149  0.00  0.00    +0.000 C 
ATOM      5  O   UNL     1       5.665   4.331  19.317  0.00  0.00    +0.000 OA
ATOM      6  N   UNL     1       3.738   5.003  20.255  0.00  0.00    +0.000 N 
ATOM      7  H   UNL     1       3.278   5.959  18.037  0.00  0.00    +0.000 HD
ATOM      8  H   UNL     1       4.256   4.834  21.107  0.00  0.00    +0.000 HD
BRANCH   3  13
ATOM      9  C   UNL     1       6.119   3.732  13.532  0.00  0.00    +0.000 C 
ATOM     10  C   UNL     1       5.773   4.535  14.735  0.00  0.00    +0.000 A 
ATOM     11  C   UNL     1       6.031   5.871  14.976  0.00  0.00    +0.000 A 
ATOM     12  C   UNL     1       5.430   6.324  16.184  0.00  0.00    +0.000 A 
ATOM     13  C   UNL     1       4.789   5.303  16.834  0.00  0.00    +0.000 A 
ATOM     14  S   UNL     1       4.950   3.808  16.052  0.00  0.00    +0.000 S 
ENDBRANCH   3  13
ENDBRANCH   1   6
BRANCH   1  15
ATOM     15  N   UNL     1       1.984   6.204  21.175  0.00  0.00    +0.000 N 
ATOM     16  H   UNL     1       1.701   6.021  22.135  0.00  0.00    +0.000 HD
BRANCH  15  17
ATOM     17  C   UNL     1       1.634   7.465  20.647  0.00  0.00    +0.000 A 
ATOM     18  C   UNL     1       1.986   7.858  19.346  0.00  0.00    +0.000 A 
ATOM     19  C   UNL     1       1.581   9.090  18.838  0.00  0.00    +0.000 A 
ATOM     20  C   UNL     1       0.805   9.933  19.631  0.00  0.00    +0.000 A 
ATOM     21  C   UNL     1       0.442   9.558  20.929  0.00  0.00    +0.000 A 
ATOM     22  C   UNL     1       0.843   8.314  21.427  0.00  0.00    +0.000 A 
BRANCH  20  23
ATOM     23  S   UNL     1       0.297  11.496  18.982  0.00  0.00    +0.000 S 
ATOM     24  O   UNL     1      -0.585  12.136  19.929  0.00  0.00    +0.000 OA
ATOM     25  O   UNL     1       1.439  12.166  18.405  0.00  0.00    +0.000 OA
BRANCH  23  26
ATOM     26  N   UNL     1      -0.666  11.025  17.692  0.00  0.00    +0.000 NA
ATOM     27  H   UNL     1      -0.744  11.789  17.021  0.00  0.00    +0.000 HD
ATOM     28  H   UNL     1      -0.311  10.157  17.289  0.00  0.00    +0.000 HD
ENDBRANCH  23  26
ENDBRANCH  20  23
ENDBRANCH  15  17
ENDBRANCH   1  15
TORSDOF 6
ENDMDL
MODEL 6
REMARK VINA RESULT:      -6.5      1.495      1.862
REMARK  Name = 
REMARK  7 active torsions:
REMARK  status: ('A' for Active; 'I' for Inactive)
REMARK    1  A    between atoms: C_1  and  C_2
REMARK    2  A    between atoms: C_5  and  N_6
REMARK    3  A    between atoms: N_9  and  C_10
REMARK    4  A    between atoms: C_10  and  N_12
REMARK    5  A    between atoms: N_12  and  C_13
REMARK    6  A    between atoms: C_16  and  S_17
REMARK    7  A    between atoms: S_17  and  N_18
REMARK                            x       y       z     vdW  Elec       q    Type
REMARK                         _______ _______ _______ _____ _____    ______ ____
ROOT
ATOM      1  C   UNL     1       2.672   5.165  20.041  0.00  0.00    +0.000 C 
ATOM      2  S   UNL     1       1.646   4.093  19.287  0.00  0.00    +0.000 S 
ENDROOT
BRANCH   1   6
ATOM      3  N   UNL     1       4.543   5.098  17.717  0.00  0.00    +0.000 N 
ATOM      4  C   UNL     1       4.982   4.870  18.997  0.00  0.00    +0.000 C 
ATOM      5  O   UNL     1       6.114   4.539  19.335  0.00  0.00    +0.000 OA
ATOM      6  N   UNL     1       4.059   5.170  19.982  0.00  0.00    +0.000 N 
ATOM      7  H   UNL     1       3.741   5.701  17.602  0.00  0.00    +0.000 HD
ATOM      8  H   UNL     1       4.503   5.193  20.890  0.00  0.00    +0.000 HD
BRANCH   3  13
ATOM      9  C   UNL     1       6.434   3.720  13.131  0.00  0.00    +0.000 C 
ATOM     10  C   UNL     1       6.284   4.323  14.482  0.00  0.00    +0.000 A 
ATOM     11  C   UNL     1       7.051   5.310  15.069  0.00  0.00    +0.000 A 
ATOM     12  C   UNL     1       6.523   5.726  16.324  0.00  0.00    +0.000 A 
ATOM     13  C   UNL     1       5.409   5.002  16.659  0.00  0.00    +0.000 A 
ATOM     14  S   UNL     1       5.030   3.797  15.528  0.00  0.00    +0.000 S 
ENDBRANCH   3  13
ENDBRANCH   1   6
BRANCH   1  15
ATOM     15  N   UNL     1       2.148   6.143  20.860  0.00  0.00    +0.000 N 
ATOM     16  H   UNL     1       1.841   5.828  21.778  0.00  0.00    +0.000 HD
BRANCH  15  17
ATOM     17  C   UNL     1       1.698   7.416  20.449  0.00  0.00    +0.000 A 
ATOM     18  C   UNL     1       1.001   8.279  21.309  0.00  0.00    +0.000 A 
ATOM     19  C   UNL     1       0.616   9.549  20.887  0.00  0.00    +0.000 A 
ATOM     20  C   UNL     1       0.942   9.969  19.599  0.00  0.00    +0.000 A 
ATOM     21  C   UNL     1       1.639   9.124  18.729  0.00  0.00    +0.000 A 
ATOM     22  C   UNL     1       2.032   7.853  19.164  0.00  0.00    +0.000 A 
BRANCH  20  23
ATOM     23  S   UNL     1       0.448  11.580  19.069  0.00  0.00    +0.000 S 
ATOM     24  O   UNL     1      -0.307  12.213  20.123  0.00  0.00    +0.000 OA
ATOM     25  O   UNL     1       1.559  12.225  18.410  0.00  0.00    +0.000 OA
BRANCH  23  26
ATOM     26  N   UNL     1      -0.656  11.210  17.861  0.00  0.00    +0.000 NA
ATOM     27  H   UNL     1      -0.165  10.881  17.031  0.00  0.00    +0.000 HD
ATOM     28  H   UNL     1      -1.355  10.555  18.215  0.00  0.00    +0.000 HD
ENDBRANCH  23  26
ENDBRANCH  20  23
ENDBRANCH  15  17
ENDBRANCH   1  15
TORSDOF 6
ENDMDL
MODEL 7
REMARK VINA RESULT:      -6.5      1.302      1.884
REMARK  Name = 
REMARK  7 active torsions:
REMARK  status: ('A' for Active; 'I' for Inactive)
REMARK    1  A    between atoms: C_1  and  C_2
REMARK    2  A    between atoms: C_5  and  N_6
REMARK    3  A    between atoms: N_9  and  C_10
REMARK    4  A    between atoms: C_10  and  N_12
REMARK    5  A    between atoms: N_12  and  C_13
REMARK    6  A    between atoms: C_16  and  S_17
REMARK    7  A    between atoms: S_17  and  N_18
REMARK                            x       y       z     vdW  Elec       q    Type
REMARK                         _______ _______ _______ _____ _____    ______ ____
ROOT
ATOM      1  C   UNL     1       3.223   4.931  19.633  0.00  0.00    +0.000 C 
ATOM      2  S   UNL     1       2.157   3.870  18.921  0.00  0.00    +0.000 S 
ENDROOT
BRANCH   1   6
ATOM      3  N   UNL     1       4.930   4.888  17.185  0.00  0.00    +0.000 N 
ATOM      4  C   UNL     1       5.459   4.665  18.431  0.00  0.00    +0.000 C 
ATOM      5  O   UNL     1       6.616   4.347  18.690  0.00  0.00    +0.000 OA
ATOM      6  N   UNL     1       4.602   4.953  19.478  0.00  0.00    +0.000 N 
ATOM      7  H   UNL     1       4.114   5.481  17.127  0.00  0.00    +0.000 HD
ATOM      8  H   UNL     1       5.108   4.981  20.353  0.00  0.00    +0.000 HD
BRANCH   3  13
ATOM      9  C   UNL     1       6.503   3.556  12.467  0.00  0.00    +0.000 C 
ATOM     10  C   UNL     1       6.446   4.146  13.831  0.00  0.00    +0.000 A 
ATOM     11  C   UNL     1       7.251   5.128  14.375  0.00  0.00    +0.000 A 
ATOM     12  C   UNL     1       6.810   5.531  15.666  0.00  0.00    +0.000 A 
ATOM     13  C   UNL     1       5.721   4.803  16.069  0.00  0.00    +0.000 A 
ATOM     14  S   UNL     1       5.266   3.609  14.955  0.00  0.00    +0.000 S 
ENDBRANCH   3  13
ENDBRANCH   1   6
BRANCH   1  15
ATOM     15  N   UNL     1       2.749   5.880  20.514  0.00  0.00    +0.000 N 
ATOM     16  H   UNL     1       2.613   5.561  21.471  0.00  0.00    +0.000 HD
BRANCH  15  17
ATOM     17  C   UNL     1       2.135   7.102  20.166  0.00  0.00    +0.000 A 
ATOM     18  C   UNL     1       1.357   7.837  21.075  0.00  0.00    +0.000 A 
ATOM     19  C   UNL     1       0.807   9.064  20.714  0.00  0.00    +0.000 A 
ATOM     20  C   UNL     1       1.048   9.572  19.439  0.00  0.00    +0.000 A 
ATOM     21  C   UNL     1       1.824   8.856  18.521  0.00  0.00    +0.000 A 
ATOM     22  C   UNL     1       2.381   7.629  18.894  0.00  0.00    +0.000 A 
BRANCH  20  23
ATOM     23  S   UNL     1       0.345  11.129  18.987  0.00  0.00    +0.000 S 
ATOM     24  O   UNL     1      -0.811  10.901  18.154  0.00  0.00    +0.000 OA
ATOM     25  O   UNL     1       0.314  11.991  20.145  0.00  0.00    +0.000 OA
BRANCH  23  26
ATOM     26  N   UNL     1       1.533  11.750  17.977  0.00  0.00    +0.000 NA
ATOM     27  H   UNL     1       2.355  11.147  17.997  0.00  0.00    +0.000 HD
ATOM     28  H   UNL     1       1.153  11.901  17.042  0.00  0.00    +0.000 HD
ENDBRANCH  23  26
ENDBRANCH  20  23
ENDBRANCH  15  17
ENDBRANCH   1  15
TORSDOF 6
ENDMDL
MODEL 8
REMARK VINA RESULT:      -6.5      1.636      1.813
REMARK  Name = 
REMARK  7 active torsions:
REMARK  status: ('A' for Active; 'I' for Inactive)
REMARK    1  A    between atoms: C_1  and  C_2
REMARK    2  A    between atoms: C_5  and  N_6
REMARK    3  A    between atoms: N_9  and  C_10
REMARK    4  A    between atoms: C_10  and  N_12
REMARK    5  A    between atoms: N_12  and  C_13
REMARK    6  A    between atoms: C_16  and  S_17
REMARK    7  A    between atoms: S_17  and  N_18
REMARK                            x       y       z     vdW  Elec       q    Type
REMARK                         _______ _______ _______ _____ _____    ______ ____
ROOT
ATOM      1  C   UNL     1       2.878   5.674  19.776  0.00  0.00    +0.000 C 
ATOM      2  S   UNL     1       1.668   4.752  19.101  0.00  0.00    +0.000 S 
ENDROOT
BRANCH   1   6
ATOM      3  N   UNL     1       4.717   5.300  17.456  0.00  0.00    +0.000 N 
ATOM      4  C   UNL     1       5.099   4.977  18.733  0.00  0.00    +0.000 C 
ATOM      5  O   UNL     1       6.151   4.438  19.069  0.00  0.00    +0.000 OA
ATOM      6  N   UNL     1       4.242   5.426  19.721  0.00  0.00    +0.000 N 
ATOM      7  H   UNL     1       4.039   6.042  17.349  0.00  0.00    +0.000 HD
ATOM      8  H   UNL     1       4.679   5.354  20.630  0.00  0.00    +0.000 HD
BRANCH   3  13
ATOM      9  C   UNL     1       6.370   3.590  12.890  0.00  0.00    +0.000 C 
ATOM     10  C   UNL     1       6.314   4.230  14.231  0.00  0.00    +0.000 A 
ATOM     11  C   UNL     1       7.219   5.105  14.802  0.00  0.00    +0.000 A 
ATOM     12  C   UNL     1       6.761   5.612  16.050  0.00  0.00    +0.000 A 
ATOM     13  C   UNL     1       5.555   5.063  16.398  0.00  0.00    +0.000 A 
ATOM     14  S   UNL     1       5.001   3.908  15.288  0.00  0.00    +0.000 S 
ENDBRANCH   3  13
ENDBRANCH   1   6
BRANCH   1  15
ATOM     15  N   UNL     1       2.546   6.788  20.519  0.00  0.00    +0.000 N 
ATOM     16  H   UNL     1       2.633   6.684  21.528  0.00  0.00    +0.000 HD
BRANCH  15  17
ATOM     17  C   UNL     1       1.806   7.900  20.063  0.00  0.00    +0.000 A 
ATOM     18  C   UNL     1       1.928   8.399  18.757  0.00  0.00    +0.000 A 
ATOM     19  C   UNL     1       1.146   9.466  18.325  0.00  0.00    +0.000 A 
ATOM     20  C   UNL     1       0.220  10.033  19.199  0.00  0.00    +0.000 A 
ATOM     21  C   UNL     1       0.082   9.547  20.504  0.00  0.00    +0.000 A 
ATOM     22  C   UNL     1       0.864   8.467  20.927  0.00  0.00    +0.000 A 
BRANCH  20  23
ATOM     23  S   UNL     1      -0.767  11.389  18.646  0.00  0.00    +0.000 S 
ATOM     24  O   UNL     1      -1.560  10.965  17.516  0.00  0.00    +0.000 OA
ATOM     25  O   UNL     1      -1.338  12.060  19.790  0.00  0.00    +0.000 OA
BRANCH  23  26
ATOM     26  N   UNL     1       0.401  12.425  18.034  0.00  0.00    +0.000 NA
ATOM     27  H   UNL     1       1.321  12.153  18.378  0.00  0.00    +0.000 HD
ATOM     28  H   UNL     1       0.336  12.463  17.016  0.00  0.00    +0.000 HD
ENDBRANCH  23  26
ENDBRANCH  20  23
ENDBRANCH  15  17
ENDBRANCH   1  15
TORSDOF 6
ENDMDL
MODEL 9
REMARK VINA RESULT:      -6.5      3.636      5.699
REMARK  Name = 
REMARK  7 active torsions:
REMARK  status: ('A' for Active; 'I' for Inactive)
REMARK    1  A    between atoms: C_1  and  C_2
REMARK    2  A    between atoms: C_5  and  N_6
REMARK    3  A    between atoms: N_9  and  C_10
REMARK    4  A    between atoms: C_10  and  N_12
REMARK    5  A    between atoms: N_12  and  C_13
REMARK    6  A    between atoms: C_16  and  S_17
REMARK    7  A    between atoms: S_17  and  N_18
REMARK                            x       y       z     vdW  Elec       q    Type
REMARK                         _______ _______ _______ _____ _____    ______ ____
ROOT
ATOM      1  C   UNL     1       7.098   7.319  17.476  0.00  0.00    +0.000 C 
ATOM      2  S   UNL     1       7.895   8.722  17.883  0.00  0.00    +0.000 S 
ENDROOT
BRANCH   1   6
ATOM      3  N   UNL     1       7.048   5.692  14.975  0.00  0.00    +0.000 N 
ATOM      4  C   UNL     1       7.481   5.164  16.164  0.00  0.00    +0.000 C 
ATOM      5  O   UNL     1       7.804   3.998  16.374  0.00  0.00    +0.000 OA
ATOM      6  N   UNL     1       7.674   6.094  17.169  0.00  0.00    +0.000 N 
ATOM      7  H   UNL     1       7.171   6.685  14.836  0.00  0.00    +0.000 HD
ATOM      8  H   UNL     1       8.194   5.687  17.935  0.00  0.00    +0.000 HD
BRANCH   3  13
ATOM      9  C   UNL     1       5.168   2.397  11.493  0.00  0.00    +0.000 C 
ATOM     10  C   UNL     1       6.062   3.335  12.223  0.00  0.00    +0.000 A 
ATOM     11  C   UNL     1       7.216   3.945  11.771  0.00  0.00    +0.000 A 
ATOM     12  C   UNL     1       7.731   4.884  12.709  0.00  0.00    +0.000 A 
ATOM     13  C   UNL     1       6.976   4.909  13.852  0.00  0.00    +0.000 A 
ATOM     14  S   UNL     1       5.708   3.784  13.841  0.00  0.00    +0.000 S 
ENDBRANCH   3  13
ENDBRANCH   1   6
BRANCH   1  15
ATOM     15  N   UNL     1       5.723   7.326  17.373  0.00  0.00    +0.000 N 
ATOM     16  H   UNL     1       5.314   8.185  17.012  0.00  0.00    +0.000 HD
BRANCH  15  17
ATOM     17  C   UNL     1       4.838   6.428  18.007  0.00  0.00    +0.000 A 
ATOM     18  C   UNL     1       3.460   6.414  17.736  0.00  0.00    +0.000 A 
ATOM     19  C   UNL     1       2.623   5.481  18.342  0.00  0.00    +0.000 A 
ATOM     20  C   UNL     1       3.167   4.542  19.216  0.00  0.00    +0.000 A 
ATOM     21  C   UNL     1       4.537   4.537  19.496  0.00  0.00    +0.000 A 
ATOM     22  C   UNL     1       5.374   5.471  18.875  0.00  0.00    +0.000 A 
BRANCH  20  23
ATOM     23  S   UNL     1       2.099   3.363  19.984  0.00  0.00    +0.000 S 
ATOM     24  O   UNL     1       0.751   3.568  19.511  0.00  0.00    +0.000 OA
ATOM     25  O   UNL     1       2.737   2.067  19.977  0.00  0.00    +0.000 OA
BRANCH  23  26
ATOM     26  N   UNL     1       2.119   3.883  21.579  0.00  0.00    +0.000 NA
ATOM     27  H   UNL     1       2.390   4.865  21.620  0.00  0.00    +0.000 HD
ATOM     28  H   UNL     1       1.222   3.683  22.023  0.00  0.00    +0.000 HD
ENDBRANCH  23  26
ENDBRANCH  20  23
ENDBRANCH  15  17
ENDBRANCH   1  15
TORSDOF 6
ENDMDL
