MODEL 1
REMARK VINA RESULT:      -7.1      0.000      0.000
REMARK  Name = 
REMARK  9 active torsions:
REMARK  status: ('A' for Active; 'I' for Inactive)
REMARK    1  A    between atoms: C_1  and  O_2
REMARK    2  A    between atoms: O_2  and  C_3
REMARK    3  A    between atoms: C_3  and  C_5
REMARK    4  A    between atoms: C_6  and  O_7
REMARK    5  A    between atoms: C_9  and  O_10
REMARK    6  A    between atoms: C_13  and  C_14
REMARK    7  A    between atoms: C_14  and  C_15
REMARK    8  A    between atoms: C_15  and  C_16
REMARK    9  A    between atoms: N_18  and  C_19
REMARK                            x       y       z     vdW  Elec       q    Type
REMARK                         _______ _______ _______ _____ _____    ______ ____
ROOT
ATOM      1  C   UNL     1       4.671   5.404  17.238  0.00  0.00    +0.000 A 
ATOM      2  C   UNL     1       4.764   4.003  17.102  0.00  0.00    +0.000 A 
ATOM      3  C   UNL     1       4.030   3.144  17.914  0.00  0.00    +0.000 A 
ATOM      4  C   UNL     1       3.177   3.675  18.872  0.00  0.00    +0.000 A 
ATOM      5  C   UNL     1       3.030   5.064  19.006  0.00  0.00    +0.000 A 
ATOM      6 CL   UNL     1       1.928   5.659  20.212  0.00  0.00    +0.000 Cl
ATOM      7  C   UNL     1       3.757   5.954  18.177  0.00  0.00    +0.000 A 
ENDROOT
BRANCH   1   8
ATOM      8  C   UNL     1       5.567   6.212  16.360  0.00  0.00    +0.000 C 
ATOM      9  O   UNL     1       5.162   6.767  15.349  0.00  0.00    +0.000 OA
BRANCH   8  11
ATOM     10  C   UNL     1       7.384   7.241  17.464  0.00  0.00    +0.000 C 
ATOM     11  O   UNL     1       6.854   6.120  16.753  0.00  0.00    +0.000 OA
ENDBRANCH   8  11
ENDBRANCH   1   8
BRANCH   2  12
ATOM     12  O   UNL     1       5.569   3.380  16.181  0.00  0.00    +0.000 OA
ATOM     13  H   UNL     1       6.440   3.185  16.594  0.00  0.00    +0.000 HD
ENDBRANCH   2  12
BRANCH   4  14
ATOM     14  O   UNL     1       2.468   2.831  19.684  0.00  0.00    +0.000 OA
ATOM     15  H   UNL     1       1.518   3.017  19.599  0.00  0.00    +0.000 HD
ENDBRANCH   4  14
BRANCH   7  16
ATOM     16  C   UNL     1       3.502   7.445  18.272  0.00  0.00    +0.000 C 
BRANCH  16  17
ATOM     17  C   UNL     1       2.233   7.908  17.546  0.00  0.00    +0.000 C 
BRANCH  17  18
ATOM     18  C   UNL     1       1.811   9.268  18.071  0.00  0.00    +0.000 C 
ATOM     19  O   UNL     1       2.277  10.303  17.603  0.00  0.00    +0.000 OA
ATOM     20  N   UNL     1       0.881   9.190  19.089  0.00  0.00    +0.000 N 
ATOM     21  H   UNL     1       0.739   8.291  19.538  0.00  0.00    +0.000 HD
BRANCH  20  22
ATOM     22  C   UNL     1       0.206  10.287  19.682  0.00  0.00    +0.000 A 
ATOM     23  C   UNL     1       0.690  10.935  20.824  0.00  0.00    +0.000 A 
ATOM     24  C   UNL     1       0.006  12.020  21.377  0.00  0.00    +0.000 A 
ATOM     25  C   UNL     1      -1.171  12.477  20.794  0.00  0.00    +0.000 A 
ATOM     26  C   UNL     1      -1.664  11.853  19.650  0.00  0.00    +0.000 A 
ATOM     27  C   UNL     1      -0.977  10.768  19.094  0.00  0.00    +0.000 A 
ATOM     28 CL   UNL     1      -1.641  10.017  17.683  0.00  0.00    +0.000 Cl
ENDBRANCH  20  22
ENDBRANCH  17  18
ENDBRANCH  16  17
ENDBRANCH   7  16
TORSDOF 8
ENDMDL
MODEL 2
REMARK VINA RESULT:      -7.1      1.311      1.552
REMARK  Name = 
REMARK  9 active torsions:
REMARK  status: ('A' for Active; 'I' for Inactive)
REMARK    1  A    between atoms: C_1  and  O_2
REMARK    2  A    between atoms: O_2  and  C_3
REMARK    3  A    between atoms: C_3  and  C_5
REMARK    4  A    between atoms: C_6  and  O_7
REMARK    5  A    between atoms: C_9  and  O_10
REMARK    6  A    between atoms: C_13  and  C_14
REMARK    7  A    between atoms: C_14  and  C_15
REMARK    8  A    between atoms: C_15  and  C_16
REMARK    9  A    between atoms: N_18  and  C_19
REMARK                            x       y       z     vdW  Elec       q    Type
REMARK                         _______ _______ _______ _____ _____    ______ ____
ROOT
ATOM      1  C   UNL     1       4.630   5.432  17.229  0.00  0.00    +0.000 A 
ATOM      2  C   UNL     1       4.697   4.040  17.014  0.00  0.00    +0.000 A 
ATOM      3  C   UNL     1       3.936   3.151  17.768  0.00  0.00    +0.000 A 
ATOM      4  C   UNL     1       3.084   3.644  18.747  0.00  0.00    +0.000 A 
ATOM      5  C   UNL     1       2.964   5.026  18.958  0.00  0.00    +0.000 A 
ATOM      6 CL   UNL     1       1.861   5.574  20.186  0.00  0.00    +0.000 Cl
ATOM      7  C   UNL     1       3.718   5.947  18.189  0.00  0.00    +0.000 A 
ENDROOT
BRANCH   1   8
ATOM      8  C   UNL     1       5.552   6.271  16.408  0.00  0.00    +0.000 C 
ATOM      9  O   UNL     1       5.176   6.866  15.408  0.00  0.00    +0.000 OA
BRANCH   8  11
ATOM     10  C   UNL     1       7.371   7.290  17.519  0.00  0.00    +0.000 C 
ATOM     11  O   UNL     1       6.828   6.159  16.832  0.00  0.00    +0.000 OA
ENDBRANCH   8  11
ENDBRANCH   1   8
BRANCH   2  12
ATOM     12  O   UNL     1       5.499   3.454  16.067  0.00  0.00    +0.000 OA
ATOM     13  H   UNL     1       5.645   4.089  15.330  0.00  0.00    +0.000 HD
ENDBRANCH   2  12
BRANCH   4  14
ATOM     14  O   UNL     1       2.350   2.770  19.501  0.00  0.00    +0.000 OA
ATOM     15  H   UNL     1       1.618   3.244  19.931  0.00  0.00    +0.000 HD
ENDBRANCH   4  14
BRANCH   7  16
ATOM     16  C   UNL     1       3.491   7.435  18.367  0.00  0.00    +0.000 C 
BRANCH  16  17
ATOM     17  C   UNL     1       2.427   8.020  17.431  0.00  0.00    +0.000 C 
BRANCH  17  18
ATOM     18  C   UNL     1       1.407   8.799  18.240  0.00  0.00    +0.000 C 
ATOM     19  O   UNL     1       0.400   9.266  17.716  0.00  0.00    +0.000 OA
ATOM     20  N   UNL     1       1.743   8.906  19.576  0.00  0.00    +0.000 N 
ATOM     21  H   UNL     1       2.694   8.677  19.849  0.00  0.00    +0.000 HD
BRANCH  20  22
ATOM     22  C   UNL     1       0.927   9.457  20.596  0.00  0.00    +0.000 A 
ATOM     23  C   UNL     1       0.287   8.662  21.553  0.00  0.00    +0.000 A 
ATOM     24  C   UNL     1      -0.502   9.237  22.552  0.00  0.00    +0.000 A 
ATOM     25  C   UNL     1      -0.660  10.617  22.612  0.00  0.00    +0.000 A 
ATOM     26  C   UNL     1      -0.022  11.428  21.676  0.00  0.00    +0.000 A 
ATOM     27  C   UNL     1       0.771  10.852  20.676  0.00  0.00    +0.000 A 
ATOM     28 CL   UNL     1       1.528  11.902  19.528  0.00  0.00    +0.000 Cl
ENDBRANCH  20  22
ENDBRANCH  17  18
ENDBRANCH  16  17
ENDBRANCH   7  16
TORSDOF 8
ENDMDL
MODEL 3
REMARK VINA RESULT:      -6.9      1.092      1.092
REMARK  Name = 
REMARK  9 active torsions:
REMARK  status: ('A' for Active; 'I' for Inactive)
REMARK    1  A    between atoms: C_1  and  O_2
REMARK    2  A    between atoms: O_2  and  C_3
REMARK    3  A    between atoms: C_3  and  C_5
REMARK    4  A    between atoms: C_6  and  O_7
REMARK    5  A    between atoms: C_9  and  O_10
REMARK    6  A    between atoms: C_13  and  C_14
REMARK    7  A    between atoms: C_14  and  C_15
REMARK    8  A    between atoms: C_15  and  C_16
REMARK    9  A    between atoms: N_18  and  C_19
REMARK                            x       y       z     vdW  Elec       q    Type
REMARK                         _______ _______ _______ _____ _____    ______ ____
ROOT
ATOM      1  C   UNL     1       4.662   5.285  17.313  0.00  0.00    +0.000 A 
ATOM      2  C   UNL     1       4.734   3.912  17.004  0.00  0.00    +0.000 A 
ATOM      3  C   UNL     1       3.944   2.976  17.665  0.00  0.00    +0.000 A 
ATOM      4  C   UNL     1       3.057   3.403  18.644  0.00  0.00    +0.000 A 
ATOM      5  C   UNL     1       2.932   4.767  18.947  0.00  0.00    +0.000 A 
ATOM      6 CL   UNL     1       1.785   5.233  20.168  0.00  0.00    +0.000 Cl
ATOM      7  C   UNL     1       3.716   5.736  18.272  0.00  0.00    +0.000 A 
ENDROOT
BRANCH   1   8
ATOM      8  C   UNL     1       5.616   6.175  16.588  0.00  0.00    +0.000 C 
ATOM      9  O   UNL     1       5.299   6.783  15.576  0.00  0.00    +0.000 OA
BRANCH   8  11
ATOM     10  C   UNL     1       7.464   7.329  17.499  0.00  0.00    +0.000 C 
ATOM     11  O   UNL     1       6.858   6.095  17.110  0.00  0.00    +0.000 OA
ENDBRANCH   8  11
ENDBRANCH   1   8
BRANCH   2  12
ATOM     12  O   UNL     1       5.570   3.389  16.049  0.00  0.00    +0.000 OA
ATOM     13  H   UNL     1       5.126   3.436  15.172  0.00  0.00    +0.000 HD
ENDBRANCH   2  12
BRANCH   4  14
ATOM     14  O   UNL     1       2.293   2.482  19.308  0.00  0.00    +0.000 OA
ATOM     15  H   UNL     1       1.736   2.932  19.966  0.00  0.00    +0.000 HD
ENDBRANCH   4  14
BRANCH   7  16
ATOM     16  C   UNL     1       3.486   7.209  18.545  0.00  0.00    +0.000 C 
BRANCH  16  17
ATOM     17  C   UNL     1       2.314   7.813  17.763  0.00  0.00    +0.000 C 
BRANCH  17  18
ATOM     18  C   UNL     1       1.598   8.837  18.624  0.00  0.00    +0.000 C 
ATOM     19  O   UNL     1       1.459   8.669  19.832  0.00  0.00    +0.000 OA
ATOM     20  N   UNL     1       1.150   9.929  17.906  0.00  0.00    +0.000 N 
ATOM     21  H   UNL     1       1.126   9.857  16.893  0.00  0.00    +0.000 HD
BRANCH  20  22
ATOM     22  C   UNL     1       0.569  11.101  18.452  0.00  0.00    +0.000 A 
ATOM     23  C   UNL     1       1.339  12.137  18.991  0.00  0.00    +0.000 A 
ATOM     24  C   UNL     1       0.736  13.284  19.512  0.00  0.00    +0.000 A 
ATOM     25  C   UNL     1      -0.649  13.414  19.498  0.00  0.00    +0.000 A 
ATOM     26  C   UNL     1      -1.434  12.399  18.956  0.00  0.00    +0.000 A 
ATOM     27  C   UNL     1      -0.829  11.252  18.431  0.00  0.00    +0.000 A 
ATOM     28 CL   UNL     1      -1.850  10.013  17.784  0.00  0.00    +0.000 Cl
ENDBRANCH  20  22
ENDBRANCH  17  18
ENDBRANCH  16  17
ENDBRANCH   7  16
TORSDOF 8
ENDMDL
MODEL 4
REMARK VINA RESULT:      -6.9      1.234      1.500
REMARK  Name = 
REMARK  9 active torsions:
REMARK  status: ('A' for Active; 'I' for Inactive)
REMARK    1  A    between atoms: C_1  and  O_2
REMARK    2  A    between atoms: O_2  and  C_3
REMARK    3  A    between atoms: C_3  and  C_5
REMARK    4  A    between atoms: C_6  and  O_7
REMARK    5  A    between atoms: C_9  and  O_10
REMARK    6  A    between atoms: C_13  and  C_14
REMARK    7  A    between atoms: C_14  and  C_15
REMARK    8  A    between atoms: C_15  and  C_16
REMARK    9  A    between atoms: N_18  and  C_19
REMARK                            x       y       z     vdW  Elec       q    Type
REMARK                         _______ _______ _______ _____ _____    ______ ____
ROOT
ATOM      1  C   UNL     1       3.782   4.311  18.306  0.00  0.00    +0.000 A 
ATOM      2  C   UNL     1       3.431   2.952  18.443  0.00  0.00    +0.000 A 
ATOM      3  C   UNL     1       2.433   2.544  19.323  0.00  0.00    +0.000 A 
ATOM      4  C   UNL     1       1.759   3.496  20.077  0.00  0.00    +0.000 A 
ATOM      5  C   UNL     1       2.056   4.860  19.935  0.00  0.00    +0.000 A 
ATOM      6 CL   UNL     1       1.158   5.998  20.894  0.00  0.00    +0.000 Cl
ATOM      7  C   UNL     1       3.058   5.295  19.031  0.00  0.00    +0.000 A 
ENDROOT
BRANCH   1   8
ATOM      8  C   UNL     1       4.920   4.608  17.388  0.00  0.00    +0.000 C 
ATOM      9  O   UNL     1       4.800   4.579  16.171  0.00  0.00    +0.000 OA
BRANCH   8  11
ATOM     10  C   UNL     1       7.281   4.628  17.311  0.00  0.00    +0.000 C 
ATOM     11  O   UNL     1       6.075   4.762  18.067  0.00  0.00    +0.000 OA
ENDBRANCH   8  11
ENDBRANCH   1   8
BRANCH   2  12
ATOM     12  O   UNL     1       4.029   1.937  17.738  0.00  0.00    +0.000 OA
ATOM     13  H   UNL     1       3.571   1.832  16.874  0.00  0.00    +0.000 HD
ENDBRANCH   2  12
BRANCH   4  14
ATOM     14  O   UNL     1       0.790   3.095  20.956  0.00  0.00    +0.000 OA
ATOM     15  H   UNL     1      -0.059   3.502  20.715  0.00  0.00    +0.000 HD
ENDBRANCH   4  14
BRANCH   7  16
ATOM     16  C   UNL     1       3.286   6.778  18.822  0.00  0.00    +0.000 C 
BRANCH  16  17
ATOM     17  C   UNL     1       2.416   7.394  17.721  0.00  0.00    +0.000 C 
BRANCH  17  18
ATOM     18  C   UNL     1       1.982   8.789  18.131  0.00  0.00    +0.000 C 
ATOM     19  O   UNL     1       2.394   9.783  17.541  0.00  0.00    +0.000 OA
ATOM     20  N   UNL     1       1.106   8.791  19.199  0.00  0.00    +0.000 N 
ATOM     21  H   UNL     1       1.012   7.938  19.741  0.00  0.00    +0.000 HD
BRANCH  20  22
ATOM     22  C   UNL     1       0.430   9.925  19.717  0.00  0.00    +0.000 A 
ATOM     23  C   UNL     1       0.803  10.535  20.919  0.00  0.00    +0.000 A 
ATOM     24  C   UNL     1       0.124  11.658  21.397  0.00  0.00    +0.000 A 
ATOM     25  C   UNL     1      -0.938  12.192  20.675  0.00  0.00    +0.000 A 
ATOM     26  C   UNL     1      -1.319  11.607  19.469  0.00  0.00    +0.000 A 
ATOM     27  C   UNL     1      -0.635  10.484  18.989  0.00  0.00    +0.000 A 
ATOM     28 CL   UNL     1      -1.159   9.786  17.495  0.00  0.00    +0.000 Cl
ENDBRANCH  20  22
ENDBRANCH  17  18
ENDBRANCH  16  17
ENDBRANCH   7  16
TORSDOF 8
ENDMDL
MODEL 5
REMARK VINA RESULT:      -6.9      1.904      2.518
REMARK  Name = 
REMARK  9 active torsions:
REMARK  status: ('A' for Active; 'I' for Inactive)
REMARK    1  A    between atoms: C_1  and  O_2
REMARK    2  A    between atoms: O_2  and  C_3
REMARK    3  A    between atoms: C_3  and  C_5
REMARK    4  A    between atoms: C_6  and  O_7
REMARK    5  A    between atoms: C_9  and  O_10
REMARK    6  A    between atoms: C_13  and  C_14
REMARK    7  A    between atoms: C_14  and  C_15
REMARK    8  A    between atoms: C_15  and  C_16
REMARK    9  A    between atoms: N_18  and  C_19
REMARK                            x       y       z     vdW  Elec       q    Type
REMARK                         _______ _______ _______ _____ _____    ______ ____
ROOT
ATOM      1  C   UNL     1       3.856   3.800  18.616  0.00  0.00    +0.000 A 
ATOM      2  C   UNL     1       3.399   2.477  18.446  0.00  0.00    +0.000 A 
ATOM      3  C   UNL     1       2.144   2.078  18.898  0.00  0.00    +0.000 A 
ATOM      4  C   UNL     1       1.318   3.004  19.521  0.00  0.00    +0.000 A 
ATOM      5  C   UNL     1       1.727   4.338  19.669  0.00  0.00    +0.000 A 
ATOM      6 CL   UNL     1       0.632   5.449  20.439  0.00  0.00    +0.000 Cl
ATOM      7  C   UNL     1       2.994   4.767  19.200  0.00  0.00    +0.000 A 
ENDROOT
BRANCH   1   8
ATOM      8  C   UNL     1       5.248   4.081  18.157  0.00  0.00    +0.000 C 
ATOM      9  O   UNL     1       6.150   4.349  18.938  0.00  0.00    +0.000 OA
BRANCH   8  11
ATOM     10  C   UNL     1       6.611   4.400  16.255  0.00  0.00    +0.000 C 
ATOM     11  O   UNL     1       5.321   4.134  16.811  0.00  0.00    +0.000 OA
ENDBRANCH   8  11
ENDBRANCH   1   8
BRANCH   2  12
ATOM     12  O   UNL     1       4.133   1.491  17.836  0.00  0.00    +0.000 OA
ATOM     13  H   UNL     1       3.521   0.821  17.457  0.00  0.00    +0.000 HD
ENDBRANCH   2  12
BRANCH   4  14
ATOM     14  O   UNL     1       0.092   2.608  19.983  0.00  0.00    +0.000 OA
ATOM     15  H   UNL     1       0.158   2.373  20.924  0.00  0.00    +0.000 HD
ENDBRANCH   4  14
BRANCH   7  16
ATOM     16  C   UNL     1       3.365   6.234  19.279  0.00  0.00    +0.000 C 
BRANCH  16  17
ATOM     17  C   UNL     1       3.360   6.953  17.926  0.00  0.00    +0.000 C 
BRANCH  17  18
ATOM     18  C   UNL     1       2.536   8.223  18.024  0.00  0.00    +0.000 C 
ATOM     19  O   UNL     1       2.509   9.038  17.107  0.00  0.00    +0.000 OA
ATOM     20  N   UNL     1       1.852   8.333  19.220  0.00  0.00    +0.000 N 
ATOM     21  H   UNL     1       2.121   7.718  19.982  0.00  0.00    +0.000 HD
BRANCH  20  22
ATOM     22  C   UNL     1       0.903   9.335  19.544  0.00  0.00    +0.000 A 
ATOM     23  C   UNL     1       0.171  10.017  18.567  0.00  0.00    +0.000 A 
ATOM     24  C   UNL     1      -0.765  10.992  18.920  0.00  0.00    +0.000 A 
ATOM     25  C   UNL     1      -0.986  11.297  20.259  0.00  0.00    +0.000 A 
ATOM     26  C   UNL     1      -0.276  10.622  21.249  0.00  0.00    +0.000 A 
ATOM     27  C   UNL     1       0.660   9.643  20.895  0.00  0.00    +0.000 A 
ATOM     28 CL   UNL     1       1.527   8.846  22.162  0.00  0.00    +0.000 Cl
ENDBRANCH  20  22
ENDBRANCH  17  18
ENDBRANCH  16  17
ENDBRANCH   7  16
TORSDOF 8
ENDMDL
MODEL 6
REMARK VINA RESULT:      -6.9      1.415      1.471
REMARK  Name = 
REMARK  9 active torsions:
REMARK  status: ('A' for Active; 'I' for Inactive)
REMARK    1  A    between atoms: C_1  and  O_2
REMARK    2  A    between atoms: O_2  and  C_3
REMARK    3  A    between atoms: C_3  and  C_5
REMARK    4  A    between atoms: C_6  and  O_7
REMARK    5  A    between atoms: C_9  and  O_10
REMARK    6  A    between atoms: C_13  and  C_14
REMARK    7  A    between atoms: C_14  and  C_15
REMARK    8  A    between atoms: C_15  and  C_16
REMARK    9  A    between atoms: N_18  and  C_19
REMARK                            x       y       z     vdW  Elec       q    Type
REMARK                         _______ _______ _______ _____ _____    ______ ____
ROOT
ATOM      1  C   UNL     1       4.271   5.064  17.122  0.00  0.00    +0.000 A 
ATOM      2  C   UNL     1       4.754   3.785  16.777  0.00  0.00    +0.000 A 
ATOM      3  C   UNL     1       4.141   2.627  17.245  0.00  0.00    +0.000 A 
ATOM      4  C   UNL     1       3.023   2.730  18.061  0.00  0.00    +0.000 A 
ATOM      5  C   UNL     1       2.492   3.987  18.390  0.00  0.00    +0.000 A 
ATOM      6 CL   UNL     1       1.076   4.040  19.398  0.00  0.00    +0.000 Cl
ATOM      7  C   UNL     1       3.093   5.177  17.909  0.00  0.00    +0.000 A 
ENDROOT
BRANCH   1   8
ATOM      8  C   UNL     1       5.062   6.226  16.619  0.00  0.00    +0.000 C 
ATOM      9  O   UNL     1       5.073   6.545  15.439  0.00  0.00    +0.000 OA
BRANCH   8  11
ATOM     10  C   UNL     1       7.246   6.545  17.460  0.00  0.00    +0.000 C 
ATOM     11  O   UNL     1       5.838   6.750  17.590  0.00  0.00    +0.000 OA
ENDBRANCH   8  11
ENDBRANCH   1   8
BRANCH   2  12
ATOM     12  O   UNL     1       5.845   3.576  15.971  0.00  0.00    +0.000 OA
ATOM     13  H   UNL     1       5.538   3.393  15.055  0.00  0.00    +0.000 HD
ENDBRANCH   2  12
BRANCH   4  14
ATOM     14  O   UNL     1       2.430   1.592  18.538  0.00  0.00    +0.000 OA
ATOM     15  H   UNL     1       1.651   1.827  19.069  0.00  0.00    +0.000 HD
ENDBRANCH   4  14
BRANCH   7  16
ATOM     16  C   UNL     1       2.439   6.514  18.193  0.00  0.00    +0.000 C 
BRANCH  16  17
ATOM     17  C   UNL     1       2.871   7.151  19.519  0.00  0.00    +0.000 C 
BRANCH  17  18
ATOM     18  C   UNL     1       1.695   7.876  20.145  0.00  0.00    +0.000 C 
ATOM     19  O   UNL     1       1.077   7.393  21.089  0.00  0.00    +0.000 OA
ATOM     20  N   UNL     1       1.426   9.091  19.544  0.00  0.00    +0.000 N 
ATOM     21  H   UNL     1       1.854   9.283  18.643  0.00  0.00    +0.000 HD
BRANCH  20  22
ATOM     22  C   UNL     1       0.480  10.048  19.992  0.00  0.00    +0.000 A 
ATOM     23  C   UNL     1       0.571  10.659  21.247  0.00  0.00    +0.000 A 
ATOM     24  C   UNL     1      -0.372  11.606  21.654  0.00  0.00    +0.000 A 
ATOM     25  C   UNL     1      -1.418  11.960  20.809  0.00  0.00    +0.000 A 
ATOM     26  C   UNL     1      -1.520  11.372  19.550  0.00  0.00    +0.000 A 
ATOM     27  C   UNL     1      -0.573  10.426  19.141  0.00  0.00    +0.000 A 
ATOM     28 CL   UNL     1      -0.755   9.713  17.575  0.00  0.00    +0.000 Cl
ENDBRANCH  20  22
ENDBRANCH  17  18
ENDBRANCH  16  17
ENDBRANCH   7  16
TORSDOF 8
ENDMDL
MODEL 7
REMARK VINA RESULT:      -6.9      1.307      1.595
REMARK  Name = 
REMARK  9 active torsions:
REMARK  status: ('A' for Active; 'I' for Inactive)
REMARK    1  A    between atoms: C_1  and  O_2
REMARK    2  A    between atoms: O_2  and  C_3
REMARK    3  A    between atoms: C_3  and  C_5
REMARK    4  A    between atoms: C_6  and  O_7
REMARK    5  A    between atoms: C_9  and  O_10
REMARK    6  A    between atoms: C_13  and  C_14
REMARK    7  A    between atoms: C_14  and  C_15
REMARK    8  A    between atoms: C_15  and  C_16
REMARK    9  A    between atoms: N_18  and  C_19
REMARK                            x       y       z     vdW  Elec       q    Type
REMARK                         _______ _______ _______ _____ _____    ______ ____
ROOT
ATOM      1  C   UNL     1       4.390   5.631  17.173  0.00  0.00    +0.000 A 
ATOM      2  C   UNL     1       4.536   4.290  16.762  0.00  0.00    +0.000 A 
ATOM      3  C   UNL     1       3.841   3.259  17.387  0.00  0.00    +0.000 A 
ATOM      4  C   UNL     1       2.975   3.556  18.431  0.00  0.00    +0.000 A 
ATOM      5  C   UNL     1       2.777   4.885  18.838  0.00  0.00    +0.000 A 
ATOM      6 CL   UNL     1       1.661   5.185  20.138  0.00  0.00    +0.000 Cl
ATOM      7  C   UNL     1       3.463   5.949  18.202  0.00  0.00    +0.000 A 
ENDROOT
BRANCH   1   8
ATOM      8  C   UNL     1       5.249   6.632  16.474  0.00  0.00    +0.000 C 
ATOM      9  O   UNL     1       5.204   6.797  15.263  0.00  0.00    +0.000 OA
BRANCH   8  11
ATOM     10  C   UNL     1       7.328   6.444  17.578  0.00  0.00    +0.000 C 
ATOM     11  O   UNL     1       6.139   7.193  17.318  0.00  0.00    +0.000 OA
ENDBRANCH   8  11
ENDBRANCH   1   8
BRANCH   2  12
ATOM     12  O   UNL     1       5.357   3.894  15.736  0.00  0.00    +0.000 OA
ATOM     13  H   UNL     1       5.759   4.688  15.320  0.00  0.00    +0.000 HD
ENDBRANCH   2  12
BRANCH   4  14
ATOM     14  O   UNL     1       2.305   2.542  19.059  0.00  0.00    +0.000 OA
ATOM     15  H   UNL     1       1.363   2.768  19.133  0.00  0.00    +0.000 HD
ENDBRANCH   4  14
BRANCH   7  16
ATOM     16  C   UNL     1       3.151   7.380  18.590  0.00  0.00    +0.000 C 
BRANCH  16  17
ATOM     17  C   UNL     1       2.065   8.037  17.732  0.00  0.00    +0.000 C 
BRANCH  17  18
ATOM     18  C   UNL     1       1.588   9.314  18.400  0.00  0.00    +0.000 C 
ATOM     19  O   UNL     1       1.972  10.415  18.017  0.00  0.00    +0.000 OA
ATOM     20  N   UNL     1       0.707   9.085  19.439  0.00  0.00    +0.000 N 
ATOM     21  H   UNL     1       0.636   8.140  19.805  0.00  0.00    +0.000 HD
BRANCH  20  22
ATOM     22  C   UNL     1      -0.005  10.077  20.159  0.00  0.00    +0.000 A 
ATOM     23  C   UNL     1      -0.916  10.940  19.541  0.00  0.00    +0.000 A 
ATOM     24  C   UNL     1      -1.610  11.901  20.280  0.00  0.00    +0.000 A 
ATOM     25  C   UNL     1      -1.406  12.010  21.651  0.00  0.00    +0.000 A 
ATOM     26  C   UNL     1      -0.511  11.154  22.289  0.00  0.00    +0.000 A 
ATOM     27  C   UNL     1       0.182  10.189  21.548  0.00  0.00    +0.000 A 
ATOM     28 CL   UNL     1       1.294   9.160  22.385  0.00  0.00    +0.000 Cl
ENDBRANCH  20  22
ENDBRANCH  17  18
ENDBRANCH  16  17
ENDBRANCH   7  16
TORSDOF 8
ENDMDL
MODEL 8
REMARK VINA RESULT:      -6.9      1.479      1.645
REMARK  Name = 
REMARK  9 active torsions:
REMARK  status: ('A' for Active; 'I' for Inactive)
REMARK    1  A    between atoms: C_1  and  O_2
REMARK    2  A    between atoms: O_2  and  C_3
REMARK    3  A    between atoms: C_3  and  C_5
REMARK    4  A    between atoms: C_6  and  O_7
REMARK    5  A    between atoms: C_9  and  O_10
REMARK    6  A    between atoms: C_13  and  C_14
REMARK    7  A    between atoms: C_14  and  C_15
REMARK    8  A    between atoms: C_15  and  C_16
REMARK    9  A    between atoms: N_18  and  C_19
REMARK                            x       y       z     vdW  Elec       q    Type
REMARK                         _______ _______ _______ _____ _____    ______ ____
ROOT
ATOM      1  C   UNL     1       4.616   5.274  17.472  0.00  0.00    +0.000 A 
ATOM      2  C   UNL     1       4.706   3.943  17.017  0.00  0.00    +0.000 A 
ATOM      3  C   UNL     1       3.856   2.951  17.497  0.00  0.00    +0.000 A 
ATOM      4  C   UNL     1       2.889   3.280  18.438  0.00  0.00    +0.000 A 
ATOM      5  C   UNL     1       2.746   4.604  18.881  0.00  0.00    +0.000 A 
ATOM      6 CL   UNL     1       1.499   4.948  20.043  0.00  0.00    +0.000 Cl
ATOM      7  C   UNL     1       3.592   5.630  18.390  0.00  0.00    +0.000 A 
ENDROOT
BRANCH   1   8
ATOM      8  C   UNL     1       5.635   6.224  16.936  0.00  0.00    +0.000 C 
ATOM      9  O   UNL     1       5.610   6.623  15.781  0.00  0.00    +0.000 OA
BRANCH   8  11
ATOM     10  C   UNL     1       7.553   7.478  17.505  0.00  0.00    +0.000 C 
ATOM     11  O   UNL     1       6.617   6.449  17.833  0.00  0.00    +0.000 OA
ENDBRANCH   8  11
ENDBRANCH   1   8
BRANCH   2  12
ATOM     12  O   UNL     1       5.619   3.518  16.084  0.00  0.00    +0.000 OA
ATOM     13  H   UNL     1       6.495   3.916  16.286  0.00  0.00    +0.000 HD
ENDBRANCH   2  12
BRANCH   4  14
ATOM     14  O   UNL     1       2.064   2.303  18.925  0.00  0.00    +0.000 OA
ATOM     15  H   UNL     1       2.440   1.936  19.743  0.00  0.00    +0.000 HD
ENDBRANCH   4  14
BRANCH   7  16
ATOM     16  C   UNL     1       3.347   7.066  18.806  0.00  0.00    +0.000 C 
BRANCH  16  17
ATOM     17  C   UNL     1       2.363   7.819  17.904  0.00  0.00    +0.000 C 
BRANCH  17  18
ATOM     18  C   UNL     1       1.519   8.761  18.742  0.00  0.00    +0.000 C 
ATOM     19  O   UNL     1       1.447   8.639  19.961  0.00  0.00    +0.000 OA
ATOM     20  N   UNL     1       0.877   9.726  17.990  0.00  0.00    +0.000 N 
ATOM     21  H   UNL     1       0.832   9.595  16.984  0.00  0.00    +0.000 HD
BRANCH  20  22
ATOM     22  C   UNL     1       0.131  10.818  18.502  0.00  0.00    +0.000 A 
ATOM     23  C   UNL     1      -1.213  10.700  18.871  0.00  0.00    +0.000 A 
ATOM     24  C   UNL     1      -1.916  11.793  19.382  0.00  0.00    +0.000 A 
ATOM     25  C   UNL     1      -1.284  13.021  19.536  0.00  0.00    +0.000 A 
ATOM     26  C   UNL     1       0.058  13.159  19.186  0.00  0.00    +0.000 A 
ATOM     27  C   UNL     1       0.763  12.062  18.676  0.00  0.00    +0.000 A 
ATOM     28 CL   UNL     1       2.422  12.290  18.240  0.00  0.00    +0.000 Cl
ENDBRANCH  20  22
ENDBRANCH  17  18
ENDBRANCH  16  17
ENDBRANCH   7  16
TORSDOF 8
ENDMDL
MODEL 9
REMARK VINA RESULT:      -6.9      1.910      2.600
REMARK  Name = 
REMARK  9 active torsions:
REMARK  status: ('A' for Active; 'I' for Inactive)
REMARK    1  A    between atoms: C_1  and  O_2
REMARK    2  A    between atoms: O_2  and  C_3
REMARK    3  A    between atoms: C_3  and  C_5
REMARK    4  A    between atoms: C_6  and  O_7
REMARK    5  A    between atoms: C_9  and  O_10
REMARK    6  A    between atoms: C_13  and  C_14
REMARK    7  A    between atoms: C_14  and  C_15
REMARK    8  A    between atoms: C_15  and  C_16
REMARK    9  A    between atoms: N_18  and  C_19
REMARK                            x       y       z     vdW  Elec       q    Type
REMARK                         _______ _______ _______ _____ _____    ______ ____
ROOT
ATOM      1  C   UNL     1       4.029   3.712  19.019  0.00  0.00    +0.000 A 
ATOM      2  C   UNL     1       4.199   2.624  19.900  0.00  0.00    +0.000 A 
ATOM      3  C   UNL     1       3.320   2.399  20.956  0.00  0.00    +0.000 A 
ATOM      4  C   UNL     1       2.244   3.258  21.141  0.00  0.00    +0.000 A 
ATOM      5  C   UNL     1       2.024   4.326  20.258  0.00  0.00    +0.000 A 
ATOM      6 CL   UNL     1       0.645   5.348  20.537  0.00  0.00    +0.000 Cl
ATOM      7  C   UNL     1       2.899   4.560  19.168  0.00  0.00    +0.000 A 
ENDROOT
BRANCH   1   8
ATOM      8  C   UNL     1       5.083   3.887  17.977  0.00  0.00    +0.000 C 
ATOM      9  O   UNL     1       4.883   3.630  16.798  0.00  0.00    +0.000 OA
BRANCH   8  11
ATOM     10  C   UNL     1       6.766   5.522  18.237  0.00  0.00    +0.000 C 
ATOM     11  O   UNL     1       6.270   4.214  18.527  0.00  0.00    +0.000 OA
ENDBRANCH   8  11
ENDBRANCH   1   8
BRANCH   2  12
ATOM     12  O   UNL     1       5.221   1.714  19.798  0.00  0.00    +0.000 OA
ATOM     13  H   UNL     1       5.187   1.102  20.567  0.00  0.00    +0.000 HD
ENDBRANCH   2  12
BRANCH   4  14
ATOM     14  O   UNL     1       1.390   3.050  22.189  0.00  0.00    +0.000 OA
ATOM     15  H   UNL     1       1.153   3.902  22.592  0.00  0.00    +0.000 HD
ENDBRANCH   4  14
BRANCH   7  16
ATOM     16  C   UNL     1       2.579   5.656  18.171  0.00  0.00    +0.000 C 
BRANCH  16  17
ATOM     17  C   UNL     1       3.370   6.950  18.390  0.00  0.00    +0.000 C 
BRANCH  17  18
ATOM     18  C   UNL     1       2.438   8.143  18.288  0.00  0.00    +0.000 C 
ATOM     19  O   UNL     1       2.262   8.724  17.221  0.00  0.00    +0.000 OA
ATOM     20  N   UNL     1       1.843   8.471  19.491  0.00  0.00    +0.000 N 
ATOM     21  H   UNL     1       2.228   8.067  20.339  0.00  0.00    +0.000 HD
BRANCH  20  22
ATOM     22  C   UNL     1       0.832   9.446  19.679  0.00  0.00    +0.000 A 
ATOM     23  C   UNL     1       0.155  10.039  18.608  0.00  0.00    +0.000 A 
ATOM     24  C   UNL     1      -0.845  10.989  18.827  0.00  0.00    +0.000 A 
ATOM     25  C   UNL     1      -1.187  11.358  20.124  0.00  0.00    +0.000 A 
ATOM     26  C   UNL     1      -0.534  10.772  21.206  0.00  0.00    +0.000 A 
ATOM     27  C   UNL     1       0.466   9.817  20.985  0.00  0.00    +0.000 A 
ATOM     28 CL   UNL     1       1.257   9.131  22.362  0.00  0.00    +0.000 Cl
ENDBRANCH  20  22
ENDBRANCH  17  18
ENDBRANCH  16  17
ENDBRANCH   7  16
TORSDOF 8
ENDMDL
