MODEL 1
REMARK VINA RESULT:      -8.3      0.000      0.000
REMARK  Name = 
REMARK  7 active torsions:
REMARK  status: ('A' for Active; 'I' for Inactive)
REMARK    1  A    between atoms: C_1  and  C_2
REMARK    2  A    between atoms: C_2  and  C_3
REMARK    3  A    between atoms: C_7  and  N_8
REMARK    4  A    between atoms: N_11  and  C_12
REMARK    5  A    between atoms: C_12  and  C_13
REMARK    6  A    between atoms: C_13  and  C_14
REMARK    7  A    between atoms: N_17  and  C_18
REMARK                            x       y       z     vdW  Elec       q    Type
REMARK                         _______ _______ _______ _____ _____    ______ ____
ROOT
ATOM      1  N   UNL     1       9.578  10.647  19.621  0.00  0.00    +0.000 N 
ATOM      2  C   UNL     1       8.800   9.996  18.708  0.00  0.00    +0.000 C 
ATOM      3  O   UNL     1       8.177  10.566  17.814  0.00  0.00    +0.000 OA
ATOM      4  N   UNL     1       8.732   8.644  18.920  0.00  0.00    +0.000 N 
ATOM      5  H   UNL     1      10.155  10.098  20.234  0.00  0.00    +0.000 HD
ATOM      6  H   UNL     1       9.471   8.207  19.453  0.00  0.00    +0.000 HD
ENDROOT
BRANCH   1  13
ATOM      7  C   UNL     1      11.404  12.544  17.588  0.00  0.00    +0.000 C 
ATOM      8  C   UNL     1      11.212  12.529  19.109  0.00  0.00    +0.000 C 
ATOM      9  C   UNL     1      12.330  11.683  19.746  0.00  0.00    +0.000 C 
ATOM     10  C   UNL     1      11.255  13.974  19.638  0.00  0.00    +0.000 C 
ATOM     11  C   UNL     1      10.581  13.915  21.002  0.00  0.00    +0.000 C 
ATOM     12  C   UNL     1       9.587  12.756  20.925  0.00  0.00    +0.000 C 
ATOM     13  C   UNL     1       9.792  12.087  19.555  0.00  0.00    +0.000 C 
ENDBRANCH   1  13
BRANCH   4  14
ATOM     14  C   UNL     1       7.979   7.817  17.986  0.00  0.00    +0.000 C 
BRANCH  14  15
ATOM     15  C   UNL     1       7.797   6.364  18.455  0.00  0.00    +0.000 C 
BRANCH  15  16
ATOM     16  C   UNL     1       6.408   5.886  18.185  0.00  0.00    +0.000 A 
ATOM     17  C   UNL     1       5.764   5.723  16.942  0.00  0.00    +0.000 A 
ATOM     18  N   UNL     1       4.570   5.135  17.049  0.00  0.00    +0.000 NA
ATOM     19  N   UNL     1       4.380   4.998  18.381  0.00  0.00    +0.000 N 
ATOM     20  C   UNL     1       5.473   5.446  19.093  0.00  0.00    +0.000 A 
BRANCH  19  21
ATOM     21  C   UNL     1       3.187   4.443  18.914  0.00  0.00    +0.000 A 
ATOM     22  C   UNL     1       2.347   3.679  18.093  0.00  0.00    +0.000 A 
ATOM     23  C   UNL     1       1.181   3.124  18.628  0.00  0.00    +0.000 A 
ATOM     24  C   UNL     1       0.846   3.354  19.959  0.00  0.00    +0.000 A 
ATOM     25  C   UNL     1       1.672   4.125  20.771  0.00  0.00    +0.000 A 
ATOM     26  C   UNL     1       2.850   4.660  20.252  0.00  0.00    +0.000 A 
ENDBRANCH  19  21
ENDBRANCH  15  16
ENDBRANCH  14  15
ENDBRANCH   4  14
TORSDOF 5
ENDMDL
MODEL 2
REMARK VINA RESULT:      -8.1      4.778      8.911
REMARK  Name = 
REMARK  7 active torsions:
REMARK  status: ('A' for Active; 'I' for Inactive)
REMARK    1  A    between atoms: C_1  and  C_2
REMARK    2  A    between atoms: C_2  and  C_3
REMARK    3  A    between atoms: C_7  and  N_8
REMARK    4  A    between atoms: N_11  and  C_12
REMARK    5  A    between atoms: C_12  and  C_13
REMARK    6  A    between atoms: C_13  and  C_14
REMARK    7  A    between atoms: N_17  and  C_18
REMARK                            x       y       z     vdW  Elec       q    Type
REMARK                         _______ _______ _______ _____ _____    ______ ____
ROOT
ATOM      1  N   UNL     1       3.628   4.648  19.631  0.00  0.00    +0.000 N 
ATOM      2  C   UNL     1       4.976   4.466  19.524  0.00  0.00    +0.000 C 
ATOM      3  O   UNL     1       5.514   3.359  19.508  0.00  0.00    +0.000 OA
ATOM      4  N   UNL     1       5.683   5.639  19.494  0.00  0.00    +0.000 N 
ATOM      5  H   UNL     1       3.261   5.576  19.504  0.00  0.00    +0.000 HD
ATOM      6  H   UNL     1       5.198   6.480  19.213  0.00  0.00    +0.000 HD
ENDROOT
BRANCH   1  13
ATOM      7  C   UNL     1       2.780   2.397  17.334  0.00  0.00    +0.000 C 
ATOM      8  C   UNL     1       1.963   3.237  18.324  0.00  0.00    +0.000 C 
ATOM      9  C   UNL     1       1.486   4.520  17.617  0.00  0.00    +0.000 C 
ATOM     10  C   UNL     1       0.762   2.411  18.818  0.00  0.00    +0.000 C 
ATOM     11  C   UNL     1       0.323   3.087  20.109  0.00  0.00    +0.000 C 
ATOM     12  C   UNL     1       1.581   3.735  20.689  0.00  0.00    +0.000 C 
ATOM     13  C   UNL     1       2.703   3.524  19.658  0.00  0.00    +0.000 C 
ENDBRANCH   1  13
BRANCH   4  14
ATOM     14  C   UNL     1       7.130   5.592  19.327  0.00  0.00    +0.000 C 
BRANCH  14  15
ATOM     15  C   UNL     1       7.639   6.402  18.124  0.00  0.00    +0.000 C 
BRANCH  15  16
ATOM     16  C   UNL     1       6.869   6.065  16.889  0.00  0.00    +0.000 A 
ATOM     17  C   UNL     1       5.722   6.698  16.370  0.00  0.00    +0.000 A 
ATOM     18  N   UNL     1       5.372   6.235  15.169  0.00  0.00    +0.000 NA
ATOM     19  N   UNL     1       6.235   5.221  14.933  0.00  0.00    +0.000 N 
ATOM     20  C   UNL     1       7.150   5.092  15.957  0.00  0.00    +0.000 A 
BRANCH  19  21
ATOM     21  C   UNL     1       6.162   4.433  13.754  0.00  0.00    +0.000 A 
ATOM     22  C   UNL     1       4.968   3.778  13.427  0.00  0.00    +0.000 A 
ATOM     23  C   UNL     1       4.898   3.016  12.258  0.00  0.00    +0.000 A 
ATOM     24  C   UNL     1       6.017   2.889  11.441  0.00  0.00    +0.000 A 
ATOM     25  C   UNL     1       7.208   3.528  11.771  0.00  0.00    +0.000 A 
ATOM     26  C   UNL     1       7.278   4.311  12.923  0.00  0.00    +0.000 A 
ENDBRANCH  19  21
ENDBRANCH  15  16
ENDBRANCH  14  15
ENDBRANCH   4  14
TORSDOF 5
ENDMDL
MODEL 3
REMARK VINA RESULT:      -7.9      2.071      9.839
REMARK  Name = 
REMARK  7 active torsions:
REMARK  status: ('A' for Active; 'I' for Inactive)
REMARK    1  A    between atoms: C_1  and  C_2
REMARK    2  A    between atoms: C_2  and  C_3
REMARK    3  A    between atoms: C_7  and  N_8
REMARK    4  A    between atoms: N_11  and  C_12
REMARK    5  A    between atoms: C_12  and  C_13
REMARK    6  A    between atoms: C_13  and  C_14
REMARK    7  A    between atoms: N_17  and  C_18
REMARK                            x       y       z     vdW  Elec       q    Type
REMARK                         _______ _______ _______ _____ _____    ______ ____
ROOT
ATOM      1  N   UNL     1       4.068   3.595  19.306  0.00  0.00    +0.000 N 
ATOM      2  C   UNL     1       4.948   4.246  18.492  0.00  0.00    +0.000 C 
ATOM      3  O   UNL     1       4.617   4.833  17.463  0.00  0.00    +0.000 OA
ATOM      4  N   UNL     1       6.251   4.134  18.901  0.00  0.00    +0.000 N 
ATOM      5  H   UNL     1       4.400   3.255  20.193  0.00  0.00    +0.000 HD
ATOM      6  H   UNL     1       6.429   3.914  19.871  0.00  0.00    +0.000 HD
ENDROOT
BRANCH   1  13
ATOM      7  C   UNL     1       1.565   5.253  20.737  0.00  0.00    +0.000 C 
ATOM      8  C   UNL     1       1.737   3.792  20.307  0.00  0.00    +0.000 C 
ATOM      9  C   UNL     1       2.224   2.968  21.514  0.00  0.00    +0.000 C 
ATOM     10  C   UNL     1       0.390   3.254  19.791  0.00  0.00    +0.000 C 
ATOM     11  C   UNL     1       0.746   2.035  18.953  0.00  0.00    +0.000 C 
ATOM     12  C   UNL     1       2.153   2.297  18.414  0.00  0.00    +0.000 C 
ATOM     13  C   UNL     1       2.634   3.612  19.053  0.00  0.00    +0.000 C 
ENDBRANCH   1  13
BRANCH   4  14
ATOM     14  C   UNL     1       7.291   4.828  18.153  0.00  0.00    +0.000 C 
BRANCH  14  15
ATOM     15  C   UNL     1       8.125   5.796  19.008  0.00  0.00    +0.000 C 
BRANCH  15  16
ATOM     16  C   UNL     1       8.083   7.179  18.443  0.00  0.00    +0.000 A 
ATOM     17  C   UNL     1       7.308   7.664  17.372  0.00  0.00    +0.000 A 
ATOM     18  N   UNL     1       7.403   8.987  17.220  0.00  0.00    +0.000 NA
ATOM     19  N   UNL     1       8.323   9.366  18.135  0.00  0.00    +0.000 N 
ATOM     20  C   UNL     1       8.755   8.294  18.887  0.00  0.00    +0.000 A 
BRANCH  19  21
ATOM     21  C   UNL     1       8.741  10.718  18.262  0.00  0.00    +0.000 A 
ATOM     22  C   UNL     1       9.851  11.031  19.057  0.00  0.00    +0.000 A 
ATOM     23  C   UNL     1      10.266  12.361  19.166  0.00  0.00    +0.000 A 
ATOM     24  C   UNL     1       9.562  13.367  18.511  0.00  0.00    +0.000 A 
ATOM     25  C   UNL     1       8.450  13.059  17.733  0.00  0.00    +0.000 A 
ATOM     26  C   UNL     1       8.046  11.731  17.598  0.00  0.00    +0.000 A 
ENDBRANCH  19  21
ENDBRANCH  15  16
ENDBRANCH  14  15
ENDBRANCH   4  14
TORSDOF 5
ENDMDL
MODEL 4
REMARK VINA RESULT:      -7.7      2.121      9.666
REMARK  Name = 
REMARK  7 active torsions:
REMARK  status: ('A' for Active; 'I' for Inactive)
REMARK    1  A    between atoms: C_1  and  C_2
REMARK    2  A    between atoms: C_2  and  C_3
REMARK    3  A    between atoms: C_7  and  N_8
REMARK    4  A    between atoms: N_11  and  C_12
REMARK    5  A    between atoms: C_12  and  C_13
REMARK    6  A    between atoms: C_13  and  C_14
REMARK    7  A    between atoms: N_17  and  C_18
REMARK                            x       y       z     vdW  Elec       q    Type
REMARK                         _______ _______ _______ _____ _____    ______ ____
ROOT
ATOM      1  N   UNL     1       4.026   3.751  18.869  0.00  0.00    +0.000 N 
ATOM      2  C   UNL     1       4.768   4.123  17.785  0.00  0.00    +0.000 C 
ATOM      3  O   UNL     1       4.280   4.410  16.693  0.00  0.00    +0.000 OA
ATOM      4  N   UNL     1       6.118   4.088  18.014  0.00  0.00    +0.000 N 
ATOM      5  H   UNL     1       4.491   3.662  19.756  0.00  0.00    +0.000 HD
ATOM      6  H   UNL     1       6.442   4.141  18.970  0.00  0.00    +0.000 HD
ENDROOT
BRANCH   1  13
ATOM      7  C   UNL     1       1.736   5.318  20.704  0.00  0.00    +0.000 C 
ATOM      8  C   UNL     1       1.869   3.871  20.212  0.00  0.00    +0.000 C 
ATOM      9  C   UNL     1       2.547   3.030  21.310  0.00  0.00    +0.000 C 
ATOM     10  C   UNL     1       0.470   3.317  19.890  0.00  0.00    +0.000 C 
ATOM     11  C   UNL     1       0.719   2.127  18.975  0.00  0.00    +0.000 C 
ATOM     12  C   UNL     1       2.024   2.433  18.238  0.00  0.00    +0.000 C 
ATOM     13  C   UNL     1       2.570   3.742  18.834  0.00  0.00    +0.000 C 
ENDBRANCH   1  13
BRANCH   4  14
ATOM     14  C   UNL     1       7.027   4.513  16.957  0.00  0.00    +0.000 C 
BRANCH  14  15
ATOM     15  C   UNL     1       6.828   5.974  16.523  0.00  0.00    +0.000 C 
BRANCH  15  16
ATOM     16  C   UNL     1       7.481   6.911  17.486  0.00  0.00    +0.000 A 
ATOM     17  C   UNL     1       8.104   6.612  18.713  0.00  0.00    +0.000 A 
ATOM     18  N   UNL     1       8.716   7.667  19.256  0.00  0.00    +0.000 NA
ATOM     19  N   UNL     1       8.412   8.694  18.431  0.00  0.00    +0.000 N 
ATOM     20  C   UNL     1       7.663   8.269  17.354  0.00  0.00    +0.000 A 
BRANCH  19  21
ATOM     21  C   UNL     1       8.849  10.020  18.692  0.00  0.00    +0.000 A 
ATOM     22  C   UNL     1       8.691  11.010  17.714  0.00  0.00    +0.000 A 
ATOM     23  C   UNL     1       9.110  12.316  17.982  0.00  0.00    +0.000 A 
ATOM     24  C   UNL     1       9.705  12.620  19.203  0.00  0.00    +0.000 A 
ATOM     25  C   UNL     1       9.876  11.634  20.170  0.00  0.00    +0.000 A 
ATOM     26  C   UNL     1       9.437  10.335  19.919  0.00  0.00    +0.000 A 
ENDBRANCH  19  21
ENDBRANCH  15  16
ENDBRANCH  14  15
ENDBRANCH   4  14
TORSDOF 5
ENDMDL
MODEL 5
REMARK VINA RESULT:      -7.5      1.756      9.907
REMARK  Name = 
REMARK  7 active torsions:
REMARK  status: ('A' for Active; 'I' for Inactive)
REMARK    1  A    between atoms: C_1  and  C_2
REMARK    2  A    between atoms: C_2  and  C_3
REMARK    3  A    between atoms: C_7  and  N_8
REMARK    4  A    between atoms: N_11  and  C_12
REMARK    5  A    between atoms: C_12  and  C_13
REMARK    6  A    between atoms: C_13  and  C_14
REMARK    7  A    between atoms: N_17  and  C_18
REMARK                            x       y       z     vdW  Elec       q    Type
REMARK                         _______ _______ _______ _____ _____    ______ ____
ROOT
ATOM      1  N   UNL     1       3.959   5.180  18.607  0.00  0.00    +0.000 N 
ATOM      2  C   UNL     1       5.318   5.145  18.491  0.00  0.00    +0.000 C 
ATOM      3  O   UNL     1       6.028   4.315  19.056  0.00  0.00    +0.000 OA
ATOM      4  N   UNL     1       5.824   6.163  17.726  0.00  0.00    +0.000 N 
ATOM      5  H   UNL     1       3.445   5.805  18.010  0.00  0.00    +0.000 HD
ATOM      6  H   UNL     1       5.207   6.615  17.065  0.00  0.00    +0.000 HD
ENDROOT
BRANCH   1  13
ATOM      7  C   UNL     1       2.756   2.195  17.768  0.00  0.00    +0.000 C 
ATOM      8  C   UNL     1       2.170   3.371  18.558  0.00  0.00    +0.000 C 
ATOM      9  C   UNL     1       1.351   4.258  17.601  0.00  0.00    +0.000 C 
ATOM     10  C   UNL     1       1.280   2.827  19.690  0.00  0.00    +0.000 C 
ATOM     11  C   UNL     1       1.161   3.975  20.683  0.00  0.00    +0.000 C 
ATOM     12  C   UNL     1       2.444   4.793  20.531  0.00  0.00    +0.000 C 
ATOM     13  C   UNL     1       3.229   4.171  19.363  0.00  0.00    +0.000 C 
ENDBRANCH   1  13
BRANCH   4  14
ATOM     14  C   UNL     1       7.258   6.215  17.474  0.00  0.00    +0.000 C 
BRANCH  14  15
ATOM     15  C   UNL     1       8.070   6.796  18.643  0.00  0.00    +0.000 C 
BRANCH  15  16
ATOM     16  C   UNL     1       8.330   8.252  18.441  0.00  0.00    +0.000 A 
ATOM     17  C   UNL     1       7.779   9.115  17.473  0.00  0.00    +0.000 A 
ATOM     18  N   UNL     1       8.115  10.392  17.664  0.00  0.00    +0.000 NA
ATOM     19  N   UNL     1       8.974  10.362  18.708  0.00  0.00    +0.000 N 
ATOM     20  C   UNL     1       9.127   9.082  19.197  0.00  0.00    +0.000 A 
BRANCH  19  21
ATOM     21  C   UNL     1       9.599  11.540  19.199  0.00  0.00    +0.000 A 
ATOM     22  C   UNL     1      10.242  12.410  18.309  0.00  0.00    +0.000 A 
ATOM     23  C   UNL     1      10.842  13.574  18.796  0.00  0.00    +0.000 A 
ATOM     24  C   UNL     1      10.823  13.849  20.160  0.00  0.00    +0.000 A 
ATOM     25  C   UNL     1      10.197  12.979  21.047  0.00  0.00    +0.000 A 
ATOM     26  C   UNL     1       9.573  11.829  20.565  0.00  0.00    +0.000 A 
ENDBRANCH  19  21
ENDBRANCH  15  16
ENDBRANCH  14  15
ENDBRANCH   4  14
TORSDOF 5
ENDMDL
MODEL 6
REMARK VINA RESULT:      -7.4      1.526      2.200
REMARK  Name = 
REMARK  7 active torsions:
REMARK  status: ('A' for Active; 'I' for Inactive)
REMARK    1  A    between atoms: C_1  and  C_2
REMARK    2  A    between atoms: C_2  and  C_3
REMARK    3  A    between atoms: C_7  and  N_8
REMARK    4  A    between atoms: N_11  and  C_12
REMARK    5  A    between atoms: C_12  and  C_13
REMARK    6  A    between atoms: C_13  and  C_14
REMARK    7  A    between atoms: N_17  and  C_18
REMARK                            x       y       z     vdW  Elec       q    Type
REMARK                         _______ _______ _______ _____ _____    ______ ____
ROOT
ATOM      1  N   UNL     1       8.786  11.305  17.839  0.00  0.00    +0.000 N 
ATOM      2  C   UNL     1       8.854  10.068  18.412  0.00  0.00    +0.000 C 
ATOM      3  O   UNL     1       9.605   9.791  19.346  0.00  0.00    +0.000 OA
ATOM      4  N   UNL     1       8.044   9.144  17.806  0.00  0.00    +0.000 N 
ATOM      5  H   UNL     1       8.054  11.481  17.172  0.00  0.00    +0.000 HD
ATOM      6  H   UNL     1       7.257   9.479  17.268  0.00  0.00    +0.000 HD
ENDROOT
BRANCH   1  13
ATOM      7  C   UNL     1       8.121  13.601  20.152  0.00  0.00    +0.000 C 
ATOM      8  C   UNL     1       8.728  13.681  18.747  0.00  0.00    +0.000 C 
ATOM      9  C   UNL     1       7.610  14.001  17.737  0.00  0.00    +0.000 C 
ATOM     10  C   UNL     1       9.810  14.776  18.725  0.00  0.00    +0.000 C 
ATOM     11  C   UNL     1      10.668  14.457  17.509  0.00  0.00    +0.000 C 
ATOM     12  C   UNL     1      10.571  12.943  17.316  0.00  0.00    +0.000 C 
ATOM     13  C   UNL     1       9.557  12.429  18.352  0.00  0.00    +0.000 C 
ENDBRANCH   1  13
BRANCH   4  14
ATOM     14  C   UNL     1       7.977   7.794  18.351  0.00  0.00    +0.000 C 
BRANCH  14  15
ATOM     15  C   UNL     1       7.408   6.759  17.367  0.00  0.00    +0.000 C 
BRANCH  15  16
ATOM     16  C   UNL     1       5.982   6.448  17.683  0.00  0.00    +0.000 A 
ATOM     17  C   UNL     1       4.818   6.998  17.111  0.00  0.00    +0.000 A 
ATOM     18  N   UNL     1       3.702   6.392  17.521  0.00  0.00    +0.000 NA
ATOM     19  N   UNL     1       4.123   5.499  18.445  0.00  0.00    +0.000 N 
ATOM     20  C   UNL     1       5.496   5.512  18.568  0.00  0.00    +0.000 A 
BRANCH  19  21
ATOM     21  C   UNL     1       3.214   4.672  19.157  0.00  0.00    +0.000 A 
ATOM     22  C   UNL     1       3.318   3.279  19.061  0.00  0.00    +0.000 A 
ATOM     23  C   UNL     1       2.429   2.471  19.775  0.00  0.00    +0.000 A 
ATOM     24  C   UNL     1       1.432   3.050  20.554  0.00  0.00    +0.000 A 
ATOM     25  C   UNL     1       1.318   4.435  20.639  0.00  0.00    +0.000 A 
ATOM     26  C   UNL     1       2.218   5.247  19.950  0.00  0.00    +0.000 A 
ENDBRANCH  19  21
ENDBRANCH  15  16
ENDBRANCH  14  15
ENDBRANCH   4  14
TORSDOF 5
ENDMDL
MODEL 7
REMARK VINA RESULT:      -7.4      2.203      9.651
REMARK  Name = 
REMARK  7 active torsions:
REMARK  status: ('A' for Active; 'I' for Inactive)
REMARK    1  A    between atoms: C_1  and  C_2
REMARK    2  A    between atoms: C_2  and  C_3
REMARK    3  A    between atoms: C_7  and  N_8
REMARK    4  A    between atoms: N_11  and  C_12
REMARK    5  A    between atoms: C_12  and  C_13
REMARK    6  A    between atoms: C_13  and  C_14
REMARK    7  A    between atoms: N_17  and  C_18
REMARK                            x       y       z     vdW  Elec       q    Type
REMARK                         _______ _______ _______ _____ _____    ______ ____
ROOT
ATOM      1  N   UNL     1       4.186   4.069  19.549  0.00  0.00    +0.000 N 
ATOM      2  C   UNL     1       4.847   4.033  18.356  0.00  0.00    +0.000 C 
ATOM      3  O   UNL     1       4.536   3.288  17.428  0.00  0.00    +0.000 OA
ATOM      4  N   UNL     1       5.933   4.868  18.312  0.00  0.00    +0.000 N 
ATOM      5  H   UNL     1       4.421   4.797  20.203  0.00  0.00    +0.000 HD
ATOM      6  H   UNL     1       5.962   5.647  18.955  0.00  0.00    +0.000 HD
ENDROOT
BRANCH   1  13
ATOM      7  C   UNL     1       1.178   4.061  18.129  0.00  0.00    +0.000 C 
ATOM      8  C   UNL     1       1.642   4.007  19.589  0.00  0.00    +0.000 C 
ATOM      9  C   UNL     1       1.652   5.436  20.164  0.00  0.00    +0.000 C 
ATOM     10  C   UNL     1       0.686   3.106  20.391  0.00  0.00    +0.000 C 
ATOM     11  C   UNL     1       1.467   2.714  21.638  0.00  0.00    +0.000 C 
ATOM     12  C   UNL     1       2.941   2.741  21.232  0.00  0.00    +0.000 C 
ATOM     13  C   UNL     1       2.993   3.268  19.788  0.00  0.00    +0.000 C 
ENDBRANCH   1  13
BRANCH   4  14
ATOM     14  C   UNL     1       6.699   4.969  17.077  0.00  0.00    +0.000 C 
BRANCH  14  15
ATOM     15  C   UNL     1       6.801   6.402  16.529  0.00  0.00    +0.000 C 
BRANCH  15  16
ATOM     16  C   UNL     1       7.510   7.294  17.495  0.00  0.00    +0.000 A 
ATOM     17  C   UNL     1       8.201   6.938  18.671  0.00  0.00    +0.000 A 
ATOM     18  N   UNL     1       8.846   7.967  19.225  0.00  0.00    +0.000 NA
ATOM     19  N   UNL     1       8.499   9.031  18.466  0.00  0.00    +0.000 N 
ATOM     20  C   UNL     1       7.690   8.656  17.414  0.00  0.00    +0.000 A 
BRANCH  19  21
ATOM     21  C   UNL     1       8.955  10.343  18.762  0.00  0.00    +0.000 A 
ATOM     22  C   UNL     1       8.746  11.377  17.840  0.00  0.00    +0.000 A 
ATOM     23  C   UNL     1       9.185  12.669  18.142  0.00  0.00    +0.000 A 
ATOM     24  C   UNL     1       9.848  12.916  19.340  0.00  0.00    +0.000 A 
ATOM     25  C   UNL     1      10.070  11.887  20.251  0.00  0.00    +0.000 A 
ATOM     26  C   UNL     1       9.612  10.602  19.967  0.00  0.00    +0.000 A 
ENDBRANCH  19  21
ENDBRANCH  15  16
ENDBRANCH  14  15
ENDBRANCH   4  14
TORSDOF 5
ENDMDL
MODEL 8
REMARK VINA RESULT:      -7.4      1.874     10.092
REMARK  Name = 
REMARK  7 active torsions:
REMARK  status: ('A' for Active; 'I' for Inactive)
REMARK    1  A    between atoms: C_1  and  C_2
REMARK    2  A    between atoms: C_2  and  C_3
REMARK    3  A    between atoms: C_7  and  N_8
REMARK    4  A    between atoms: N_11  and  C_12
REMARK    5  A    between atoms: C_12  and  C_13
REMARK    6  A    between atoms: C_13  and  C_14
REMARK    7  A    between atoms: N_17  and  C_18
REMARK                            x       y       z     vdW  Elec       q    Type
REMARK                         _______ _______ _______ _____ _____    ______ ____
ROOT
ATOM      1  N   UNL     1       4.050   5.204  18.890  0.00  0.00    +0.000 N 
ATOM      2  C   UNL     1       5.397   5.410  18.969  0.00  0.00    +0.000 C 
ATOM      3  O   UNL     1       6.131   4.814  19.756  0.00  0.00    +0.000 OA
ATOM      4  N   UNL     1       5.846   6.392  18.125  0.00  0.00    +0.000 N 
ATOM      5  H   UNL     1       3.546   5.633  18.133  0.00  0.00    +0.000 HD
ATOM      6  H   UNL     1       5.281   6.624  17.320  0.00  0.00    +0.000 HD
ENDROOT
BRANCH   1  13
ATOM      7  C   UNL     1       3.485   1.966  18.380  0.00  0.00    +0.000 C 
ATOM      8  C   UNL     1       2.603   3.111  18.892  0.00  0.00    +0.000 C 
ATOM      9  C   UNL     1       1.811   3.700  17.710  0.00  0.00    +0.000 C 
ATOM     10  C   UNL     1       1.647   2.569  19.970  0.00  0.00    +0.000 C 
ATOM     11  C   UNL     1       1.193   3.797  20.747  0.00  0.00    +0.000 C 
ATOM     12  C   UNL     1       2.336   4.806  20.637  0.00  0.00    +0.000 C 
ATOM     13  C   UNL     1       3.383   4.188  19.693  0.00  0.00    +0.000 C 
ENDBRANCH   1  13
BRANCH   4  14
ATOM     14  C   UNL     1       7.274   6.678  18.068  0.00  0.00    +0.000 C 
BRANCH  14  15
ATOM     15  C   UNL     1       7.627   7.877  17.173  0.00  0.00    +0.000 C 
BRANCH  15  16
ATOM     16  C   UNL     1       8.233   8.982  17.974  0.00  0.00    +0.000 A 
ATOM     17  C   UNL     1       8.885   8.904  19.221  0.00  0.00    +0.000 A 
ATOM     18  N   UNL     1       9.439  10.061  19.590  0.00  0.00    +0.000 NA
ATOM     19  N   UNL     1       9.068  10.935  18.628  0.00  0.00    +0.000 N 
ATOM     20  C   UNL     1       8.335  10.313  17.639  0.00  0.00    +0.000 A 
BRANCH  19  21
ATOM     21  C   UNL     1       9.430  12.307  18.682  0.00  0.00    +0.000 A 
ATOM     22  C   UNL     1       9.939  12.938  17.539  0.00  0.00    +0.000 A 
ATOM     23  C   UNL     1      10.280  14.292  17.595  0.00  0.00    +0.000 A 
ATOM     24  C   UNL     1      10.139  14.998  18.786  0.00  0.00    +0.000 A 
ATOM     25  C   UNL     1       9.647  14.369  19.925  0.00  0.00    +0.000 A 
ATOM     26  C   UNL     1       9.281  13.025  19.871  0.00  0.00    +0.000 A 
ENDBRANCH  19  21
ENDBRANCH  15  16
ENDBRANCH  14  15
ENDBRANCH   4  14
TORSDOF 5
ENDMDL
MODEL 9
REMARK VINA RESULT:      -7.3      1.362      2.170
REMARK  Name = 
REMARK  7 active torsions:
REMARK  status: ('A' for Active; 'I' for Inactive)
REMARK    1  A    between atoms: C_1  and  C_2
REMARK    2  A    between atoms: C_2  and  C_3
REMARK    3  A    between atoms: C_7  and  N_8
REMARK    4  A    between atoms: N_11  and  C_12
REMARK    5  A    between atoms: C_12  and  C_13
REMARK    6  A    between atoms: C_13  and  C_14
REMARK    7  A    between atoms: N_17  and  C_18
REMARK                            x       y       z     vdW  Elec       q    Type
REMARK                         _______ _______ _______ _____ _____    ______ ____
ROOT
ATOM      1  N   UNL     1       8.910  10.659  18.052  0.00  0.00    +0.000 N 
ATOM      2  C   UNL     1       8.586   9.354  18.283  0.00  0.00    +0.000 C 
ATOM      3  O   UNL     1       9.151   8.650  19.118  0.00  0.00    +0.000 OA
ATOM      4  N   UNL     1       7.603   8.883  17.452  0.00  0.00    +0.000 N 
ATOM      5  H   UNL     1       8.313  11.199  17.449  0.00  0.00    +0.000 HD
ATOM      6  H   UNL     1       6.987   9.554  17.015  0.00  0.00    +0.000 HD
ENDROOT
BRANCH   1  13
ATOM      7  C   UNL     1       8.682  12.724  20.650  0.00  0.00    +0.000 C 
ATOM      8  C   UNL     1       9.512  12.756  19.362  0.00  0.00    +0.000 C 
ATOM      9  C   UNL     1       8.763  13.588  18.304  0.00  0.00    +0.000 C 
ATOM     10  C   UNL     1      10.890  13.373  19.663  0.00  0.00    +0.000 C 
ATOM     11  C   UNL     1      11.783  12.921  18.517  0.00  0.00    +0.000 C 
ATOM     12  C   UNL     1      11.210  11.585  18.043  0.00  0.00    +0.000 C 
ATOM     13  C   UNL     1       9.918  11.349  18.845  0.00  0.00    +0.000 C 
ENDBRANCH   1  13
BRANCH   4  14
ATOM     14  C   UNL     1       7.121   7.519  17.626  0.00  0.00    +0.000 C 
BRANCH  14  15
ATOM     15  C   UNL     1       5.873   7.194  16.788  0.00  0.00    +0.000 C 
BRANCH  15  16
ATOM     16  C   UNL     1       5.193   5.966  17.298  0.00  0.00    +0.000 A 
ATOM     17  C   UNL     1       5.431   4.623  16.947  0.00  0.00    +0.000 A 
ATOM     18  N   UNL     1       4.746   3.760  17.700  0.00  0.00    +0.000 NA
ATOM     19  N   UNL     1       3.974   4.540  18.489  0.00  0.00    +0.000 N 
ATOM     20  C   UNL     1       4.220   5.879  18.267  0.00  0.00    +0.000 A 
BRANCH  19  21
ATOM     21  C   UNL     1       3.054   3.988  19.419  0.00  0.00    +0.000 A 
ATOM     22  C   UNL     1       3.498   3.062  20.372  0.00  0.00    +0.000 A 
ATOM     23  C   UNL     1       2.591   2.532  21.293  0.00  0.00    +0.000 A 
ATOM     24  C   UNL     1       1.251   2.904  21.244  0.00  0.00    +0.000 A 
ATOM     25  C   UNL     1       0.805   3.813  20.289  0.00  0.00    +0.000 A 
ATOM     26  C   UNL     1       1.709   4.365  19.383  0.00  0.00    +0.000 A 
ENDBRANCH  19  21
ENDBRANCH  15  16
ENDBRANCH  14  15
ENDBRANCH   4  14
TORSDOF 5
ENDMDL
