MODEL 1
REMARK VINA RESULT:      -8.1      0.000      0.000
REMARK  Name = 
REMARK  5 active torsions:
REMARK  status: ('A' for Active; 'I' for Inactive)
REMARK    1  A    between atoms: C_2  and  C_3
REMARK    2  A    between atoms: C_2  and  C_16
REMARK    3  A    between atoms: C_3  and  S_4
REMARK    4  A    between atoms: S_4  and  C_5
REMARK    5  A    between atoms: C_8  and  C_9
REMARK                            x       y       z     vdW  Elec       q    Type
REMARK                         _______ _______ _______ _____ _____    ______ ____
ROOT
ATOM      1  S   UNL     1       7.586   5.459  18.709  0.00  0.00    +0.000 S 
ENDROOT
BRANCH   1   2
ATOM      2  C   UNL     1       7.837   7.119  18.284  0.00  0.00    +0.000 A 
ATOM      3  N   UNL     1       7.297   7.728  17.249  0.00  0.00    +0.000 NA
ATOM      4  N   UNL     1       7.773   9.025  17.263  0.00  0.00    +0.000 NA
ATOM      5  C   UNL     1       8.566   9.123  18.312  0.00  0.00    +0.000 A 
ATOM      6  O   UNL     1       8.663   7.945  19.004  0.00  0.00    +0.000 OA
BRANCH   5   7
ATOM      7  C   UNL     1       9.278  10.282  18.839  0.00  0.00    +0.000 A 
ATOM      8  C   UNL     1       9.905  11.165  17.946  0.00  0.00    +0.000 A 
ATOM      9  C   UNL     1      10.607  12.279  18.412  0.00  0.00    +0.000 A 
ATOM     10  C   UNL     1      10.696  12.522  19.780  0.00  0.00    +0.000 A 
ATOM     11  C   UNL     1      10.074  11.659  20.681  0.00  0.00    +0.000 A 
ATOM     12  C   UNL     1       9.361  10.549  20.214  0.00  0.00    +0.000 A 
ENDBRANCH   5   7
ENDBRANCH   1   2
BRANCH   1  13
ATOM     13  C   UNL     1       7.488   4.652  17.080  0.00  0.00    +0.000 C 
BRANCH  13  15
ATOM     14  O   UNL     1       5.686   3.842  15.645  0.00  0.00    +0.000 OA
ATOM     15  C   UNL     1       6.040   4.342  16.719  0.00  0.00    +0.000 C 
BRANCH  15  16
ATOM     16  C   UNL     1       4.967   4.634  17.711  0.00  0.00    +0.000 A 
ATOM     17  C   UNL     1       4.293   5.858  17.739  0.00  0.00    +0.000 A 
ATOM     18  C   UNL     1       3.299   6.083  18.696  0.00  0.00    +0.000 A 
ATOM     19  C   UNL     1       2.975   5.093  19.630  0.00  0.00    +0.000 A 
ATOM     20 CL   UNL     1       1.750   5.453  20.792  0.00  0.00    +0.000 Cl
ATOM     21  C   UNL     1       3.637   3.862  19.595  0.00  0.00    +0.000 A 
ATOM     22 CL   UNL     1       3.287   2.589  20.709  0.00  0.00    +0.000 Cl
ATOM     23  C   UNL     1       4.624   3.634  18.634  0.00  0.00    +0.000 A 
ENDBRANCH  15  16
ENDBRANCH  13  15
ENDBRANCH   1  13
TORSDOF 5
ENDMDL
MODEL 2
REMARK VINA RESULT:      -8.1      0.777      1.881
REMARK  Name = 
REMARK  5 active torsions:
REMARK  status: ('A' for Active; 'I' for Inactive)
REMARK    1  A    between atoms: C_2  and  C_3
REMARK    2  A    between atoms: C_2  and  C_16
REMARK    3  A    between atoms: C_3  and  S_4
REMARK    4  A    between atoms: S_4  and  C_5
REMARK    5  A    between atoms: C_8  and  C_9
REMARK                            x       y       z     vdW  Elec       q    Type
REMARK                         _______ _______ _______ _____ _____    ______ ____
ROOT
ATOM      1  S   UNL     1       7.589   5.491  18.669  0.00  0.00    +0.000 S 
ENDROOT
BRANCH   1   2
ATOM      2  C   UNL     1       7.828   7.151  18.237  0.00  0.00    +0.000 A 
ATOM      3  N   UNL     1       7.269   7.757  17.212  0.00  0.00    +0.000 NA
ATOM      4  N   UNL     1       7.742   9.055  17.215  0.00  0.00    +0.000 NA
ATOM      5  C   UNL     1       8.553   9.157  18.250  0.00  0.00    +0.000 A 
ATOM      6  O   UNL     1       8.666   7.979  18.941  0.00  0.00    +0.000 OA
BRANCH   5   7
ATOM      7  C   UNL     1       9.272  10.317  18.762  0.00  0.00    +0.000 A 
ATOM      8  C   UNL     1       9.344  10.522  20.149  0.00  0.00    +0.000 A 
ATOM      9  C   UNL     1      10.013  11.627  20.679  0.00  0.00    +0.000 A 
ATOM     10  C   UNL     1      10.616  12.548  19.826  0.00  0.00    +0.000 A 
ATOM     11  C   UNL     1      10.561  12.358  18.446  0.00  0.00    +0.000 A 
ATOM     12  C   UNL     1       9.899  11.244  17.916  0.00  0.00    +0.000 A 
ENDBRANCH   5   7
ENDBRANCH   1   2
BRANCH   1  13
ATOM     13  C   UNL     1       7.474   4.680  17.043  0.00  0.00    +0.000 C 
BRANCH  13  15
ATOM     14  O   UNL     1       5.673   3.737  15.691  0.00  0.00    +0.000 OA
ATOM     15  C   UNL     1       6.027   4.324  16.720  0.00  0.00    +0.000 C 
BRANCH  15  16
ATOM     16  C   UNL     1       4.959   4.679  17.695  0.00  0.00    +0.000 A 
ATOM     17  C   UNL     1       4.641   3.859  18.781  0.00  0.00    +0.000 A 
ATOM     18  C   UNL     1       3.624   4.236  19.663  0.00  0.00    +0.000 A 
ATOM     19  C   UNL     1       2.918   5.429  19.466  0.00  0.00    +0.000 A 
ATOM     20 CL   UNL     1       1.664   5.816  20.587  0.00  0.00    +0.000 Cl
ATOM     21  C   UNL     1       3.244   6.258  18.388  0.00  0.00    +0.000 A 
ATOM     22 CL   UNL     1       2.423   7.747  18.084  0.00  0.00    +0.000 Cl
ATOM     23  C   UNL     1       4.266   5.886  17.512  0.00  0.00    +0.000 A 
ENDBRANCH  15  16
ENDBRANCH  13  15
ENDBRANCH   1  13
TORSDOF 5
ENDMDL
MODEL 3
REMARK VINA RESULT:      -8.0      4.487      6.261
REMARK  Name = 
REMARK  5 active torsions:
REMARK  status: ('A' for Active; 'I' for Inactive)
REMARK    1  A    between atoms: C_2  and  C_3
REMARK    2  A    between atoms: C_2  and  C_16
REMARK    3  A    between atoms: C_3  and  S_4
REMARK    4  A    between atoms: S_4  and  C_5
REMARK    5  A    between atoms: C_8  and  C_9
REMARK                            x       y       z     vdW  Elec       q    Type
REMARK                         _______ _______ _______ _____ _____    ______ ____
ROOT
ATOM      1  S   UNL     1       5.887   4.943  19.326  0.00  0.00    +0.000 S 
ENDROOT
BRANCH   1   2
ATOM      2  C   UNL     1       6.492   5.311  17.745  0.00  0.00    +0.000 A 
ATOM      3  N   UNL     1       7.323   6.290  17.459  0.00  0.00    +0.000 NA
ATOM      4  N   UNL     1       7.527   6.247  16.093  0.00  0.00    +0.000 NA
ATOM      5  C   UNL     1       6.813   5.236  15.638  0.00  0.00    +0.000 A 
ATOM      6  O   UNL     1       6.117   4.601  16.632  0.00  0.00    +0.000 OA
BRANCH   5   7
ATOM      7  C   UNL     1       6.711   4.699  14.286  0.00  0.00    +0.000 A 
ATOM      8  C   UNL     1       5.639   3.852  13.964  0.00  0.00    +0.000 A 
ATOM      9  C   UNL     1       5.513   3.308  12.685  0.00  0.00    +0.000 A 
ATOM     10  C   UNL     1       6.461   3.601  11.708  0.00  0.00    +0.000 A 
ATOM     11  C   UNL     1       7.528   4.446  12.008  0.00  0.00    +0.000 A 
ATOM     12  C   UNL     1       7.649   5.000  13.287  0.00  0.00    +0.000 A 
ENDBRANCH   5   7
ENDBRANCH   1   2
BRANCH   1  13
ATOM     13  C   UNL     1       4.620   3.685  18.974  0.00  0.00    +0.000 C 
BRANCH  13  15
ATOM     14  O   UNL     1       2.849   3.890  17.307  0.00  0.00    +0.000 OA
ATOM     15  C   UNL     1       3.394   4.320  18.329  0.00  0.00    +0.000 C 
BRANCH  15  16
ATOM     16  C   UNL     1       2.785   5.524  18.962  0.00  0.00    +0.000 A 
ATOM     17  C   UNL     1       2.241   5.494  20.249  0.00  0.00    +0.000 A 
ATOM     18  C   UNL     1       1.676   6.650  20.792  0.00  0.00    +0.000 A 
ATOM     19  C   UNL     1       1.646   7.841  20.057  0.00  0.00    +0.000 A 
ATOM     20 CL   UNL     1       0.914   9.221  20.789  0.00  0.00    +0.000 Cl
ATOM     21  C   UNL     1       2.203   7.878  18.775  0.00  0.00    +0.000 A 
ATOM     22 CL   UNL     1       2.212   9.311  17.809  0.00  0.00    +0.000 Cl
ATOM     23  C   UNL     1       2.776   6.725  18.235  0.00  0.00    +0.000 A 
ENDBRANCH  15  16
ENDBRANCH  13  15
ENDBRANCH   1  13
TORSDOF 5
ENDMDL
MODEL 4
REMARK VINA RESULT:      -7.9      5.062      6.241
REMARK  Name = 
REMARK  5 active torsions:
REMARK  status: ('A' for Active; 'I' for Inactive)
REMARK    1  A    between atoms: C_2  and  C_3
REMARK    2  A    between atoms: C_2  and  C_16
REMARK    3  A    between atoms: C_3  and  S_4
REMARK    4  A    between atoms: S_4  and  C_5
REMARK    5  A    between atoms: C_8  and  C_9
REMARK                            x       y       z     vdW  Elec       q    Type
REMARK                         _______ _______ _______ _____ _____    ______ ____
ROOT
ATOM      1  S   UNL     1       4.772   3.496  19.217  0.00  0.00    +0.000 S 
ENDROOT
BRANCH   1   2
ATOM      2  C   UNL     1       5.850   4.090  17.998  0.00  0.00    +0.000 A 
ATOM      3  N   UNL     1       6.953   4.771  18.227  0.00  0.00    +0.000 NA
ATOM      4  N   UNL     1       7.495   5.069  16.992  0.00  0.00    +0.000 NA
ATOM      5  C   UNL     1       6.689   4.541  16.091  0.00  0.00    +0.000 A 
ATOM      6  O   UNL     1       5.613   3.912  16.659  0.00  0.00    +0.000 OA
BRANCH   5   7
ATOM      7  C   UNL     1       6.814   4.497  14.638  0.00  0.00    +0.000 A 
ATOM      8  C   UNL     1       6.023   3.595  13.910  0.00  0.00    +0.000 A 
ATOM      9  C   UNL     1       6.121   3.514  12.519  0.00  0.00    +0.000 A 
ATOM     10  C   UNL     1       7.018   4.333  11.837  0.00  0.00    +0.000 A 
ATOM     11  C   UNL     1       7.807   5.239  12.544  0.00  0.00    +0.000 A 
ATOM     12  C   UNL     1       7.701   5.327  13.936  0.00  0.00    +0.000 A 
ENDBRANCH   5   7
ENDBRANCH   1   2
BRANCH   1  13
ATOM     13  C   UNL     1       3.537   2.589  18.235  0.00  0.00    +0.000 C 
BRANCH  13  15
ATOM     14  O   UNL     1       1.106   2.678  18.032  0.00  0.00    +0.000 OA
ATOM     15  C   UNL     1       2.159   3.222  18.385  0.00  0.00    +0.000 C 
BRANCH  15  16
ATOM     16  C   UNL     1       2.045   4.570  19.007  0.00  0.00    +0.000 A 
ATOM     17  C   UNL     1       1.627   4.746  20.330  0.00  0.00    +0.000 A 
ATOM     18  C   UNL     1       1.530   6.034  20.863  0.00  0.00    +0.000 A 
ATOM     19  C   UNL     1       1.847   7.153  20.083  0.00  0.00    +0.000 A 
ATOM     20 CL   UNL     1       1.685   8.711  20.807  0.00  0.00    +0.000 Cl
ATOM     21  C   UNL     1       2.280   6.979  18.765  0.00  0.00    +0.000 A 
ATOM     22 CL   UNL     1       2.696   8.308  17.743  0.00  0.00    +0.000 Cl
ATOM     23  C   UNL     1       2.385   5.691  18.234  0.00  0.00    +0.000 A 
ENDBRANCH  15  16
ENDBRANCH  13  15
ENDBRANCH   1  13
TORSDOF 5
ENDMDL
MODEL 5
REMARK VINA RESULT:      -7.9      4.667      7.683
REMARK  Name = 
REMARK  5 active torsions:
REMARK  status: ('A' for Active; 'I' for Inactive)
REMARK    1  A    between atoms: C_2  and  C_3
REMARK    2  A    between atoms: C_2  and  C_16
REMARK    3  A    between atoms: C_3  and  S_4
REMARK    4  A    between atoms: S_4  and  C_5
REMARK    5  A    between atoms: C_8  and  C_9
REMARK                            x       y       z     vdW  Elec       q    Type
REMARK                         _______ _______ _______ _____ _____    ______ ____
ROOT
ATOM      1  S   UNL     1       6.044   7.245  16.970  0.00  0.00    +0.000 S 
ENDROOT
BRANCH   1   2
ATOM      2  C   UNL     1       4.457   6.897  17.570  0.00  0.00    +0.000 A 
ATOM      3  N   UNL     1       3.454   7.749  17.603  0.00  0.00    +0.000 NA
ATOM      4  N   UNL     1       2.388   7.080  18.174  0.00  0.00    +0.000 NA
ATOM      5  C   UNL     1       2.810   5.860  18.443  0.00  0.00    +0.000 A 
ATOM      6  O   UNL     1       4.123   5.675  18.096  0.00  0.00    +0.000 OA
BRANCH   5   7
ATOM      7  C   UNL     1       2.084   4.719  18.988  0.00  0.00    +0.000 A 
ATOM      8  C   UNL     1       1.912   4.617  20.378  0.00  0.00    +0.000 A 
ATOM      9  C   UNL     1       1.232   3.534  20.939  0.00  0.00    +0.000 A 
ATOM     10  C   UNL     1       0.718   2.534  20.118  0.00  0.00    +0.000 A 
ATOM     11  C   UNL     1       0.874   2.622  18.735  0.00  0.00    +0.000 A 
ATOM     12  C   UNL     1       1.546   3.713  18.172  0.00  0.00    +0.000 A 
ENDBRANCH   5   7
ENDBRANCH   1   2
BRANCH   1  13
ATOM     13  C   UNL     1       7.105   6.303  18.110  0.00  0.00    +0.000 C 
BRANCH  13  15
ATOM     14  O   UNL     1       8.228   4.136  18.053  0.00  0.00    +0.000 OA
ATOM     15  C   UNL     1       7.488   4.959  17.502  0.00  0.00    +0.000 C 
BRANCH  15  16
ATOM     16  C   UNL     1       6.935   4.581  16.172  0.00  0.00    +0.000 A 
ATOM     17  C   UNL     1       5.816   3.754  16.039  0.00  0.00    +0.000 A 
ATOM     18  C   UNL     1       5.341   3.425  14.766  0.00  0.00    +0.000 A 
ATOM     19  C   UNL     1       5.980   3.914  13.621  0.00  0.00    +0.000 A 
ATOM     20 CL   UNL     1       5.345   3.448  12.085  0.00  0.00    +0.000 Cl
ATOM     21  C   UNL     1       7.090   4.754  13.751  0.00  0.00    +0.000 A 
ATOM     22 CL   UNL     1       7.925   5.403  12.385  0.00  0.00    +0.000 Cl
ATOM     23  C   UNL     1       7.559   5.091  15.022  0.00  0.00    +0.000 A 
ENDBRANCH  15  16
ENDBRANCH  13  15
ENDBRANCH   1  13
TORSDOF 5
ENDMDL
MODEL 6
REMARK VINA RESULT:      -7.9      0.770      1.536
REMARK  Name = 
REMARK  5 active torsions:
REMARK  status: ('A' for Active; 'I' for Inactive)
REMARK    1  A    between atoms: C_2  and  C_3
REMARK    2  A    between atoms: C_2  and  C_16
REMARK    3  A    between atoms: C_3  and  S_4
REMARK    4  A    between atoms: S_4  and  C_5
REMARK    5  A    between atoms: C_8  and  C_9
REMARK                            x       y       z     vdW  Elec       q    Type
REMARK                         _______ _______ _______ _____ _____    ______ ____
ROOT
ATOM      1  S   UNL     1       7.602   5.569  18.691  0.00  0.00    +0.000 S 
ENDROOT
BRANCH   1   2
ATOM      2  C   UNL     1       7.846   7.220  18.227  0.00  0.00    +0.000 A 
ATOM      3  N   UNL     1       7.371   7.780  17.135  0.00  0.00    +0.000 NA
ATOM      4  N   UNL     1       7.816   9.087  17.136  0.00  0.00    +0.000 NA
ATOM      5  C   UNL     1       8.527   9.240  18.237  0.00  0.00    +0.000 A 
ATOM      6  O   UNL     1       8.600   8.089  18.974  0.00  0.00    +0.000 OA
BRANCH   5   7
ATOM      7  C   UNL     1       9.174  10.433  18.772  0.00  0.00    +0.000 A 
ATOM      8  C   UNL     1       9.425  11.519  17.918  0.00  0.00    +0.000 A 
ATOM      9  C   UNL     1      10.052  12.673  18.390  0.00  0.00    +0.000 A 
ATOM     10  C   UNL     1      10.443  12.756  19.723  0.00  0.00    +0.000 A 
ATOM     11  C   UNL     1      10.197  11.691  20.587  0.00  0.00    +0.000 A 
ATOM     12  C   UNL     1       9.558  10.538  20.117  0.00  0.00    +0.000 A 
ENDBRANCH   5   7
ENDBRANCH   1   2
BRANCH   1  13
ATOM     13  C   UNL     1       7.244   4.766  17.097  0.00  0.00    +0.000 C 
BRANCH  13  15
ATOM     14  O   UNL     1       5.444   5.300  15.537  0.00  0.00    +0.000 OA
ATOM     15  C   UNL     1       5.797   5.007  16.685  0.00  0.00    +0.000 C 
BRANCH  15  16
ATOM     16  C   UNL     1       4.720   4.871  17.706  0.00  0.00    +0.000 A 
ATOM     17  C   UNL     1       4.362   3.633  18.248  0.00  0.00    +0.000 A 
ATOM     18  C   UNL     1       3.340   3.560  19.198  0.00  0.00    +0.000 A 
ATOM     19  C   UNL     1       2.668   4.716  19.611  0.00  0.00    +0.000 A 
ATOM     20 CL   UNL     1       1.405   4.541  20.774  0.00  0.00    +0.000 Cl
ATOM     21  C   UNL     1       3.035   5.958  19.082  0.00  0.00    +0.000 A 
ATOM     22 CL   UNL     1       2.258   7.429  19.547  0.00  0.00    +0.000 Cl
ATOM     23  C   UNL     1       4.062   6.032  18.139  0.00  0.00    +0.000 A 
ENDBRANCH  15  16
ENDBRANCH  13  15
ENDBRANCH   1  13
TORSDOF 5
ENDMDL
MODEL 7
REMARK VINA RESULT:      -7.8      4.819      6.345
REMARK  Name = 
REMARK  5 active torsions:
REMARK  status: ('A' for Active; 'I' for Inactive)
REMARK    1  A    between atoms: C_2  and  C_3
REMARK    2  A    between atoms: C_2  and  C_16
REMARK    3  A    between atoms: C_3  and  S_4
REMARK    4  A    between atoms: S_4  and  C_5
REMARK    5  A    between atoms: C_8  and  C_9
REMARK                            x       y       z     vdW  Elec       q    Type
REMARK                         _______ _______ _______ _____ _____    ______ ____
ROOT
ATOM      1  S   UNL     1       5.150   4.975  19.440  0.00  0.00    +0.000 S 
ENDROOT
BRANCH   1   2
ATOM      2  C   UNL     1       6.236   4.754  18.109  0.00  0.00    +0.000 A 
ATOM      3  N   UNL     1       7.534   4.564  18.212  0.00  0.00    +0.000 NA
ATOM      4  N   UNL     1       8.021   4.461  16.923  0.00  0.00    +0.000 NA
ATOM      5  C   UNL     1       6.983   4.585  16.119  0.00  0.00    +0.000 A 
ATOM      6  O   UNL     1       5.814   4.787  16.804  0.00  0.00    +0.000 OA
BRANCH   5   7
ATOM      7  C   UNL     1       6.912   4.490  14.665  0.00  0.00    +0.000 A 
ATOM      8  C   UNL     1       5.989   3.609  14.080  0.00  0.00    +0.000 A 
ATOM      9  C   UNL     1       5.898   3.480  12.693  0.00  0.00    +0.000 A 
ATOM     10  C   UNL     1       6.735   4.229  11.870  0.00  0.00    +0.000 A 
ATOM     11  C   UNL     1       7.653   5.114  12.432  0.00  0.00    +0.000 A 
ATOM     12  C   UNL     1       7.737   5.251  13.823  0.00  0.00    +0.000 A 
ENDBRANCH   5   7
ENDBRANCH   1   2
BRANCH   1  13
ATOM     13  C   UNL     1       3.844   3.759  19.081  0.00  0.00    +0.000 C 
BRANCH  13  15
ATOM     14  O   UNL     1       1.516   3.655  19.808  0.00  0.00    +0.000 OA
ATOM     15  C   UNL     1       2.470   4.332  19.409  0.00  0.00    +0.000 C 
BRANCH  15  16
ATOM     16  C   UNL     1       2.242   5.797  19.263  0.00  0.00    +0.000 A 
ATOM     17  C   UNL     1       2.406   6.458  18.042  0.00  0.00    +0.000 A 
ATOM     18  C   UNL     1       2.186   7.835  17.962  0.00  0.00    +0.000 A 
ATOM     19  C   UNL     1       1.806   8.562  19.097  0.00  0.00    +0.000 A 
ATOM     20 CL   UNL     1       1.572  10.263  18.921  0.00  0.00    +0.000 Cl
ATOM     21  C   UNL     1       1.628   7.901  20.316  0.00  0.00    +0.000 A 
ATOM     22 CL   UNL     1       1.153   8.728  21.757  0.00  0.00    +0.000 Cl
ATOM     23  C   UNL     1       1.838   6.523  20.394  0.00  0.00    +0.000 A 
ENDBRANCH  15  16
ENDBRANCH  13  15
ENDBRANCH   1  13
TORSDOF 5
ENDMDL
MODEL 8
REMARK VINA RESULT:      -7.8      4.639      7.657
REMARK  Name = 
REMARK  5 active torsions:
REMARK  status: ('A' for Active; 'I' for Inactive)
REMARK    1  A    between atoms: C_2  and  C_3
REMARK    2  A    between atoms: C_2  and  C_16
REMARK    3  A    between atoms: C_3  and  S_4
REMARK    4  A    between atoms: S_4  and  C_5
REMARK    5  A    between atoms: C_8  and  C_9
REMARK                            x       y       z     vdW  Elec       q    Type
REMARK                         _______ _______ _______ _____ _____    ______ ____
ROOT
ATOM      1  S   UNL     1       5.898   7.326  16.895  0.00  0.00    +0.000 S 
ENDROOT
BRANCH   1   2
ATOM      2  C   UNL     1       4.354   6.956  17.587  0.00  0.00    +0.000 A 
ATOM      3  N   UNL     1       3.351   7.801  17.702  0.00  0.00    +0.000 NA
ATOM      4  N   UNL     1       2.327   7.114  18.326  0.00  0.00    +0.000 NA
ATOM      5  C   UNL     1       2.771   5.891  18.540  0.00  0.00    +0.000 A 
ATOM      6  O   UNL     1       4.059   5.721  18.107  0.00  0.00    +0.000 OA
BRANCH   5   7
ATOM      7  C   UNL     1       2.086   4.735  19.106  0.00  0.00    +0.000 A 
ATOM      8  C   UNL     1       1.623   3.724  18.249  0.00  0.00    +0.000 A 
ATOM      9  C   UNL     1       0.952   2.608  18.750  0.00  0.00    +0.000 A 
ATOM     10  C   UNL     1       0.729   2.488  20.120  0.00  0.00    +0.000 A 
ATOM     11  C   UNL     1       1.186   3.479  20.987  0.00  0.00    +0.000 A 
ATOM     12  C   UNL     1       1.869   4.593  20.485  0.00  0.00    +0.000 A 
ENDBRANCH   5   7
ENDBRANCH   1   2
BRANCH   1  13
ATOM     13  C   UNL     1       7.046   6.502  18.043  0.00  0.00    +0.000 C 
BRANCH  13  15
ATOM     14  O   UNL     1       8.080   4.294  18.176  0.00  0.00    +0.000 OA
ATOM     15  C   UNL     1       7.407   5.110  17.536  0.00  0.00    +0.000 C 
BRANCH  15  16
ATOM     16  C   UNL     1       6.916   4.676  16.198  0.00  0.00    +0.000 A 
ATOM     17  C   UNL     1       5.850   3.784  16.050  0.00  0.00    +0.000 A 
ATOM     18  C   UNL     1       5.434   3.404  14.771  0.00  0.00    +0.000 A 
ATOM     19  C   UNL     1       6.078   3.907  13.635  0.00  0.00    +0.000 A 
ATOM     20 CL   UNL     1       5.518   3.376  12.091  0.00  0.00    +0.000 Cl
ATOM     21  C   UNL     1       7.135   4.812  13.779  0.00  0.00    +0.000 A 
ATOM     22 CL   UNL     1       7.973   5.482  12.425  0.00  0.00    +0.000 Cl
ATOM     23  C   UNL     1       7.545   5.199  15.057  0.00  0.00    +0.000 A 
ENDBRANCH  15  16
ENDBRANCH  13  15
ENDBRANCH   1  13
TORSDOF 5
ENDMDL
MODEL 9
REMARK VINA RESULT:      -7.8      4.785      6.299
REMARK  Name = 
REMARK  5 active torsions:
REMARK  status: ('A' for Active; 'I' for Inactive)
REMARK    1  A    between atoms: C_2  and  C_3
REMARK    2  A    between atoms: C_2  and  C_16
REMARK    3  A    between atoms: C_3  and  S_4
REMARK    4  A    between atoms: S_4  and  C_5
REMARK    5  A    between atoms: C_8  and  C_9
REMARK                            x       y       z     vdW  Elec       q    Type
REMARK                         _______ _______ _______ _____ _____    ______ ____
ROOT
ATOM      1  S   UNL     1       5.461   4.638  19.369  0.00  0.00    +0.000 S 
ENDROOT
BRANCH   1   2
ATOM      2  C   UNL     1       5.751   5.254  17.777  0.00  0.00    +0.000 A 
ATOM      3  N   UNL     1       5.813   6.529  17.455  0.00  0.00    +0.000 NA
ATOM      4  N   UNL     1       6.034   6.581  16.092  0.00  0.00    +0.000 NA
ATOM      5  C   UNL     1       6.102   5.332  15.674  0.00  0.00    +0.000 A 
ATOM      6  O   UNL     1       5.918   4.432  16.691  0.00  0.00    +0.000 OA
BRANCH   5   7
ATOM      7  C   UNL     1       6.384   4.806  14.344  0.00  0.00    +0.000 A 
ATOM      8  C   UNL     1       7.452   5.342  13.607  0.00  0.00    +0.000 A 
ATOM      9  C   UNL     1       7.747   4.874  12.325  0.00  0.00    +0.000 A 
ATOM     10  C   UNL     1       6.972   3.865  11.759  0.00  0.00    +0.000 A 
ATOM     11  C   UNL     1       5.911   3.317  12.478  0.00  0.00    +0.000 A 
ATOM     12  C   UNL     1       5.623   3.778  13.767  0.00  0.00    +0.000 A 
ENDBRANCH   5   7
ENDBRANCH   1   2
BRANCH   1  13
ATOM     13  C   UNL     1       3.903   3.721  19.154  0.00  0.00    +0.000 C 
BRANCH  13  15
ATOM     14  O   UNL     1       2.381   4.267  17.325  0.00  0.00    +0.000 OA
ATOM     15  C   UNL     1       2.876   4.572  18.416  0.00  0.00    +0.000 C 
BRANCH  15  16
ATOM     16  C   UNL     1       2.409   5.843  19.035  0.00  0.00    +0.000 A 
ATOM     17  C   UNL     1       1.985   5.912  20.365  0.00  0.00    +0.000 A 
ATOM     18  C   UNL     1       1.550   7.130  20.895  0.00  0.00    +0.000 A 
ATOM     19  C   UNL     1       1.532   8.284  20.103  0.00  0.00    +0.000 A 
ATOM     20 CL   UNL     1       0.963   9.745  20.823  0.00  0.00    +0.000 Cl
ATOM     21  C   UNL     1       1.969   8.221  18.776  0.00  0.00    +0.000 A 
ATOM     22 CL   UNL     1       1.983   9.603  17.740  0.00  0.00    +0.000 Cl
ATOM     23  C   UNL     1       2.413   7.007  18.249  0.00  0.00    +0.000 A 
ENDBRANCH  15  16
ENDBRANCH  13  15
ENDBRANCH   1  13
TORSDOF 5
ENDMDL
