MODEL 1
REMARK VINA RESULT:      -7.2      0.000      0.000
REMARK  Name = 
REMARK  12 active torsions:
REMARK  status: ('A' for Active; 'I' for Inactive)
REMARK    1  A    between atoms: C_1  and  O_2
REMARK    2  A    between atoms: O_2  and  C_3
REMARK    3  A    between atoms: C_8  and  N_9
REMARK    4  A    between atoms: N_12  and  C_13
REMARK    5  A    between atoms: C_13  and  S_15
REMARK    6  A    between atoms: S_15  and  C_16
REMARK    7  A    between atoms: C_16  and  C_17
REMARK    8  A    between atoms: C_17  and  O_18
REMARK    9  A    between atoms: C_17  and  C_19
REMARK   10  A    between atoms: C_19  and  N_20
REMARK   11  A    between atoms: C_22  and  N_23
REMARK   12  A    between atoms: C_27  and  C_28
REMARK                            x       y       z     vdW  Elec       q    Type
REMARK                         _______ _______ _______ _____ _____    ______ ____
ROOT
ATOM      1  C   UNL     1       2.110   6.046  19.521  0.00  0.00    +0.000 C 
ATOM      2  S   UNL     1       2.377   5.190  20.947  0.00  0.00    +0.000 S 
ENDROOT
BRANCH   1   6
ATOM      3  N   UNL     1       1.102  10.176  19.055  0.00  0.00    +0.000 N 
ATOM      4  C   UNL     1       1.241   9.302  17.882  0.00  0.00    +0.000 C 
ATOM      5  C   UNL     1       2.250   8.183  18.204  0.00  0.00    +0.000 C 
ATOM      6  N   UNL     1       1.892   7.426  19.425  0.00  0.00    +0.000 N 
ATOM      7  C   UNL     1       1.611   8.315  20.589  0.00  0.00    +0.000 C 
ATOM      8  C   UNL     1       0.645   9.472  20.260  0.00  0.00    +0.000 C 
BRANCH   3  14
ATOM      9  C   UNL     1      -0.089  12.339  19.228  0.00  0.00    +0.000 A 
ATOM     10  C   UNL     1      -0.038  13.741  19.152  0.00  0.00    +0.000 A 
ATOM     11  C   UNL     1       1.144  14.403  18.843  0.00  0.00    +0.000 A 
ATOM     12  C   UNL     1       2.286  13.668  18.576  0.00  0.00    +0.000 A 
ATOM     13  C   UNL     1       2.241  12.272  18.621  0.00  0.00    +0.000 A 
ATOM     14  C   UNL     1       1.068  11.559  18.948  0.00  0.00    +0.000 A 
BRANCH   9  16
ATOM     15  C   UNL     1      -2.460  12.404  19.424  0.00  0.00    +0.000 C 
ATOM     16  O   UNL     1      -1.247  11.678  19.585  0.00  0.00    +0.000 OA
ENDBRANCH   9  16
ENDBRANCH   3  14
ENDBRANCH   1   6
BRANCH   1  17
ATOM     17  S   UNL     1       2.266   5.202  17.984  0.00  0.00    +0.000 S 
BRANCH  17  18
ATOM     18  C   UNL     1       2.242   3.447  18.497  0.00  0.00    +0.000 C 
BRANCH  18  19
ATOM     19  C   UNL     1       3.605   2.797  18.194  0.00  0.00    +0.000 C 
BRANCH  19  20
ATOM     20  O   UNL     1       3.449   1.372  18.154  0.00  0.00    +0.000 OA
ATOM     21  H   UNL     1       3.265   1.068  19.061  0.00  0.00    +0.000 HD
ENDBRANCH  19  20
BRANCH  19  22
ATOM     22  C   UNL     1       4.222   3.331  16.888  0.00  0.00    +0.000 C 
BRANCH  22  23
ATOM     23  N   UNL     1       5.443   4.088  17.095  0.00  0.00    +0.000 N 
ATOM     24  C   UNL     1       5.841   4.589  18.306  0.00  0.00    +0.000 A 
ATOM     25  C   UNL     1       7.071   5.154  18.061  0.00  0.00    +0.000 A 
ATOM     26  N   UNL     1       7.434   5.001  16.739  0.00  0.00    +0.000 NA
ATOM     27  C   UNL     1       6.429   4.347  16.173  0.00  0.00    +0.000 A 
ATOM     28  C   UNL     1       6.360   3.939  14.748  0.00  0.00    +0.000 C 
BRANCH  25  29
ATOM     29  N   UNL     1       7.932   5.828  19.008  0.00  0.00    +0.000 N 
ATOM     30  O   UNL     1       8.279   6.986  18.716  0.00  0.00    +0.000 OA
ATOM     31  O   UNL     1       8.250   5.222  20.038  0.00  0.00    +0.000 OA
ENDBRANCH  25  29
ENDBRANCH  22  23
ENDBRANCH  19  22
ENDBRANCH  18  19
ENDBRANCH  17  18
ENDBRANCH   1  17
TORSDOF 10
ENDMDL
MODEL 2
REMARK VINA RESULT:      -7.1      2.803      3.797
REMARK  Name = 
REMARK  12 active torsions:
REMARK  status: ('A' for Active; 'I' for Inactive)
REMARK    1  A    between atoms: C_1  and  O_2
REMARK    2  A    between atoms: O_2  and  C_3
REMARK    3  A    between atoms: C_8  and  N_9
REMARK    4  A    between atoms: N_12  and  C_13
REMARK    5  A    between atoms: C_13  and  S_15
REMARK    6  A    between atoms: S_15  and  C_16
REMARK    7  A    between atoms: C_16  and  C_17
REMARK    8  A    between atoms: C_17  and  O_18
REMARK    9  A    between atoms: C_17  and  C_19
REMARK   10  A    between atoms: C_19  and  N_20
REMARK   11  A    between atoms: C_22  and  N_23
REMARK   12  A    between atoms: C_27  and  C_28
REMARK                            x       y       z     vdW  Elec       q    Type
REMARK                         _______ _______ _______ _____ _____    ______ ____
ROOT
ATOM      1  C   UNL     1       2.048   7.962  19.303  0.00  0.00    +0.000 C 
ATOM      2  S   UNL     1       2.650   8.233  17.753  0.00  0.00    +0.000 S 
ENDROOT
BRANCH   1   6
ATOM      3  N   UNL     1      -0.420  10.618  21.570  0.00  0.00    +0.000 N 
ATOM      4  C   UNL     1      -0.566  10.523  20.112  0.00  0.00    +0.000 C 
ATOM      5  C   UNL     1       0.791  10.131  19.495  0.00  0.00    +0.000 C 
ATOM      6  N   UNL     1       1.348   8.891  20.082  0.00  0.00    +0.000 N 
ATOM      7  C   UNL     1       1.369   8.922  21.573  0.00  0.00    +0.000 C 
ATOM      8  C   UNL     1       0.030   9.368  22.198  0.00  0.00    +0.000 C 
BRANCH   3  14
ATOM      9  C   UNL     1      -0.406  12.953  22.391  0.00  0.00    +0.000 A 
ATOM     10  C   UNL     1      -1.054  13.972  23.109  0.00  0.00    +0.000 A 
ATOM     11  C   UNL     1      -2.284  13.753  23.718  0.00  0.00    +0.000 A 
ATOM     12  C   UNL     1      -2.868  12.501  23.642  0.00  0.00    +0.000 A 
ATOM     13  C   UNL     1      -2.219  11.472  22.954  0.00  0.00    +0.000 A 
ATOM     14  C   UNL     1      -0.979  11.654  22.305  0.00  0.00    +0.000 A 
BRANCH   9  16
ATOM     15  C   UNL     1       0.756  14.116  20.669  0.00  0.00    +0.000 C 
ATOM     16  O   UNL     1       0.791  13.179  21.740  0.00  0.00    +0.000 OA
ENDBRANCH   9  16
ENDBRANCH   3  14
ENDBRANCH   1   6
BRANCH   1  17
ATOM     17  S   UNL     1       2.148   6.339  19.979  0.00  0.00    +0.000 S 
BRANCH  17  18
ATOM     18  C   UNL     1       3.857   5.844  19.558  0.00  0.00    +0.000 C 
BRANCH  18  19
ATOM     19  C   UNL     1       3.832   4.574  18.687  0.00  0.00    +0.000 C 
BRANCH  19  20
ATOM     20  O   UNL     1       3.324   4.904  17.387  0.00  0.00    +0.000 OA
ATOM     21  H   UNL     1       2.861   4.119  17.043  0.00  0.00    +0.000 HD
ENDBRANCH  19  20
BRANCH  19  22
ATOM     22  C   UNL     1       5.219   3.911  18.596  0.00  0.00    +0.000 C 
BRANCH  22  23
ATOM     23  N   UNL     1       6.027   4.413  17.500  0.00  0.00    +0.000 N 
ATOM     24  C   UNL     1       5.870   4.035  16.192  0.00  0.00    +0.000 A 
ATOM     25  C   UNL     1       6.773   4.804  15.497  0.00  0.00    +0.000 A 
ATOM     26  N   UNL     1       7.468   5.644  16.345  0.00  0.00    +0.000 NA
ATOM     27  C   UNL     1       6.993   5.390  17.556  0.00  0.00    +0.000 A 
ATOM     28  C   UNL     1       7.427   6.056  18.809  0.00  0.00    +0.000 C 
BRANCH  25  29
ATOM     29  N   UNL     1       7.019   4.798  14.072  0.00  0.00    +0.000 N 
ATOM     30  O   UNL     1       7.893   5.579  13.655  0.00  0.00    +0.000 OA
ATOM     31  O   UNL     1       6.363   4.018  13.373  0.00  0.00    +0.000 OA
ENDBRANCH  25  29
ENDBRANCH  22  23
ENDBRANCH  19  22
ENDBRANCH  18  19
ENDBRANCH  17  18
ENDBRANCH   1  17
TORSDOF 10
ENDMDL
MODEL 3
REMARK VINA RESULT:      -6.9      1.444      2.304
REMARK  Name = 
REMARK  12 active torsions:
REMARK  status: ('A' for Active; 'I' for Inactive)
REMARK    1  A    between atoms: C_1  and  O_2
REMARK    2  A    between atoms: O_2  and  C_3
REMARK    3  A    between atoms: C_8  and  N_9
REMARK    4  A    between atoms: N_12  and  C_13
REMARK    5  A    between atoms: C_13  and  S_15
REMARK    6  A    between atoms: S_15  and  C_16
REMARK    7  A    between atoms: C_16  and  C_17
REMARK    8  A    between atoms: C_17  and  O_18
REMARK    9  A    between atoms: C_17  and  C_19
REMARK   10  A    between atoms: C_19  and  N_20
REMARK   11  A    between atoms: C_22  and  N_23
REMARK   12  A    between atoms: C_27  and  C_28
REMARK                            x       y       z     vdW  Elec       q    Type
REMARK                         _______ _______ _______ _____ _____    ______ ____
ROOT
ATOM      1  C   UNL     1       2.672   7.515  18.660  0.00  0.00    +0.000 C 
ATOM      2  S   UNL     1       3.836   7.618  17.447  0.00  0.00    +0.000 S 
ENDROOT
BRANCH   1   6
ATOM      3  N   UNL     1       0.437  10.832  20.174  0.00  0.00    +0.000 N 
ATOM      4  C   UNL     1       0.985   9.820  21.087  0.00  0.00    +0.000 C 
ATOM      5  C   UNL     1       1.072   8.471  20.348  0.00  0.00    +0.000 C 
ATOM      6  N   UNL     1       1.841   8.559  19.086  0.00  0.00    +0.000 N 
ATOM      7  C   UNL     1       1.382   9.677  18.212  0.00  0.00    +0.000 C 
ATOM      8  C   UNL     1       1.238  11.021  18.957  0.00  0.00    +0.000 C 
BRANCH   3  14
ATOM      9  C   UNL     1      -1.817  11.838  19.990  0.00  0.00    +0.000 A 
ATOM     10  C   UNL     1      -2.761  12.755  20.482  0.00  0.00    +0.000 A 
ATOM     11  C   UNL     1      -2.474  13.567  21.573  0.00  0.00    +0.000 A 
ATOM     12  C   UNL     1      -1.227  13.494  22.168  0.00  0.00    +0.000 A 
ATOM     13  C   UNL     1      -0.270  12.606  21.669  0.00  0.00    +0.000 A 
ATOM     14  C   UNL     1      -0.524  11.749  20.576  0.00  0.00    +0.000 A 
BRANCH   9  16
ATOM     15  C   UNL     1      -2.326  11.611  17.675  0.00  0.00    +0.000 C 
ATOM     16  O   UNL     1      -2.113  10.993  18.939  0.00  0.00    +0.000 OA
ENDBRANCH   9  16
ENDBRANCH   3  14
ENDBRANCH   1   6
BRANCH   1  17
ATOM     17  S   UNL     1       2.326   5.943  19.372  0.00  0.00    +0.000 S 
BRANCH  17  18
ATOM     18  C   UNL     1       2.249   4.856  17.904  0.00  0.00    +0.000 C 
BRANCH  18  19
ATOM     19  C   UNL     1       2.639   3.419  18.297  0.00  0.00    +0.000 C 
BRANCH  19  20
ATOM     20  O   UNL     1       1.534   2.543  18.037  0.00  0.00    +0.000 OA
ATOM     21  H   UNL     1       1.621   1.773  18.627  0.00  0.00    +0.000 HD
ENDBRANCH  19  20
BRANCH  19  22
ATOM     22  C   UNL     1       3.912   2.947  17.571  0.00  0.00    +0.000 C 
BRANCH  22  23
ATOM     23  N   UNL     1       5.003   3.901  17.643  0.00  0.00    +0.000 N 
ATOM     24  C   UNL     1       5.611   4.289  18.808  0.00  0.00    +0.000 A 
ATOM     25  C   UNL     1       6.626   5.127  18.408  0.00  0.00    +0.000 A 
ATOM     26  N   UNL     1       6.657   5.251  17.034  0.00  0.00    +0.000 NA
ATOM     27  C   UNL     1       5.663   4.493  16.591  0.00  0.00    +0.000 A 
ATOM     28  C   UNL     1       5.298   4.295  15.167  0.00  0.00    +0.000 C 
BRANCH  25  29
ATOM     29  N   UNL     1       7.577   5.817  19.251  0.00  0.00    +0.000 N 
ATOM     30  O   UNL     1       8.130   6.818  18.761  0.00  0.00    +0.000 OA
ATOM     31  O   UNL     1       7.766   5.381  20.392  0.00  0.00    +0.000 OA
ENDBRANCH  25  29
ENDBRANCH  22  23
ENDBRANCH  19  22
ENDBRANCH  18  19
ENDBRANCH  17  18
ENDBRANCH   1  17
TORSDOF 10
ENDMDL
MODEL 4
REMARK VINA RESULT:      -6.8      2.972      4.605
REMARK  Name = 
REMARK  12 active torsions:
REMARK  status: ('A' for Active; 'I' for Inactive)
REMARK    1  A    between atoms: C_1  and  O_2
REMARK    2  A    between atoms: O_2  and  C_3
REMARK    3  A    between atoms: C_8  and  N_9
REMARK    4  A    between atoms: N_12  and  C_13
REMARK    5  A    between atoms: C_13  and  S_15
REMARK    6  A    between atoms: S_15  and  C_16
REMARK    7  A    between atoms: C_16  and  C_17
REMARK    8  A    between atoms: C_17  and  O_18
REMARK    9  A    between atoms: C_17  and  C_19
REMARK   10  A    between atoms: C_19  and  N_20
REMARK   11  A    between atoms: C_22  and  N_23
REMARK   12  A    between atoms: C_27  and  C_28
REMARK                            x       y       z     vdW  Elec       q    Type
REMARK                         _______ _______ _______ _____ _____    ______ ____
ROOT
ATOM      1  C   UNL     1       1.648  10.784  18.417  0.00  0.00    +0.000 C 
ATOM      2  S   UNL     1       2.747  11.874  17.754  0.00  0.00    +0.000 S 
ENDROOT
BRANCH   1   6
ATOM      3  N   UNL     1      -1.684  12.130  20.735  0.00  0.00    +0.000 N 
ATOM      4  C   UNL     1      -0.433  12.899  20.707  0.00  0.00    +0.000 C 
ATOM      5  C   UNL     1       0.744  11.935  20.462  0.00  0.00    +0.000 C 
ATOM      6  N   UNL     1       0.566  11.115  19.243  0.00  0.00    +0.000 N 
ATOM      7  C   UNL     1      -0.763  10.440  19.195  0.00  0.00    +0.000 C 
ATOM      8  C   UNL     1      -1.945  11.386  19.495  0.00  0.00    +0.000 C 
BRANCH   3  14
ATOM      9  C   UNL     1      -2.492  12.142  23.075  0.00  0.00    +0.000 A 
ATOM     10  C   UNL     1      -3.519  12.446  23.984  0.00  0.00    +0.000 A 
ATOM     11  C   UNL     1      -4.719  13.001  23.554  0.00  0.00    +0.000 A 
ATOM     12  C   UNL     1      -4.918  13.231  22.205  0.00  0.00    +0.000 A 
ATOM     13  C   UNL     1      -3.914  12.906  21.289  0.00  0.00    +0.000 A 
ATOM     14  C   UNL     1      -2.673  12.359  21.681  0.00  0.00    +0.000 A 
BRANCH   9  16
ATOM     15  C   UNL     1      -1.047  10.258  23.250  0.00  0.00    +0.000 C 
ATOM     16  O   UNL     1      -1.278  11.639  23.502  0.00  0.00    +0.000 OA
ENDBRANCH   9  16
ENDBRANCH   3  14
ENDBRANCH   1   6
BRANCH   1  17
ATOM     17  S   UNL     1       1.733   9.093  17.934  0.00  0.00    +0.000 S 
BRANCH  17  18
ATOM     18  C   UNL     1       1.824   8.231  19.544  0.00  0.00    +0.000 C 
BRANCH  18  19
ATOM     19  C   UNL     1       2.728   6.989  19.420  0.00  0.00    +0.000 C 
BRANCH  19  20
ATOM     20  O   UNL     1       2.526   6.144  20.561  0.00  0.00    +0.000 OA
ATOM     21  H   UNL     1       3.327   6.197  21.114  0.00  0.00    +0.000 HD
ENDBRANCH  19  20
BRANCH  19  22
ATOM     22  C   UNL     1       2.482   6.226  18.106  0.00  0.00    +0.000 C 
BRANCH  22  23
ATOM     23  N   UNL     1       3.669   5.565  17.593  0.00  0.00    +0.000 N 
ATOM     24  C   UNL     1       4.886   6.176  17.444  0.00  0.00    +0.000 A 
ATOM     25  C   UNL     1       5.726   5.177  17.014  0.00  0.00    +0.000 A 
ATOM     26  N   UNL     1       5.056   3.975  16.907  0.00  0.00    +0.000 NA
ATOM     27  C   UNL     1       3.808   4.236  17.268  0.00  0.00    +0.000 A 
ATOM     28  C   UNL     1       2.702   3.249  17.325  0.00  0.00    +0.000 C 
BRANCH  25  29
ATOM     29  N   UNL     1       7.134   5.287  16.701  0.00  0.00    +0.000 N 
ATOM     30  O   UNL     1       7.491   6.315  16.098  0.00  0.00    +0.000 OA
ATOM     31  O   UNL     1       7.883   4.371  17.061  0.00  0.00    +0.000 OA
ENDBRANCH  25  29
ENDBRANCH  22  23
ENDBRANCH  19  22
ENDBRANCH  18  19
ENDBRANCH  17  18
ENDBRANCH   1  17
TORSDOF 10
ENDMDL
MODEL 5
REMARK VINA RESULT:      -6.7      3.663      4.858
REMARK  Name = 
REMARK  12 active torsions:
REMARK  status: ('A' for Active; 'I' for Inactive)
REMARK    1  A    between atoms: C_1  and  O_2
REMARK    2  A    between atoms: O_2  and  C_3
REMARK    3  A    between atoms: C_8  and  N_9
REMARK    4  A    between atoms: N_12  and  C_13
REMARK    5  A    between atoms: C_13  and  S_15
REMARK    6  A    between atoms: S_15  and  C_16
REMARK    7  A    between atoms: C_16  and  C_17
REMARK    8  A    between atoms: C_17  and  O_18
REMARK    9  A    between atoms: C_17  and  C_19
REMARK   10  A    between atoms: C_19  and  N_20
REMARK   11  A    between atoms: C_22  and  N_23
REMARK   12  A    between atoms: C_27  and  C_28
REMARK                            x       y       z     vdW  Elec       q    Type
REMARK                         _______ _______ _______ _____ _____    ______ ____
ROOT
ATOM      1  C   UNL     1       0.389   9.994  19.900  0.00  0.00    +0.000 C 
ATOM      2  S   UNL     1       0.243  10.038  18.222  0.00  0.00    +0.000 S 
ENDROOT
BRANCH   1   6
ATOM      3  N   UNL     1      -1.707  12.668  22.498  0.00  0.00    +0.000 N 
ATOM      4  C   UNL     1      -1.840  12.783  21.039  0.00  0.00    +0.000 C 
ATOM      5  C   UNL     1      -0.545  12.280  20.374  0.00  0.00    +0.000 C 
ATOM      6  N   UNL     1      -0.183  10.907  20.794  0.00  0.00    +0.000 N 
ATOM      7  C   UNL     1      -0.182  10.743  22.277  0.00  0.00    +0.000 C 
ATOM      8  C   UNL     1      -1.452  11.296  22.957  0.00  0.00    +0.000 C 
BRANCH   3  14
ATOM      9  C   UNL     1      -3.474  13.851  23.764  0.00  0.00    +0.000 A 
ATOM     10  C   UNL     1      -3.816  14.856  24.685  0.00  0.00    +0.000 A 
ATOM     11  C   UNL     1      -2.845  15.671  25.255  0.00  0.00    +0.000 A 
ATOM     12  C   UNL     1      -1.520  15.510  24.888  0.00  0.00    +0.000 A 
ATOM     13  C   UNL     1      -1.172  14.533  23.952  0.00  0.00    +0.000 A 
ATOM     14  C   UNL     1      -2.122  13.671  23.361  0.00  0.00    +0.000 A 
BRANCH   9  16
ATOM     15  C   UNL     1      -5.763  13.203  23.683  0.00  0.00    +0.000 C 
ATOM     16  O   UNL     1      -4.428  13.005  23.233  0.00  0.00    +0.000 OA
ENDBRANCH   9  16
ENDBRANCH   3  14
ENDBRANCH   1   6
BRANCH   1  17
ATOM     17  S   UNL     1       1.186   8.613  20.646  0.00  0.00    +0.000 S 
BRANCH  17  18
ATOM     18  C   UNL     1       2.070   7.862  19.233  0.00  0.00    +0.000 C 
BRANCH  18  19
ATOM     19  C   UNL     1       2.664   6.503  19.651  0.00  0.00    +0.000 C 
BRANCH  19  20
ATOM     20  O   UNL     1       1.904   5.973  20.745  0.00  0.00    +0.000 OA
ATOM     21  H   UNL     1       1.111   5.545  20.376  0.00  0.00    +0.000 HD
ENDBRANCH  19  20
BRANCH  19  22
ATOM     22  C   UNL     1       2.719   5.511  18.474  0.00  0.00    +0.000 C 
BRANCH  22  23
ATOM     23  N   UNL     1       4.017   4.883  18.312  0.00  0.00    +0.000 N 
ATOM     24  C   UNL     1       5.016   5.377  17.514  0.00  0.00    +0.000 A 
ATOM     25  C   UNL     1       6.077   4.526  17.720  0.00  0.00    +0.000 A 
ATOM     26  N   UNL     1       5.753   3.536  18.625  0.00  0.00    +0.000 NA
ATOM     27  C   UNL     1       4.497   3.777  18.973  0.00  0.00    +0.000 A 
ATOM     28  C   UNL     1       3.703   2.980  19.941  0.00  0.00    +0.000 C 
BRANCH  25  29
ATOM     29  N   UNL     1       7.388   4.595  17.113  0.00  0.00    +0.000 N 
ATOM     30  O   UNL     1       8.337   4.157  17.787  0.00  0.00    +0.000 OA
ATOM     31  O   UNL     1       7.477   5.066  15.973  0.00  0.00    +0.000 OA
ENDBRANCH  25  29
ENDBRANCH  22  23
ENDBRANCH  19  22
ENDBRANCH  18  19
ENDBRANCH  17  18
ENDBRANCH   1  17
TORSDOF 10
ENDMDL
MODEL 6
REMARK VINA RESULT:      -6.7      1.066      1.099
REMARK  Name = 
REMARK  12 active torsions:
REMARK  status: ('A' for Active; 'I' for Inactive)
REMARK    1  A    between atoms: C_1  and  O_2
REMARK    2  A    between atoms: O_2  and  C_3
REMARK    3  A    between atoms: C_8  and  N_9
REMARK    4  A    between atoms: N_12  and  C_13
REMARK    5  A    between atoms: C_13  and  S_15
REMARK    6  A    between atoms: S_15  and  C_16
REMARK    7  A    between atoms: C_16  and  C_17
REMARK    8  A    between atoms: C_17  and  O_18
REMARK    9  A    between atoms: C_17  and  C_19
REMARK   10  A    between atoms: C_19  and  N_20
REMARK   11  A    between atoms: C_22  and  N_23
REMARK   12  A    between atoms: C_27  and  C_28
REMARK                            x       y       z     vdW  Elec       q    Type
REMARK                         _______ _______ _______ _____ _____    ______ ____
ROOT
ATOM      1  C   UNL     1       2.049   6.524  19.689  0.00  0.00    +0.000 C 
ATOM      2  S   UNL     1       1.900   5.281  20.815  0.00  0.00    +0.000 S 
ENDROOT
BRANCH   1   6
ATOM      3  N   UNL     1       0.681  10.543  20.207  0.00  0.00    +0.000 N 
ATOM      4  C   UNL     1       0.722   9.933  18.871  0.00  0.00    +0.000 C 
ATOM      5  C   UNL     1       1.846   8.881  18.834  0.00  0.00    +0.000 C 
ATOM      6  N   UNL     1       1.717   7.868  19.906  0.00  0.00    +0.000 N 
ATOM      7  C   UNL     1       1.533   8.480  21.253  0.00  0.00    +0.000 C 
ATOM      8  C   UNL     1       0.447   9.576  21.288  0.00  0.00    +0.000 C 
BRANCH   3  14
ATOM      9  C   UNL     1      -0.737  12.553  20.490  0.00  0.00    +0.000 A 
ATOM     10  C   UNL     1      -0.818  13.934  20.733  0.00  0.00    +0.000 A 
ATOM     11  C   UNL     1       0.327  14.700  20.923  0.00  0.00    +0.000 A 
ATOM     12  C   UNL     1       1.570  14.098  20.843  0.00  0.00    +0.000 A 
ATOM     13  C   UNL     1       1.664  12.729  20.573  0.00  0.00    +0.000 A 
ATOM     14  C   UNL     1       0.528  11.910  20.393  0.00  0.00    +0.000 A 
BRANCH   9  16
ATOM     15  C   UNL     1      -2.973  12.389  19.691  0.00  0.00    +0.000 C 
ATOM     16  O   UNL     1      -1.871  11.778  20.353  0.00  0.00    +0.000 OA
ENDBRANCH   9  16
ENDBRANCH   3  14
ENDBRANCH   1   6
BRANCH   1  17
ATOM     17  S   UNL     1       2.829   6.184  18.148  0.00  0.00    +0.000 S 
BRANCH  17  18
ATOM     18  C   UNL     1       2.199   4.514  17.751  0.00  0.00    +0.000 C 
BRANCH  18  19
ATOM     19  C   UNL     1       3.287   3.463  18.040  0.00  0.00    +0.000 C 
BRANCH  19  20
ATOM     20  O   UNL     1       2.664   2.204  18.325  0.00  0.00    +0.000 OA
ATOM     21  H   UNL     1       1.800   2.192  17.874  0.00  0.00    +0.000 HD
ENDBRANCH  19  20
BRANCH  19  22
ATOM     22  C   UNL     1       4.294   3.342  16.881  0.00  0.00    +0.000 C 
BRANCH  22  23
ATOM     23  N   UNL     1       5.499   4.125  17.080  0.00  0.00    +0.000 N 
ATOM     24  C   UNL     1       5.929   4.579  18.299  0.00  0.00    +0.000 A 
ATOM     25  C   UNL     1       7.131   5.193  18.038  0.00  0.00    +0.000 A 
ATOM     26  N   UNL     1       7.447   5.117  16.696  0.00  0.00    +0.000 NA
ATOM     27  C   UNL     1       6.441   4.460  16.136  0.00  0.00    +0.000 A 
ATOM     28  C   UNL     1       6.329   4.120  14.696  0.00  0.00    +0.000 C 
BRANCH  25  29
ATOM     29  N   UNL     1       8.008   5.847  18.984  0.00  0.00    +0.000 N 
ATOM     30  O   UNL     1       8.303   7.031  18.742  0.00  0.00    +0.000 OA
ATOM     31  O   UNL     1       8.390   5.199  19.966  0.00  0.00    +0.000 OA
ENDBRANCH  25  29
ENDBRANCH  22  23
ENDBRANCH  19  22
ENDBRANCH  18  19
ENDBRANCH  17  18
ENDBRANCH   1  17
TORSDOF 10
ENDMDL
MODEL 7
REMARK VINA RESULT:      -6.7      1.905      2.513
REMARK  Name = 
REMARK  12 active torsions:
REMARK  status: ('A' for Active; 'I' for Inactive)
REMARK    1  A    between atoms: C_1  and  O_2
REMARK    2  A    between atoms: O_2  and  C_3
REMARK    3  A    between atoms: C_8  and  N_9
REMARK    4  A    between atoms: N_12  and  C_13
REMARK    5  A    between atoms: C_13  and  S_15
REMARK    6  A    between atoms: S_15  and  C_16
REMARK    7  A    between atoms: C_16  and  C_17
REMARK    8  A    between atoms: C_17  and  O_18
REMARK    9  A    between atoms: C_17  and  C_19
REMARK   10  A    between atoms: C_19  and  N_20
REMARK   11  A    between atoms: C_22  and  N_23
REMARK   12  A    between atoms: C_27  and  C_28
REMARK                            x       y       z     vdW  Elec       q    Type
REMARK                         _______ _______ _______ _____ _____    ______ ____
ROOT
ATOM      1  C   UNL     1       2.123   5.858  19.657  0.00  0.00    +0.000 C 
ATOM      2  S   UNL     1       2.410   5.058  21.111  0.00  0.00    +0.000 S 
ENDROOT
BRANCH   1   6
ATOM      3  N   UNL     1       0.994   9.939  19.056  0.00  0.00    +0.000 N 
ATOM      4  C   UNL     1       1.145   9.028  17.913  0.00  0.00    +0.000 C 
ATOM      5  C   UNL     1       2.189   7.951  18.264  0.00  0.00    +0.000 C 
ATOM      6  N   UNL     1       1.865   7.227  19.515  0.00  0.00    +0.000 N 
ATOM      7  C   UNL     1       1.571   8.149  20.650  0.00  0.00    +0.000 C 
ATOM      8  C   UNL     1       0.569   9.266  20.291  0.00  0.00    +0.000 C 
BRANCH   3  14
ATOM      9  C   UNL     1      -0.298  12.014  18.667  0.00  0.00    +0.000 A 
ATOM     10  C   UNL     1      -0.309  13.416  18.574  0.00  0.00    +0.000 A 
ATOM     11  C   UNL     1       0.854  14.158  18.746  0.00  0.00    +0.000 A 
ATOM     12  C   UNL     1       2.050  13.504  18.985  0.00  0.00    +0.000 A 
ATOM     13  C   UNL     1       2.078  12.108  19.051  0.00  0.00    +0.000 A 
ATOM     14  C   UNL     1       0.919  11.316  18.901  0.00  0.00    +0.000 A 
BRANCH   9  16
ATOM     15  C   UNL     1      -2.400  11.735  17.586  0.00  0.00    +0.000 C 
ATOM     16  O   UNL     1      -1.458  11.276  18.549  0.00  0.00    +0.000 OA
ENDBRANCH   9  16
ENDBRANCH   3  14
ENDBRANCH   1   6
BRANCH   1  17
ATOM     17  S   UNL     1       2.308   4.969  18.149  0.00  0.00    +0.000 S 
BRANCH  17  18
ATOM     18  C   UNL     1       4.103   5.107  17.831  0.00  0.00    +0.000 C 
BRANCH  18  19
ATOM     19  C   UNL     1       4.871   4.125  18.735  0.00  0.00    +0.000 C 
BRANCH  19  20
ATOM     20  O   UNL     1       4.473   2.784  18.420  0.00  0.00    +0.000 OA
ATOM     21  H   UNL     1       4.555   2.670  17.455  0.00  0.00    +0.000 HD
ENDBRANCH  19  20
BRANCH  19  22
ATOM     22  C   UNL     1       6.396   4.302  18.615  0.00  0.00    +0.000 C 
BRANCH  22  23
ATOM     23  N   UNL     1       6.816   4.814  17.324  0.00  0.00    +0.000 N 
ATOM     24  C   UNL     1       6.624   4.158  16.136  0.00  0.00    +0.000 A 
ATOM     25  C   UNL     1       7.094   5.027  15.179  0.00  0.00    +0.000 A 
ATOM     26  N   UNL     1       7.557   6.194  15.751  0.00  0.00    +0.000 NA
ATOM     27  C   UNL     1       7.374   6.042  17.055  0.00  0.00    +0.000 A 
ATOM     28  C   UNL     1       7.712   7.044  18.096  0.00  0.00    +0.000 C 
BRANCH  25  29
ATOM     29  N   UNL     1       7.127   4.822  13.748  0.00  0.00    +0.000 N 
ATOM     30  O   UNL     1       7.954   5.497  13.109  0.00  0.00    +0.000 OA
ATOM     31  O   UNL     1       6.352   3.991  13.262  0.00  0.00    +0.000 OA
ENDBRANCH  25  29
ENDBRANCH  22  23
ENDBRANCH  19  22
ENDBRANCH  18  19
ENDBRANCH  17  18
ENDBRANCH   1  17
TORSDOF 10
ENDMDL
MODEL 8
REMARK VINA RESULT:      -6.7      4.076     10.992
REMARK  Name = 
REMARK  12 active torsions:
REMARK  status: ('A' for Active; 'I' for Inactive)
REMARK    1  A    between atoms: C_1  and  O_2
REMARK    2  A    between atoms: O_2  and  C_3
REMARK    3  A    between atoms: C_8  and  N_9
REMARK    4  A    between atoms: N_12  and  C_13
REMARK    5  A    between atoms: C_13  and  S_15
REMARK    6  A    between atoms: S_15  and  C_16
REMARK    7  A    between atoms: C_16  and  C_17
REMARK    8  A    between atoms: C_17  and  O_18
REMARK    9  A    between atoms: C_17  and  C_19
REMARK   10  A    between atoms: C_19  and  N_20
REMARK   11  A    between atoms: C_22  and  N_23
REMARK   12  A    between atoms: C_27  and  C_28
REMARK                            x       y       z     vdW  Elec       q    Type
REMARK                         _______ _______ _______ _____ _____    ______ ____
ROOT
ATOM      1  C   UNL     1       0.509  10.463  20.103  0.00  0.00    +0.000 C 
ATOM      2  S   UNL     1       0.354  10.941  21.711  0.00  0.00    +0.000 S 
ENDROOT
BRANCH   1   6
ATOM      3  N   UNL     1       2.432   6.884  18.770  0.00  0.00    +0.000 N 
ATOM      4  C   UNL     1       2.545   8.127  17.996  0.00  0.00    +0.000 C 
ATOM      5  C   UNL     1       1.283   8.979  18.226  0.00  0.00    +0.000 C 
ATOM      6  N   UNL     1       1.022   9.238  19.660  0.00  0.00    +0.000 N 
ATOM      7  C   UNL     1       1.046   7.992  20.481  0.00  0.00    +0.000 C 
ATOM      8  C   UNL     1       2.279   7.104  20.215  0.00  0.00    +0.000 C 
BRANCH   3  14
ATOM      9  C   UNL     1       4.127   5.205  18.110  0.00  0.00    +0.000 A 
ATOM     10  C   UNL     1       4.408   3.919  17.618  0.00  0.00    +0.000 A 
ATOM     11  C   UNL     1       3.387   3.035  17.289  0.00  0.00    +0.000 A 
ATOM     12  C   UNL     1       2.070   3.437  17.420  0.00  0.00    +0.000 A 
ATOM     13  C   UNL     1       1.779   4.725  17.881  0.00  0.00    +0.000 A 
ATOM     14  C   UNL     1       2.783   5.648  18.244  0.00  0.00    +0.000 A 
BRANCH   9  16
ATOM     15  C   UNL     1       6.235   5.487  19.180  0.00  0.00    +0.000 C 
ATOM     16  O   UNL     1       5.137   6.069  18.487  0.00  0.00    +0.000 OA
ENDBRANCH   9  16
ENDBRANCH   3  14
ENDBRANCH   1   6
BRANCH   1  17
ATOM     17  S   UNL     1      -0.162  11.494  18.843  0.00  0.00    +0.000 S 
BRANCH  17  18
ATOM     18  C   UNL     1      -1.934  11.047  18.874  0.00  0.00    +0.000 C 
BRANCH  18  19
ATOM     19  C   UNL     1      -2.744  12.172  19.545  0.00  0.00    +0.000 C 
BRANCH  19  20
ATOM     20  O   UNL     1      -2.086  13.426  19.321  0.00  0.00    +0.000 OA
ATOM     21  H   UNL     1      -1.987  13.867  20.185  0.00  0.00    +0.000 HD
ENDBRANCH  19  20
BRANCH  19  22
ATOM     22  C   UNL     1      -4.202  12.207  19.051  0.00  0.00    +0.000 C 
BRANCH  22  23
ATOM     23  N   UNL     1      -5.176  12.066  20.118  0.00  0.00    +0.000 N 
ATOM     24  C   UNL     1      -5.077  12.685  21.336  0.00  0.00    +0.000 A 
ATOM     25  C   UNL     1      -6.235  12.343  21.994  0.00  0.00    +0.000 A 
ATOM     26  N   UNL     1      -7.037  11.542  21.207  0.00  0.00    +0.000 NA
ATOM     27  C   UNL     1      -6.373  11.391  20.070  0.00  0.00    +0.000 A 
ATOM     28  C   UNL     1      -6.839  10.611  18.896  0.00  0.00    +0.000 C 
BRANCH  25  29
ATOM     29  N   UNL     1      -6.635  12.734  23.328  0.00  0.00    +0.000 N 
ATOM     30  O   UNL     1      -5.945  13.608  23.882  0.00  0.00    +0.000 OA
ATOM     31  O   UNL     1      -7.632  12.191  23.818  0.00  0.00    +0.000 OA
ENDBRANCH  25  29
ENDBRANCH  22  23
ENDBRANCH  19  22
ENDBRANCH  18  19
ENDBRANCH  17  18
ENDBRANCH   1  17
TORSDOF 10
ENDMDL
MODEL 9
REMARK VINA RESULT:      -6.7      3.489      4.625
REMARK  Name = 
REMARK  12 active torsions:
REMARK  status: ('A' for Active; 'I' for Inactive)
REMARK    1  A    between atoms: C_1  and  O_2
REMARK    2  A    between atoms: O_2  and  C_3
REMARK    3  A    between atoms: C_8  and  N_9
REMARK    4  A    between atoms: N_12  and  C_13
REMARK    5  A    between atoms: C_13  and  S_15
REMARK    6  A    between atoms: S_15  and  C_16
REMARK    7  A    between atoms: C_16  and  C_17
REMARK    8  A    between atoms: C_17  and  O_18
REMARK    9  A    between atoms: C_17  and  C_19
REMARK   10  A    between atoms: C_19  and  N_20
REMARK   11  A    between atoms: C_22  and  N_23
REMARK   12  A    between atoms: C_27  and  C_28
REMARK                            x       y       z     vdW  Elec       q    Type
REMARK                         _______ _______ _______ _____ _____    ______ ____
ROOT
ATOM      1  C   UNL     1       0.827   9.635  20.340  0.00  0.00    +0.000 C 
ATOM      2  S   UNL     1       0.894   9.605  18.657  0.00  0.00    +0.000 S 
ENDROOT
BRANCH   1   6
ATOM      3  N   UNL     1      -1.663  12.327  22.540  0.00  0.00    +0.000 N 
ATOM      4  C   UNL     1      -1.646  12.354  21.072  0.00  0.00    +0.000 C 
ATOM      5  C   UNL     1      -0.264  11.888  20.576  0.00  0.00    +0.000 C 
ATOM      6  N   UNL     1       0.119  10.563  21.113  0.00  0.00    +0.000 N 
ATOM      7  C   UNL     1      -0.030  10.481  22.595  0.00  0.00    +0.000 C 
ATOM      8  C   UNL     1      -1.391  10.998  23.106  0.00  0.00    +0.000 C 
BRANCH   3  14
ATOM      9  C   UNL     1      -3.610  13.471  23.553  0.00  0.00    +0.000 A 
ATOM     10  C   UNL     1      -4.098  14.505  24.370  0.00  0.00    +0.000 A 
ATOM     11  C   UNL     1      -3.234  15.410  24.977  0.00  0.00    +0.000 A 
ATOM     12  C   UNL     1      -1.873  15.310  24.751  0.00  0.00    +0.000 A 
ATOM     13  C   UNL     1      -1.380  14.303  23.916  0.00  0.00    +0.000 A 
ATOM     14  C   UNL     1      -2.217  13.352  23.294  0.00  0.00    +0.000 A 
BRANCH   9  16
ATOM     15  C   UNL     1      -5.789  12.972  22.734  0.00  0.00    +0.000 C 
ATOM     16  O   UNL     1      -4.458  12.539  22.988  0.00  0.00    +0.000 OA
ENDBRANCH   9  16
ENDBRANCH   3  14
ENDBRANCH   1   6
BRANCH   1  17
ATOM     17  S   UNL     1       1.566   8.315  21.241  0.00  0.00    +0.000 S 
BRANCH  17  18
ATOM     18  C   UNL     1       1.412   6.913  20.078  0.00  0.00    +0.000 C 
BRANCH  18  19
ATOM     19  C   UNL     1       2.782   6.607  19.445  0.00  0.00    +0.000 C 
BRANCH  19  20
ATOM     20  O   UNL     1       3.412   5.545  20.174  0.00  0.00    +0.000 OA
ATOM     21  H   UNL     1       2.967   5.475  21.039  0.00  0.00    +0.000 HD
ENDBRANCH  19  20
BRANCH  19  22
ATOM     22  C   UNL     1       2.663   6.267  17.948  0.00  0.00    +0.000 C 
BRANCH  22  23
ATOM     23  N   UNL     1       3.791   5.508  17.439  0.00  0.00    +0.000 N 
ATOM     24  C   UNL     1       5.034   6.037  17.211  0.00  0.00    +0.000 A 
ATOM     25  C   UNL     1       5.800   4.965  16.816  0.00  0.00    +0.000 A 
ATOM     26  N   UNL     1       5.060   3.801  16.806  0.00  0.00    +0.000 NA
ATOM     27  C   UNL     1       3.843   4.156  17.192  0.00  0.00    +0.000 A 
ATOM     28  C   UNL     1       2.685   3.240  17.347  0.00  0.00    +0.000 C 
BRANCH  25  29
ATOM     29  N   UNL     1       7.200   4.974  16.450  0.00  0.00    +0.000 N 
ATOM     30  O   UNL     1       7.508   5.641  15.447  0.00  0.00    +0.000 OA
ATOM     31  O   UNL     1       7.989   4.337  17.158  0.00  0.00    +0.000 OA
ENDBRANCH  25  29
ENDBRANCH  22  23
ENDBRANCH  19  22
ENDBRANCH  18  19
ENDBRANCH  17  18
ENDBRANCH   1  17
TORSDOF 10
ENDMDL
