MODEL 1
REMARK VINA RESULT:      -7.7      0.000      0.000
REMARK  Name = 
REMARK  8 active torsions:
REMARK  status: ('A' for Active; 'I' for Inactive)
REMARK    1  A    between atoms: C_1  and  C_2
REMARK    2  A    between atoms: C_2  and  C_3
REMARK    3  A    between atoms: C_2  and  O_4
REMARK    4  A    between atoms: C_2  and  C_22
REMARK    5  A    between atoms: O_4  and  C_5
REMARK    6  A    between atoms: C_8  and  N_9
REMARK    7  A    between atoms: N_12  and  C_13
REMARK    8  A    between atoms: C_22  and  O_24
REMARK                            x       y       z     vdW  Elec       q    Type
REMARK                         _______ _______ _______ _____ _____    ______ ____
ROOT
ATOM      1  C   UNL     1       3.038   5.532  19.497  0.00  0.00    +0.000 A 
ATOM      2  C   UNL     1       3.348   6.118  18.267  0.00  0.00    +0.000 A 
ATOM      3  C   UNL     1       2.888   7.400  17.949  0.00  0.00    +0.000 A 
ATOM      4  C   UNL     1       2.113   8.133  18.855  0.00  0.00    +0.000 A 
ATOM      5  C   UNL     1       1.798   7.537  20.078  0.00  0.00    +0.000 A 
ATOM      6  C   UNL     1       2.233   6.237  20.383  0.00  0.00    +0.000 A 
ENDROOT
BRANCH   4   7
ATOM      7  N   UNL     1       1.589   9.399  18.529  0.00  0.00    +0.000 N 
ATOM      8  C   UNL     1       0.424   9.926  19.020  0.00  0.00    +0.000 C 
ATOM      9  N   UNL     1      -0.106   9.585  20.151  0.00  0.00    +0.000 NA
ATOM     10  N   UNL     1      -0.123  10.882  18.199  0.00  0.00    +0.000 N 
ATOM     11  H   UNL     1       2.261  10.066  18.173  0.00  0.00    +0.000 HD
ATOM     12  H   UNL     1       0.500   8.901  20.610  0.00  0.00    +0.000 HD
ATOM     13  H   UNL     1       0.293  10.919  17.275  0.00  0.00    +0.000 HD
BRANCH  10  14
ATOM     14  C   UNL     1      -1.527  11.050  18.081  0.00  0.00    +0.000 A 
ATOM     15  C   UNL     1      -2.247  10.255  17.179  0.00  0.00    +0.000 A 
ATOM     16  C   UNL     1      -3.637  10.374  17.080  0.00  0.00    +0.000 A 
ATOM     17  C   UNL     1      -4.318  11.271  17.902  0.00  0.00    +0.000 A 
ATOM     18 CL   UNL     1      -6.027  11.422  17.780  0.00  0.00    +0.000 Cl
ATOM     19  C   UNL     1      -3.624  12.043  18.828  0.00  0.00    +0.000 A 
ATOM     20  C   UNL     1      -2.237  11.923  18.920  0.00  0.00    +0.000 A 
ENDBRANCH  10  14
ENDBRANCH   4   7
BRANCH   1  21
ATOM     21  O   UNL     1       3.565   4.289  19.675  0.00  0.00    +0.000 OA
BRANCH  21  23
ATOM     22  C   UNL     1       1.608   3.177  18.566  0.00  0.00    +0.000 C 
ATOM     23  C   UNL     1       2.809   3.067  19.514  0.00  0.00    +0.000 C 
ATOM     24  C   UNL     1       3.738   1.894  19.195  0.00  0.00    +0.000 C 
BRANCH  23  25
ATOM     25  C   UNL     1       2.216   2.787  20.914  0.00  0.00    +0.000 C 
ATOM     26  O   UNL     1       2.876   2.484  21.900  0.00  0.00    +0.000 OA
BRANCH  25  27
ATOM     27  O   UNL     1       0.864   2.899  20.967  0.00  0.00    +0.000 OA
ATOM     28  H   UNL     1       0.624   3.558  21.654  0.00  0.00    +0.000 HD
ENDBRANCH  25  27
ENDBRANCH  23  25
ENDBRANCH  21  23
ENDBRANCH   1  21
TORSDOF 6
ENDMDL
MODEL 2
REMARK VINA RESULT:      -7.7      0.976      1.794
REMARK  Name = 
REMARK  8 active torsions:
REMARK  status: ('A' for Active; 'I' for Inactive)
REMARK    1  A    between atoms: C_1  and  C_2
REMARK    2  A    between atoms: C_2  and  C_3
REMARK    3  A    between atoms: C_2  and  O_4
REMARK    4  A    between atoms: C_2  and  C_22
REMARK    5  A    between atoms: O_4  and  C_5
REMARK    6  A    between atoms: C_8  and  N_9
REMARK    7  A    between atoms: N_12  and  C_13
REMARK    8  A    between atoms: C_22  and  O_24
REMARK                            x       y       z     vdW  Elec       q    Type
REMARK                         _______ _______ _______ _____ _____    ______ ____
ROOT
ATOM      1  C   UNL     1       3.282   5.689  19.281  0.00  0.00    +0.000 A 
ATOM      2  C   UNL     1       2.518   6.346  20.249  0.00  0.00    +0.000 A 
ATOM      3  C   UNL     1       1.931   7.586  19.978  0.00  0.00    +0.000 A 
ATOM      4  C   UNL     1       2.087   8.199  18.729  0.00  0.00    +0.000 A 
ATOM      5  C   UNL     1       2.861   7.542  17.770  0.00  0.00    +0.000 A 
ATOM      6  C   UNL     1       3.476   6.312  18.054  0.00  0.00    +0.000 A 
ENDROOT
BRANCH   4   7
ATOM      7  N   UNL     1       1.557   9.475  18.457  0.00  0.00    +0.000 N 
ATOM      8  C   UNL     1       0.387   9.973  18.968  0.00  0.00    +0.000 C 
ATOM      9  N   UNL     1      -0.145   9.579  20.081  0.00  0.00    +0.000 NA
ATOM     10  N   UNL     1      -0.163  10.962  18.187  0.00  0.00    +0.000 N 
ATOM     11  H   UNL     1       2.226  10.160  18.134  0.00  0.00    +0.000 HD
ATOM     12  H   UNL     1       0.464   8.880  20.510  0.00  0.00    +0.000 HD
ATOM     13  H   UNL     1       0.256  11.042  17.268  0.00  0.00    +0.000 HD
BRANCH  10  14
ATOM     14  C   UNL     1      -1.567  11.127  18.073  0.00  0.00    +0.000 A 
ATOM     15  C   UNL     1      -2.275  10.393  17.111  0.00  0.00    +0.000 A 
ATOM     16  C   UNL     1      -3.665  10.509  17.011  0.00  0.00    +0.000 A 
ATOM     17  C   UNL     1      -4.358  11.339  17.890  0.00  0.00    +0.000 A 
ATOM     18 CL   UNL     1      -6.068  11.486  17.768  0.00  0.00    +0.000 Cl
ATOM     19  C   UNL     1      -3.677  12.048  18.873  0.00  0.00    +0.000 A 
ATOM     20  C   UNL     1      -2.289  11.933  18.966  0.00  0.00    +0.000 A 
ENDBRANCH  10  14
ENDBRANCH   4   7
BRANCH   1  21
ATOM     21  O   UNL     1       3.778   4.485  19.680  0.00  0.00    +0.000 OA
BRANCH  21  23
ATOM     22  C   UNL     1       2.587   2.905  21.222  0.00  0.00    +0.000 C 
ATOM     23  C   UNL     1       2.978   3.285  19.789  0.00  0.00    +0.000 C 
ATOM     24  C   UNL     1       1.795   3.333  18.822  0.00  0.00    +0.000 C 
BRANCH  23  25
ATOM     25  C   UNL     1       3.905   2.152  19.290  0.00  0.00    +0.000 C 
ATOM     26  O   UNL     1       3.618   1.362  18.400  0.00  0.00    +0.000 OA
BRANCH  25  27
ATOM     27  O   UNL     1       5.095   2.094  19.940  0.00  0.00    +0.000 OA
ATOM     28  H   UNL     1       5.666   1.424  19.505  0.00  0.00    +0.000 HD
ENDBRANCH  25  27
ENDBRANCH  23  25
ENDBRANCH  21  23
ENDBRANCH   1  21
TORSDOF 6
ENDMDL
MODEL 3
REMARK VINA RESULT:      -7.6      0.239      1.005
REMARK  Name = 
REMARK  8 active torsions:
REMARK  status: ('A' for Active; 'I' for Inactive)
REMARK    1  A    between atoms: C_1  and  C_2
REMARK    2  A    between atoms: C_2  and  C_3
REMARK    3  A    between atoms: C_2  and  O_4
REMARK    4  A    between atoms: C_2  and  C_22
REMARK    5  A    between atoms: O_4  and  C_5
REMARK    6  A    between atoms: C_8  and  N_9
REMARK    7  A    between atoms: N_12  and  C_13
REMARK    8  A    between atoms: C_22  and  O_24
REMARK                            x       y       z     vdW  Elec       q    Type
REMARK                         _______ _______ _______ _____ _____    ______ ____
ROOT
ATOM      1  C   UNL     1       2.916   5.644  19.569  0.00  0.00    +0.000 A 
ATOM      2  C   UNL     1       3.158   6.207  18.314  0.00  0.00    +0.000 A 
ATOM      3  C   UNL     1       2.691   7.487  18.002  0.00  0.00    +0.000 A 
ATOM      4  C   UNL     1       1.975   8.242  18.940  0.00  0.00    +0.000 A 
ATOM      5  C   UNL     1       1.728   7.667  20.189  0.00  0.00    +0.000 A 
ATOM      6  C   UNL     1       2.170   6.369  20.490  0.00  0.00    +0.000 A 
ENDROOT
BRANCH   4   7
ATOM      7  N   UNL     1       1.442   9.507  18.624  0.00  0.00    +0.000 N 
ATOM      8  C   UNL     1       0.254  10.005  19.088  0.00  0.00    +0.000 C 
ATOM      9  N   UNL     1      -0.308   9.630  20.193  0.00  0.00    +0.000 NA
ATOM     10  N   UNL     1      -0.281  10.971  18.269  0.00  0.00    +0.000 N 
ATOM     11  H   UNL     1       2.115  10.191  18.306  0.00  0.00    +0.000 HD
ATOM     12  H   UNL     1       0.293   8.946  20.656  0.00  0.00    +0.000 HD
ATOM     13  H   UNL     1       0.165  11.035  17.362  0.00  0.00    +0.000 HD
BRANCH  10  14
ATOM     14  C   UNL     1      -1.682  11.121  18.109  0.00  0.00    +0.000 A 
ATOM     15  C   UNL     1      -2.405  11.896  19.026  0.00  0.00    +0.000 A 
ATOM     16  C   UNL     1      -3.780  12.092  18.860  0.00  0.00    +0.000 A 
ATOM     17  C   UNL     1      -4.435  11.537  17.762  0.00  0.00    +0.000 A 
ATOM     18 CL   UNL     1      -6.126  11.774  17.557  0.00  0.00    +0.000 Cl
ATOM     19  C   UNL     1      -3.727  10.795  16.823  0.00  0.00    +0.000 A 
ATOM     20  C   UNL     1      -2.356  10.598  16.995  0.00  0.00    +0.000 A 
ENDBRANCH  10  14
ENDBRANCH   4   7
BRANCH   1  21
ATOM     21  O   UNL     1       3.443   4.399  19.737  0.00  0.00    +0.000 OA
BRANCH  21  23
ATOM     22  C   UNL     1       1.463   3.310  18.647  0.00  0.00    +0.000 C 
ATOM     23  C   UNL     1       2.689   3.178  19.559  0.00  0.00    +0.000 C 
ATOM     24  C   UNL     1       3.614   2.020  19.180  0.00  0.00    +0.000 C 
BRANCH  23  25
ATOM     25  C   UNL     1       2.136   2.852  20.965  0.00  0.00    +0.000 C 
ATOM     26  O   UNL     1       2.825   2.541  21.928  0.00  0.00    +0.000 OA
BRANCH  25  27
ATOM     27  O   UNL     1       0.783   2.934  21.052  0.00  0.00    +0.000 OA
ATOM     28  H   UNL     1       0.429   2.070  21.355  0.00  0.00    +0.000 HD
ENDBRANCH  25  27
ENDBRANCH  23  25
ENDBRANCH  21  23
ENDBRANCH   1  21
TORSDOF 6
ENDMDL
MODEL 4
REMARK VINA RESULT:      -7.6      6.181      7.972
REMARK  Name = 
REMARK  8 active torsions:
REMARK  status: ('A' for Active; 'I' for Inactive)
REMARK    1  A    between atoms: C_1  and  C_2
REMARK    2  A    between atoms: C_2  and  C_3
REMARK    3  A    between atoms: C_2  and  O_4
REMARK    4  A    between atoms: C_2  and  C_22
REMARK    5  A    between atoms: O_4  and  C_5
REMARK    6  A    between atoms: C_8  and  N_9
REMARK    7  A    between atoms: N_12  and  C_13
REMARK    8  A    between atoms: C_22  and  O_24
REMARK                            x       y       z     vdW  Elec       q    Type
REMARK                         _______ _______ _______ _____ _____    ______ ____
ROOT
ATOM      1  C   UNL     1       3.568   4.836  17.541  0.00  0.00    +0.000 A 
ATOM      2  C   UNL     1       4.701   4.364  16.875  0.00  0.00    +0.000 A 
ATOM      3  C   UNL     1       5.786   5.209  16.619  0.00  0.00    +0.000 A 
ATOM      4  C   UNL     1       5.769   6.548  17.030  0.00  0.00    +0.000 A 
ATOM      5  C   UNL     1       4.628   7.016  17.685  0.00  0.00    +0.000 A 
ATOM      6  C   UNL     1       3.527   6.175  17.913  0.00  0.00    +0.000 A 
ENDROOT
BRANCH   4   7
ATOM      7  N   UNL     1       6.824   7.430  16.727  0.00  0.00    +0.000 N 
ATOM      8  C   UNL     1       7.735   7.916  17.627  0.00  0.00    +0.000 C 
ATOM      9  N   UNL     1       8.057   7.315  18.728  0.00  0.00    +0.000 NA
ATOM     10  N   UNL     1       8.300   9.105  17.232  0.00  0.00    +0.000 N 
ATOM     11  H   UNL     1       7.108   7.446  15.757  0.00  0.00    +0.000 HD
ATOM     12  H   UNL     1       7.552   6.429  18.783  0.00  0.00    +0.000 HD
ATOM     13  H   UNL     1       7.830   9.545  16.450  0.00  0.00    +0.000 HD
BRANCH  10  14
ATOM     14  C   UNL     1       8.670  10.102  18.170  0.00  0.00    +0.000 A 
ATOM     15  C   UNL     1       9.138   9.723  19.436  0.00  0.00    +0.000 A 
ATOM     16  C   UNL     1       9.550  10.689  20.360  0.00  0.00    +0.000 A 
ATOM     17  C   UNL     1       9.522  12.039  20.013  0.00  0.00    +0.000 A 
ATOM     18 CL   UNL     1      10.024  13.230  21.148  0.00  0.00    +0.000 Cl
ATOM     19  C   UNL     1       9.094  12.432  18.749  0.00  0.00    +0.000 A 
ATOM     20  C   UNL     1       8.680  11.464  17.833  0.00  0.00    +0.000 A 
ENDBRANCH  10  14
ENDBRANCH   4   7
BRANCH   1  21
ATOM     21  O   UNL     1       2.599   3.899  17.734  0.00  0.00    +0.000 OA
BRANCH  21  23
ATOM     22  C   UNL     1       3.118   1.636  18.685  0.00  0.00    +0.000 C 
ATOM     23  C   UNL     1       2.535   3.039  18.894  0.00  0.00    +0.000 C 
ATOM     24  C   UNL     1       3.084   3.754  20.130  0.00  0.00    +0.000 C 
BRANCH  23  25
ATOM     25  C   UNL     1       1.023   2.833  19.144  0.00  0.00    +0.000 C 
ATOM     26  O   UNL     1       0.290   2.145  18.446  0.00  0.00    +0.000 OA
BRANCH  25  27
ATOM     27  O   UNL     1       0.553   3.503  20.228  0.00  0.00    +0.000 OA
ATOM     28  H   UNL     1       1.030   3.192  21.029  0.00  0.00    +0.000 HD
ENDBRANCH  25  27
ENDBRANCH  23  25
ENDBRANCH  21  23
ENDBRANCH   1  21
TORSDOF 6
ENDMDL
MODEL 5
REMARK VINA RESULT:      -7.6      1.017      2.043
REMARK  Name = 
REMARK  8 active torsions:
REMARK  status: ('A' for Active; 'I' for Inactive)
REMARK    1  A    between atoms: C_1  and  C_2
REMARK    2  A    between atoms: C_2  and  C_3
REMARK    3  A    between atoms: C_2  and  O_4
REMARK    4  A    between atoms: C_2  and  C_22
REMARK    5  A    between atoms: O_4  and  C_5
REMARK    6  A    between atoms: C_8  and  N_9
REMARK    7  A    between atoms: N_12  and  C_13
REMARK    8  A    between atoms: C_22  and  O_24
REMARK                            x       y       z     vdW  Elec       q    Type
REMARK                         _______ _______ _______ _____ _____    ______ ____
ROOT
ATOM      1  C   UNL     1       3.173   5.801  19.313  0.00  0.00    +0.000 A 
ATOM      2  C   UNL     1       2.423   6.452  20.295  0.00  0.00    +0.000 A 
ATOM      3  C   UNL     1       1.828   7.691  20.036  0.00  0.00    +0.000 A 
ATOM      4  C   UNL     1       1.960   8.308  18.786  0.00  0.00    +0.000 A 
ATOM      5  C   UNL     1       2.720   7.655  17.813  0.00  0.00    +0.000 A 
ATOM      6  C   UNL     1       3.344   6.427  18.085  0.00  0.00    +0.000 A 
ENDROOT
BRANCH   4   7
ATOM      7  N   UNL     1       1.421   9.582  18.527  0.00  0.00    +0.000 N 
ATOM      8  C   UNL     1       0.228  10.052  19.009  0.00  0.00    +0.000 C 
ATOM      9  N   UNL     1      -0.334   9.626  20.095  0.00  0.00    +0.000 NA
ATOM     10  N   UNL     1      -0.310  11.052  18.234  0.00  0.00    +0.000 N 
ATOM     11  H   UNL     1       2.090  10.284  18.241  0.00  0.00    +0.000 HD
ATOM     12  H   UNL     1       0.270   8.925  20.528  0.00  0.00    +0.000 HD
ATOM     13  H   UNL     1       0.137  11.159  17.331  0.00  0.00    +0.000 HD
BRANCH  10  14
ATOM     14  C   UNL     1      -1.712  11.201  18.077  0.00  0.00    +0.000 A 
ATOM     15  C   UNL     1      -2.448  11.889  19.051  0.00  0.00    +0.000 A 
ATOM     16  C   UNL     1      -3.825  12.085  18.893  0.00  0.00    +0.000 A 
ATOM     17  C   UNL     1      -4.467  11.618  17.748  0.00  0.00    +0.000 A 
ATOM     18 CL   UNL     1      -6.159  11.854  17.552  0.00  0.00    +0.000 Cl
ATOM     19  C   UNL     1      -3.746  10.964  16.754  0.00  0.00    +0.000 A 
ATOM     20  C   UNL     1      -2.374  10.767  16.918  0.00  0.00    +0.000 A 
ENDBRANCH  10  14
ENDBRANCH   4   7
BRANCH   1  21
ATOM     21  O   UNL     1       3.680   4.598  19.701  0.00  0.00    +0.000 OA
BRANCH  21  23
ATOM     22  C   UNL     1       2.452   2.972  21.166  0.00  0.00    +0.000 C 
ATOM     23  C   UNL     1       2.901   3.380  19.757  0.00  0.00    +0.000 C 
ATOM     24  C   UNL     1       1.762   3.418  18.737  0.00  0.00    +0.000 C 
BRANCH  23  25
ATOM     25  C   UNL     1       3.873   2.273  19.287  0.00  0.00    +0.000 C 
ATOM     26  O   UNL     1       3.568   1.352  18.541  0.00  0.00    +0.000 OA
BRANCH  25  27
ATOM     27  O   UNL     1       5.128   2.400  19.788  0.00  0.00    +0.000 OA
ATOM     28  H   UNL     1       5.072   2.631  20.741  0.00  0.00    +0.000 HD
ENDBRANCH  25  27
ENDBRANCH  23  25
ENDBRANCH  21  23
ENDBRANCH   1  21
TORSDOF 6
ENDMDL
MODEL 6
REMARK VINA RESULT:      -7.5      1.041      1.383
REMARK  Name = 
REMARK  8 active torsions:
REMARK  status: ('A' for Active; 'I' for Inactive)
REMARK    1  A    between atoms: C_1  and  C_2
REMARK    2  A    between atoms: C_2  and  C_3
REMARK    3  A    between atoms: C_2  and  O_4
REMARK    4  A    between atoms: C_2  and  C_22
REMARK    5  A    between atoms: O_4  and  C_5
REMARK    6  A    between atoms: C_8  and  N_9
REMARK    7  A    between atoms: N_12  and  C_13
REMARK    8  A    between atoms: C_22  and  O_24
REMARK                            x       y       z     vdW  Elec       q    Type
REMARK                         _______ _______ _______ _____ _____    ______ ____
ROOT
ATOM      1  C   UNL     1       3.078   5.979  19.250  0.00  0.00    +0.000 A 
ATOM      2  C   UNL     1       3.255   6.592  18.008  0.00  0.00    +0.000 A 
ATOM      3  C   UNL     1       2.710   7.852  17.746  0.00  0.00    +0.000 A 
ATOM      4  C   UNL     1       1.978   8.538  18.724  0.00  0.00    +0.000 A 
ATOM      5  C   UNL     1       1.795   7.914  19.960  0.00  0.00    +0.000 A 
ATOM      6  C   UNL     1       2.316   6.635  20.210  0.00  0.00    +0.000 A 
ENDROOT
BRANCH   4   7
ATOM      7  N   UNL     1       1.368   9.780  18.460  0.00  0.00    +0.000 N 
ATOM      8  C   UNL     1       0.181  10.208  18.990  0.00  0.00    +0.000 C 
ATOM      9  N   UNL     1      -0.307   9.786  20.113  0.00  0.00    +0.000 NA
ATOM     10  N   UNL     1      -0.441  11.161  18.219  0.00  0.00    +0.000 N 
ATOM     11  H   UNL     1       1.990  10.502  18.124  0.00  0.00    +0.000 HD
ATOM     12  H   UNL     1       0.350   9.125  20.533  0.00  0.00    +0.000 HD
ATOM     13  H   UNL     1      -0.045  11.263  17.292  0.00  0.00    +0.000 HD
BRANCH  10  14
ATOM     14  C   UNL     1      -1.854  11.242  18.129  0.00  0.00    +0.000 A 
ATOM     15  C   UNL     1      -2.537  10.444  17.201  0.00  0.00    +0.000 A 
ATOM     16  C   UNL     1      -3.933  10.477  17.127  0.00  0.00    +0.000 A 
ATOM     17  C   UNL     1      -4.657  11.288  17.999  0.00  0.00    +0.000 A 
ATOM     18 CL   UNL     1      -6.374  11.333  17.908  0.00  0.00    +0.000 Cl
ATOM     19  C   UNL     1      -3.998  12.060  18.951  0.00  0.00    +0.000 A 
ATOM     20  C   UNL     1      -2.605  12.027  19.017  0.00  0.00    +0.000 A 
ENDBRANCH  10  14
ENDBRANCH   4   7
BRANCH   1  21
ATOM     21  O   UNL     1       3.677   4.762  19.366  0.00  0.00    +0.000 OA
BRANCH  21  23
ATOM     22  C   UNL     1       2.202   3.267  20.740  0.00  0.00    +0.000 C 
ATOM     23  C   UNL     1       2.951   3.512  19.424  0.00  0.00    +0.000 C 
ATOM     24  C   UNL     1       2.079   3.336  18.179  0.00  0.00    +0.000 C 
BRANCH  23  25
ATOM     25  C   UNL     1       4.044   2.421  19.350  0.00  0.00    +0.000 C 
ATOM     26  O   UNL     1       4.970   2.312  20.142  0.00  0.00    +0.000 OA
BRANCH  25  27
ATOM     27  O   UNL     1       3.897   1.571  18.302  0.00  0.00    +0.000 OA
ATOM     28  H   UNL     1       3.001   1.689  17.917  0.00  0.00    +0.000 HD
ENDBRANCH  25  27
ENDBRANCH  23  25
ENDBRANCH  21  23
ENDBRANCH   1  21
TORSDOF 6
ENDMDL
MODEL 7
REMARK VINA RESULT:      -7.5      6.214      8.044
REMARK  Name = 
REMARK  8 active torsions:
REMARK  status: ('A' for Active; 'I' for Inactive)
REMARK    1  A    between atoms: C_1  and  C_2
REMARK    2  A    between atoms: C_2  and  C_3
REMARK    3  A    between atoms: C_2  and  O_4
REMARK    4  A    between atoms: C_2  and  C_22
REMARK    5  A    between atoms: O_4  and  C_5
REMARK    6  A    between atoms: C_8  and  N_9
REMARK    7  A    between atoms: N_12  and  C_13
REMARK    8  A    between atoms: C_22  and  O_24
REMARK                            x       y       z     vdW  Elec       q    Type
REMARK                         _______ _______ _______ _____ _____    ______ ____
ROOT
ATOM      1  C   UNL     1       4.004   4.811  18.162  0.00  0.00    +0.000 A 
ATOM      2  C   UNL     1       3.654   6.079  17.693  0.00  0.00    +0.000 A 
ATOM      3  C   UNL     1       4.635   6.983  17.275  0.00  0.00    +0.000 A 
ATOM      4  C   UNL     1       5.993   6.641  17.307  0.00  0.00    +0.000 A 
ATOM      5  C   UNL     1       6.335   5.375  17.788  0.00  0.00    +0.000 A 
ATOM      6  C   UNL     1       5.352   4.480  18.238  0.00  0.00    +0.000 A 
ENDROOT
BRANCH   4   7
ATOM      7  N   UNL     1       6.999   7.559  16.950  0.00  0.00    +0.000 N 
ATOM      8  C   UNL     1       7.951   8.061  17.797  0.00  0.00    +0.000 C 
ATOM      9  N   UNL     1       8.361   7.458  18.867  0.00  0.00    +0.000 NA
ATOM     10  N   UNL     1       8.454   9.272  17.384  0.00  0.00    +0.000 N 
ATOM     11  H   UNL     1       7.220   7.595  15.964  0.00  0.00    +0.000 HD
ATOM     12  H   UNL     1       7.888   6.556  18.942  0.00  0.00    +0.000 HD
ATOM     13  H   UNL     1       7.922   9.707  16.639  0.00  0.00    +0.000 HD
BRANCH  10  14
ATOM     14  C   UNL     1       8.854  10.269  18.310  0.00  0.00    +0.000 A 
ATOM     15  C   UNL     1       8.846  11.616  17.924  0.00  0.00    +0.000 A 
ATOM     16  C   UNL     1       9.195  12.618  18.836  0.00  0.00    +0.000 A 
ATOM     17  C   UNL     1       9.526  12.281  20.146  0.00  0.00    +0.000 A 
ATOM     18 CL   UNL     1       9.958  13.510  21.269  0.00  0.00    +0.000 Cl
ATOM     19  C   UNL     1       9.504  10.952  20.558  0.00  0.00    +0.000 A 
ATOM     20  C   UNL     1       9.161   9.956  19.643  0.00  0.00    +0.000 A 
ENDBRANCH  10  14
ENDBRANCH   4   7
BRANCH   1  21
ATOM     21  O   UNL     1       2.945   4.033  18.519  0.00  0.00    +0.000 OA
BRANCH  21  23
ATOM     22  C   UNL     1       3.635   2.616  20.471  0.00  0.00    +0.000 C 
ATOM     23  C   UNL     1       2.660   3.643  19.882  0.00  0.00    +0.000 C 
ATOM     24  C   UNL     1       2.457   4.874  20.767  0.00  0.00    +0.000 C 
BRANCH  23  25
ATOM     25  C   UNL     1       1.291   2.929  19.806  0.00  0.00    +0.000 C 
ATOM     26  O   UNL     1       0.814   2.448  18.787  0.00  0.00    +0.000 OA
BRANCH  25  27
ATOM     27  O   UNL     1       0.634   2.880  20.994  0.00  0.00    +0.000 OA
ATOM     28  H   UNL     1       1.241   2.531  21.682  0.00  0.00    +0.000 HD
ENDBRANCH  25  27
ENDBRANCH  23  25
ENDBRANCH  21  23
ENDBRANCH   1  21
TORSDOF 6
ENDMDL
MODEL 8
REMARK VINA RESULT:      -7.5      0.470      1.447
REMARK  Name = 
REMARK  8 active torsions:
REMARK  status: ('A' for Active; 'I' for Inactive)
REMARK    1  A    between atoms: C_1  and  C_2
REMARK    2  A    between atoms: C_2  and  C_3
REMARK    3  A    between atoms: C_2  and  O_4
REMARK    4  A    between atoms: C_2  and  C_22
REMARK    5  A    between atoms: O_4  and  C_5
REMARK    6  A    between atoms: C_8  and  N_9
REMARK    7  A    between atoms: N_12  and  C_13
REMARK    8  A    between atoms: C_22  and  O_24
REMARK                            x       y       z     vdW  Elec       q    Type
REMARK                         _______ _______ _______ _____ _____    ______ ____
ROOT
ATOM      1  C   UNL     1       2.965   5.887  19.507  0.00  0.00    +0.000 A 
ATOM      2  C   UNL     1       2.200   6.572  20.454  0.00  0.00    +0.000 A 
ATOM      3  C   UNL     1       1.617   7.805  20.146  0.00  0.00    +0.000 A 
ATOM      4  C   UNL     1       1.777   8.383  18.881  0.00  0.00    +0.000 A 
ATOM      5  C   UNL     1       2.553   7.697  17.943  0.00  0.00    +0.000 A 
ATOM      6  C   UNL     1       3.164   6.474  18.264  0.00  0.00    +0.000 A 
ENDROOT
BRANCH   4   7
ATOM      7  N   UNL     1       1.251   9.652  18.572  0.00  0.00    +0.000 N 
ATOM      8  C   UNL     1       0.062  10.151  19.033  0.00  0.00    +0.000 C 
ATOM      9  N   UNL     1      -0.507   9.770  20.132  0.00  0.00    +0.000 NA
ATOM     10  N   UNL     1      -0.465  11.125  18.219  0.00  0.00    +0.000 N 
ATOM     11  H   UNL     1       1.928  10.336  18.262  0.00  0.00    +0.000 HD
ATOM     12  H   UNL     1       0.088   9.081  20.593  0.00  0.00    +0.000 HD
ATOM     13  H   UNL     1      -0.014  11.194  17.314  0.00  0.00    +0.000 HD
BRANCH  10  14
ATOM     14  C   UNL     1      -1.865  11.282  18.052  0.00  0.00    +0.000 A 
ATOM     15  C   UNL     1      -2.613  11.927  19.046  0.00  0.00    +0.000 A 
ATOM     16  C   UNL     1      -3.987  12.131  18.881  0.00  0.00    +0.000 A 
ATOM     17  C   UNL     1      -4.616  11.714  17.708  0.00  0.00    +0.000 A 
ATOM     18 CL   UNL     1      -6.306  11.959  17.503  0.00  0.00    +0.000 Cl
ATOM     19  C   UNL     1      -3.882  11.104  16.696  0.00  0.00    +0.000 A 
ATOM     20  C   UNL     1      -2.513  10.899  16.867  0.00  0.00    +0.000 A 
ENDBRANCH  10  14
ENDBRANCH   4   7
BRANCH   1  21
ATOM     21  O   UNL     1       3.457   4.693  19.941  0.00  0.00    +0.000 OA
BRANCH  21  23
ATOM     22  C   UNL     1       1.745   3.457  18.586  0.00  0.00    +0.000 C 
ATOM     23  C   UNL     1       2.823   3.420  19.676  0.00  0.00    +0.000 C 
ATOM     24  C   UNL     1       3.872   2.327  19.466  0.00  0.00    +0.000 C 
BRANCH  23  25
ATOM     25  C   UNL     1       2.084   3.071  20.989  0.00  0.00    +0.000 C 
ATOM     26  O   UNL     1       2.637   2.778  22.040  0.00  0.00    +0.000 OA
BRANCH  25  27
ATOM     27  O   UNL     1       0.731   3.109  20.880  0.00  0.00    +0.000 OA
ATOM     28  H   UNL     1       0.362   3.605  21.642  0.00  0.00    +0.000 HD
ENDBRANCH  25  27
ENDBRANCH  23  25
ENDBRANCH  21  23
ENDBRANCH   1  21
TORSDOF 6
ENDMDL
MODEL 9
REMARK VINA RESULT:      -7.5      1.018      1.627
REMARK  Name = 
REMARK  8 active torsions:
REMARK  status: ('A' for Active; 'I' for Inactive)
REMARK    1  A    between atoms: C_1  and  C_2
REMARK    2  A    between atoms: C_2  and  C_3
REMARK    3  A    between atoms: C_2  and  O_4
REMARK    4  A    between atoms: C_2  and  C_22
REMARK    5  A    between atoms: O_4  and  C_5
REMARK    6  A    between atoms: C_8  and  N_9
REMARK    7  A    between atoms: N_12  and  C_13
REMARK    8  A    between atoms: C_22  and  O_24
REMARK                            x       y       z     vdW  Elec       q    Type
REMARK                         _______ _______ _______ _____ _____    ______ ____
ROOT
ATOM      1  C   UNL     1       3.153   6.314  19.068  0.00  0.00    +0.000 A 
ATOM      2  C   UNL     1       3.357   6.937  17.835  0.00  0.00    +0.000 A 
ATOM      3  C   UNL     1       2.741   8.157  17.538  0.00  0.00    +0.000 A 
ATOM      4  C   UNL     1       1.909   8.789  18.469  0.00  0.00    +0.000 A 
ATOM      5  C   UNL     1       1.700   8.155  19.696  0.00  0.00    +0.000 A 
ATOM      6  C   UNL     1       2.294   6.915  19.980  0.00  0.00    +0.000 A 
ENDROOT
BRANCH   4   7
ATOM      7  N   UNL     1       1.230   9.985  18.166  0.00  0.00    +0.000 N 
ATOM      8  C   UNL     1       0.052  10.394  18.733  0.00  0.00    +0.000 C 
ATOM      9  N   UNL     1      -0.358  10.021  19.904  0.00  0.00    +0.000 NA
ATOM     10  N   UNL     1      -0.652  11.270  17.941  0.00  0.00    +0.000 N 
ATOM     11  H   UNL     1       1.799  10.712  17.755  0.00  0.00    +0.000 HD
ATOM     12  H   UNL     1       0.349   9.415  20.325  0.00  0.00    +0.000 HD
ATOM     13  H   UNL     1      -0.308  11.333  16.990  0.00  0.00    +0.000 HD
BRANCH  10  14
ATOM     14  C   UNL     1      -2.069  11.285  17.923  0.00  0.00    +0.000 A 
ATOM     15  C   UNL     1      -2.769  11.935  18.949  0.00  0.00    +0.000 A 
ATOM     16  C   UNL     1      -4.166  11.999  18.926  0.00  0.00    +0.000 A 
ATOM     17  C   UNL     1      -4.870  11.437  17.863  0.00  0.00    +0.000 A 
ATOM     18 CL   UNL     1      -6.589  11.511  17.834  0.00  0.00    +0.000 Cl
ATOM     19  C   UNL     1      -4.192  10.820  16.818  0.00  0.00    +0.000 A 
ATOM     20  C   UNL     1      -2.798  10.754  16.848  0.00  0.00    +0.000 A 
ENDBRANCH  10  14
ENDBRANCH   4   7
BRANCH   1  21
ATOM     21  O   UNL     1       3.828   5.141  19.223  0.00  0.00    +0.000 OA
BRANCH  21  23
ATOM     22  C   UNL     1       1.798   3.758  18.713  0.00  0.00    +0.000 C 
ATOM     23  C   UNL     1       3.326   3.862  18.773  0.00  0.00    +0.000 C 
ATOM     24  C   UNL     1       4.022   3.431  17.481  0.00  0.00    +0.000 C 
BRANCH  23  25
ATOM     25  C   UNL     1       3.774   2.862  19.865  0.00  0.00    +0.000 C 
ATOM     26  O   UNL     1       3.127   2.594  20.869  0.00  0.00    +0.000 OA
BRANCH  25  27
ATOM     27  O   UNL     1       4.981   2.291  19.620  0.00  0.00    +0.000 OA
ATOM     28  H   UNL     1       5.019   2.011  18.680  0.00  0.00    +0.000 HD
ENDBRANCH  25  27
ENDBRANCH  23  25
ENDBRANCH  21  23
ENDBRANCH   1  21
TORSDOF 6
ENDMDL
