MODEL 1
REMARK VINA RESULT:      -7.3      0.000      0.000
REMARK  Name = 
REMARK  9 active torsions:
REMARK  status: ('A' for Active; 'I' for Inactive)
REMARK    1  A    between atoms: O_1  and  N_2
REMARK    2  A    between atoms: C_3  and  C_4
REMARK    3  A    between atoms: C_8  and  O_9
REMARK    4  A    between atoms: O_9  and  C_10
REMARK    5  A    between atoms: C_10  and  C_11
REMARK    6  A    between atoms: C_11  and  C_12
REMARK    7  A    between atoms: C_12  and  C_13
REMARK    8  A    between atoms: C_13  and  N_14
REMARK    9  A    between atoms: N_17  and  C_18
REMARK                            x       y       z     vdW  Elec       q    Type
REMARK                         _______ _______ _______ _____ _____    ______ ____
ROOT
ATOM      1  C   UNL     1       2.086   3.799  21.820  0.00  0.00    +0.000 C 
ENDROOT
BRANCH   1   2
ATOM      2  C   UNL     1       1.639   4.766  20.723  0.00  0.00    +0.000 C 
BRANCH   2   3
ATOM      3  O   UNL     1       2.627   5.782  20.534  0.00  0.00    +0.000 OA
BRANCH   3   8
ATOM      4  C   UNL     1       0.368  11.033  19.223  0.00  0.00    +0.000 A 
ATOM      5  C   UNL     1       0.417  10.201  20.368  0.00  0.00    +0.000 A 
ATOM      6  C   UNL     1       1.101   9.080  19.968  0.00  0.00    +0.000 A 
ATOM      7  C   UNL     1       1.505   7.866  20.599  0.00  0.00    +0.000 A 
ATOM      8  C   UNL     1       2.208   6.941  19.902  0.00  0.00    +0.000 A 
ATOM      9  C   UNL     1       2.588   7.198  18.514  0.00  0.00    +0.000 A 
ATOM     10  C   UNL     1       2.192   8.339  17.924  0.00  0.00    +0.000 A 
ATOM     11  N   UNL     1       1.449   9.277  18.634  0.00  0.00    +0.000 N 
ATOM     12  N   UNL     1       0.987  10.467  18.176  0.00  0.00    +0.000 NA
BRANCH   4  14
ATOM     13  N   UNL     1      -1.127  12.720  19.959  0.00  0.00    +0.000 NA
ATOM     14  C   UNL     1      -0.242  12.342  19.092  0.00  0.00    +0.000 C 
BRANCH  13  15
ATOM     15  O   UNL     1      -1.565  14.011  19.632  0.00  0.00    +0.000 OA
ATOM     16  H   UNL     1      -2.530  13.944  19.764  0.00  0.00    +0.000 HD
ENDBRANCH  13  15
ENDBRANCH   4  14
ENDBRANCH   3   8
ENDBRANCH   2   3
ENDBRANCH   1   2
BRANCH   1  17
ATOM     17  C   UNL     1       2.253   2.390  21.240  0.00  0.00    +0.000 C 
BRANCH  17  18
ATOM     18  C   UNL     1       1.474   2.143  19.938  0.00  0.00    +0.000 C 
BRANCH  18  19
ATOM     19  N   UNL     1       2.297   1.707  18.808  0.00  0.00    +0.000 NA
ATOM     20  C   UNL     1       2.082   2.470  17.560  0.00  0.00    +0.000 C 
ATOM     21  C   UNL     1       2.759   3.858  17.442  0.00  0.00    +0.000 C 
ATOM     22  N   UNL     1       4.173   3.805  17.841  0.00  0.00    +0.000 N 
ATOM     23  C   UNL     1       4.403   3.135  19.134  0.00  0.00    +0.000 C 
ATOM     24  C   UNL     1       3.741   1.735  19.141  0.00  0.00    +0.000 C 
BRANCH  22  25
ATOM     25  C   UNL     1       5.202   4.385  17.106  0.00  0.00    +0.000 A 
ATOM     26  C   UNL     1       5.451   3.900  15.799  0.00  0.00    +0.000 A 
ATOM     27  C   UNL     1       6.435   4.430  14.959  0.00  0.00    +0.000 A 
ATOM     28  C   UNL     1       7.201   5.500  15.387  0.00  0.00    +0.000 A 
ATOM     29  C   UNL     1       6.999   6.020  16.664  0.00  0.00    +0.000 A 
ATOM     30 CL   UNL     1       8.002   7.365  17.111  0.00  0.00    +0.000 Cl
ATOM     31  C   UNL     1       6.031   5.463  17.532  0.00  0.00    +0.000 A 
ATOM     32 CL   UNL     1       5.980   6.071  19.169  0.00  0.00    +0.000 Cl
ENDBRANCH  22  25
ENDBRANCH  18  19
ENDBRANCH  17  18
ENDBRANCH   1  17
TORSDOF 9
ENDMDL
MODEL 2
REMARK VINA RESULT:      -7.1      6.700     10.296
REMARK  Name = 
REMARK  9 active torsions:
REMARK  status: ('A' for Active; 'I' for Inactive)
REMARK    1  A    between atoms: O_1  and  N_2
REMARK    2  A    between atoms: C_3  and  C_4
REMARK    3  A    between atoms: C_8  and  O_9
REMARK    4  A    between atoms: O_9  and  C_10
REMARK    5  A    between atoms: C_10  and  C_11
REMARK    6  A    between atoms: C_11  and  C_12
REMARK    7  A    between atoms: C_12  and  C_13
REMARK    8  A    between atoms: C_13  and  N_14
REMARK    9  A    between atoms: N_17  and  C_18
REMARK                            x       y       z     vdW  Elec       q    Type
REMARK                         _______ _______ _______ _____ _____    ______ ____
ROOT
ATOM      1  C   UNL     1       8.292  10.545  17.814  0.00  0.00    +0.000 C 
ENDROOT
BRANCH   1   2
ATOM      2  C   UNL     1       8.563   9.109  18.263  0.00  0.00    +0.000 C 
BRANCH   2   3
ATOM      3  O   UNL     1       8.067   8.190  17.287  0.00  0.00    +0.000 OA
BRANCH   3   8
ATOM      4  C   UNL     1       3.791   4.276  18.183  0.00  0.00    +0.000 A 
ATOM      5  C   UNL     1       3.994   5.387  17.328  0.00  0.00    +0.000 A 
ATOM      6  C   UNL     1       5.233   5.876  17.663  0.00  0.00    +0.000 A 
ATOM      7  C   UNL     1       6.047   6.957  17.211  0.00  0.00    +0.000 A 
ATOM      8  C   UNL     1       7.269   7.160  17.759  0.00  0.00    +0.000 A 
ATOM      9  C   UNL     1       7.774   6.253  18.788  0.00  0.00    +0.000 A 
ATOM     10  C   UNL     1       6.995   5.245  19.216  0.00  0.00    +0.000 A 
ATOM     11  N   UNL     1       5.730   5.052  18.670  0.00  0.00    +0.000 N 
ATOM     12  N   UNL     1       4.840   4.082  18.996  0.00  0.00    +0.000 NA
BRANCH   4  14
ATOM     13  N   UNL     1       2.821   2.124  18.414  0.00  0.00    +0.000 NA
ATOM     14  C   UNL     1       2.640   3.397  18.250  0.00  0.00    +0.000 C 
BRANCH  13  15
ATOM     15  O   UNL     1       1.573   1.487  18.453  0.00  0.00    +0.000 OA
ATOM     16  H   UNL     1       1.744   0.730  19.044  0.00  0.00    +0.000 HD
ENDBRANCH  13  15
ENDBRANCH   4  14
ENDBRANCH   3   8
ENDBRANCH   2   3
ENDBRANCH   1   2
BRANCH   1  17
ATOM     17  C   UNL     1       9.534  11.412  18.052  0.00  0.00    +0.000 C 
BRANCH  17  18
ATOM     18  C   UNL     1       9.229  12.860  18.463  0.00  0.00    +0.000 C 
BRANCH  18  19
ATOM     19  N   UNL     1       9.894  13.300  19.692  0.00  0.00    +0.000 NA
ATOM     20  C   UNL     1       9.188  14.373  20.423  0.00  0.00    +0.000 C 
ATOM     21  C   UNL     1       7.973  13.969  21.295  0.00  0.00    +0.000 C 
ATOM     22  N   UNL     1       8.280  12.808  22.143  0.00  0.00    +0.000 N 
ATOM     23  C   UNL     1       8.895  11.683  21.415  0.00  0.00    +0.000 C 
ATOM     24  C   UNL     1      10.131  12.168  20.619  0.00  0.00    +0.000 C 
BRANCH  22  25
ATOM     25  C   UNL     1       7.966  12.740  23.497  0.00  0.00    +0.000 A 
ATOM     26  C   UNL     1       7.156  11.670  23.948  0.00  0.00    +0.000 A 
ATOM     27  C   UNL     1       6.806  11.484  25.288  0.00  0.00    +0.000 A 
ATOM     28  C   UNL     1       7.286  12.356  26.250  0.00  0.00    +0.000 A 
ATOM     29  C   UNL     1       8.090  13.427  25.866  0.00  0.00    +0.000 A 
ATOM     30 CL   UNL     1       8.648  14.463  27.142  0.00  0.00    +0.000 Cl
ATOM     31  C   UNL     1       8.415  13.642  24.505  0.00  0.00    +0.000 A 
ATOM     32 CL   UNL     1       9.278  15.108  24.111  0.00  0.00    +0.000 Cl
ENDBRANCH  22  25
ENDBRANCH  18  19
ENDBRANCH  17  18
ENDBRANCH   1  17
TORSDOF 9
ENDMDL
MODEL 3
REMARK VINA RESULT:      -6.9      1.317      1.647
REMARK  Name = 
REMARK  9 active torsions:
REMARK  status: ('A' for Active; 'I' for Inactive)
REMARK    1  A    between atoms: O_1  and  N_2
REMARK    2  A    between atoms: C_3  and  C_4
REMARK    3  A    between atoms: C_8  and  O_9
REMARK    4  A    between atoms: O_9  and  C_10
REMARK    5  A    between atoms: C_10  and  C_11
REMARK    6  A    between atoms: C_11  and  C_12
REMARK    7  A    between atoms: C_12  and  C_13
REMARK    8  A    between atoms: C_13  and  N_14
REMARK    9  A    between atoms: N_17  and  C_18
REMARK                            x       y       z     vdW  Elec       q    Type
REMARK                         _______ _______ _______ _____ _____    ______ ____
ROOT
ATOM      1  C   UNL     1       1.053   4.553  20.381  0.00  0.00    +0.000 C 
ENDROOT
BRANCH   1   2
ATOM      2  C   UNL     1       1.826   5.727  20.983  0.00  0.00    +0.000 C 
BRANCH   2   3
ATOM      3  O   UNL     1       2.541   6.420  19.958  0.00  0.00    +0.000 OA
BRANCH   3   8
ATOM      4  C   UNL     1       0.008  11.705  19.749  0.00  0.00    +0.000 A 
ATOM      5  C   UNL     1       0.188  10.699  20.730  0.00  0.00    +0.000 A 
ATOM      6  C   UNL     1       0.867   9.691  20.089  0.00  0.00    +0.000 A 
ATOM      7  C   UNL     1       1.365   8.410  20.469  0.00  0.00    +0.000 A 
ATOM      8  C   UNL     1       2.029   7.646  19.568  0.00  0.00    +0.000 A 
ATOM      9  C   UNL     1       2.270   8.146  18.216  0.00  0.00    +0.000 A 
ATOM     10  C   UNL     1       1.786   9.349  17.863  0.00  0.00    +0.000 A 
ATOM     11  N   UNL     1       1.083  10.122  18.782  0.00  0.00    +0.000 N 
ATOM     12  N   UNL     1       0.544  11.349  18.572  0.00  0.00    +0.000 NA
BRANCH   4  14
ATOM     13  N   UNL     1      -1.942  13.029  20.016  0.00  0.00    +0.000 NA
ATOM     14  C   UNL     1      -0.653  12.988  19.894  0.00  0.00    +0.000 C 
BRANCH  13  15
ATOM     15  O   UNL     1      -2.345  14.365  20.146  0.00  0.00    +0.000 OA
ATOM     16  H   UNL     1      -2.905  14.493  19.357  0.00  0.00    +0.000 HD
ENDBRANCH  13  15
ENDBRANCH   4  14
ENDBRANCH   3   8
ENDBRANCH   2   3
ENDBRANCH   1   2
BRANCH   1  17
ATOM     17  C   UNL     1       1.778   3.238  20.685  0.00  0.00    +0.000 C 
BRANCH  17  18
ATOM     18  C   UNL     1       1.441   2.089  19.722  0.00  0.00    +0.000 C 
BRANCH  18  19
ATOM     19  N   UNL     1       2.481   1.795  18.734  0.00  0.00    +0.000 NA
ATOM     20  C   UNL     1       2.384   2.581  17.486  0.00  0.00    +0.000 C 
ATOM     21  C   UNL     1       2.904   4.040  17.514  0.00  0.00    +0.000 C 
ATOM     22  N   UNL     1       4.231   4.127  18.141  0.00  0.00    +0.000 N 
ATOM     23  C   UNL     1       4.326   3.433  19.438  0.00  0.00    +0.000 C 
ATOM     24  C   UNL     1       3.839   1.970  19.303  0.00  0.00    +0.000 C 
BRANCH  22  25
ATOM     25  C   UNL     1       5.291   4.848  17.599  0.00  0.00    +0.000 A 
ATOM     26  C   UNL     1       5.961   5.783  18.425  0.00  0.00    +0.000 A 
ATOM     27  C   UNL     1       7.057   6.537  17.999  0.00  0.00    +0.000 A 
ATOM     28  C   UNL     1       7.556   6.361  16.719  0.00  0.00    +0.000 A 
ATOM     29  C   UNL     1       6.939   5.452  15.861  0.00  0.00    +0.000 A 
ATOM     30 CL   UNL     1       7.637   5.296  14.280  0.00  0.00    +0.000 Cl
ATOM     31  C   UNL     1       5.804   4.715  16.276  0.00  0.00    +0.000 A 
ATOM     32 CL   UNL     1       5.001   3.738  15.072  0.00  0.00    +0.000 Cl
ENDBRANCH  22  25
ENDBRANCH  18  19
ENDBRANCH  17  18
ENDBRANCH   1  17
TORSDOF 9
ENDMDL
MODEL 4
REMARK VINA RESULT:      -6.8      4.302      9.265
REMARK  Name = 
REMARK  9 active torsions:
REMARK  status: ('A' for Active; 'I' for Inactive)
REMARK    1  A    between atoms: O_1  and  N_2
REMARK    2  A    between atoms: C_3  and  C_4
REMARK    3  A    between atoms: C_8  and  O_9
REMARK    4  A    between atoms: O_9  and  C_10
REMARK    5  A    between atoms: C_10  and  C_11
REMARK    6  A    between atoms: C_11  and  C_12
REMARK    7  A    between atoms: C_12  and  C_13
REMARK    8  A    between atoms: C_13  and  N_14
REMARK    9  A    between atoms: N_17  and  C_18
REMARK                            x       y       z     vdW  Elec       q    Type
REMARK                         _______ _______ _______ _____ _____    ______ ____
ROOT
ATOM      1  C   UNL     1       0.323   8.389  22.131  0.00  0.00    +0.000 C 
ENDROOT
BRANCH   1   2
ATOM      2  C   UNL     1       1.240   7.878  21.020  0.00  0.00    +0.000 C 
BRANCH   2   3
ATOM      3  O   UNL     1       1.099   6.462  20.883  0.00  0.00    +0.000 OA
BRANCH   3   8
ATOM      4  C   UNL     1       5.285   5.031  17.031  0.00  0.00    +0.000 A 
ATOM      5  C   UNL     1       4.456   6.155  17.266  0.00  0.00    +0.000 A 
ATOM      6  C   UNL     1       3.674   5.807  18.340  0.00  0.00    +0.000 A 
ATOM      7  C   UNL     1       2.645   6.450  19.089  0.00  0.00    +0.000 A 
ATOM      8  C   UNL     1       2.072   5.814  20.138  0.00  0.00    +0.000 A 
ATOM      9  C   UNL     1       2.530   4.482  20.531  0.00  0.00    +0.000 A 
ATOM     10  C   UNL     1       3.492   3.879  19.811  0.00  0.00    +0.000 A 
ATOM     11  N   UNL     1       4.062   4.524  18.718  0.00  0.00    +0.000 N 
ATOM     12  N   UNL     1       5.039   4.046  17.908  0.00  0.00    +0.000 NA
BRANCH   4  14
ATOM     13  N   UNL     1       6.753   5.907  15.387  0.00  0.00    +0.000 NA
ATOM     14  C   UNL     1       6.300   4.864  16.009  0.00  0.00    +0.000 C 
BRANCH  13  15
ATOM     15  O   UNL     1       7.720   5.499  14.458  0.00  0.00    +0.000 OA
ATOM     16  H   UNL     1       8.254   6.307  14.343  0.00  0.00    +0.000 HD
ENDBRANCH  13  15
ENDBRANCH   4  14
ENDBRANCH   3   8
ENDBRANCH   2   3
ENDBRANCH   1   2
BRANCH   1  17
ATOM     17  C   UNL     1       0.109   9.900  21.979  0.00  0.00    +0.000 C 
BRANCH  17  18
ATOM     18  C   UNL     1      -0.445  10.329  20.611  0.00  0.00    +0.000 C 
BRANCH  18  19
ATOM     19  N   UNL     1      -0.860  11.731  20.532  0.00  0.00    +0.000 NA
ATOM     20  C   UNL     1       0.003  12.670  21.279  0.00  0.00    +0.000 C 
ATOM     21  C   UNL     1       1.343  13.090  20.624  0.00  0.00    +0.000 C 
ATOM     22  N   UNL     1       1.158  13.481  19.219  0.00  0.00    +0.000 N 
ATOM     23  C   UNL     1       0.383  12.508  18.427  0.00  0.00    +0.000 C 
ATOM     24  C   UNL     1      -0.961  12.192  19.127  0.00  0.00    +0.000 C 
BRANCH  22  25
ATOM     25  C   UNL     1       1.711  14.629  18.660  0.00  0.00    +0.000 A 
ATOM     26  C   UNL     1       2.967  14.526  18.016  0.00  0.00    +0.000 A 
ATOM     27  C   UNL     1       3.599  15.605  17.392  0.00  0.00    +0.000 A 
ATOM     28  C   UNL     1       2.978  16.842  17.361  0.00  0.00    +0.000 A 
ATOM     29  C   UNL     1       1.739  17.002  17.977  0.00  0.00    +0.000 A 
ATOM     30 CL   UNL     1       1.035  18.586  17.882  0.00  0.00    +0.000 Cl
ATOM     31  C   UNL     1       1.112  15.922  18.644  0.00  0.00    +0.000 A 
ATOM     32 CL   UNL     1      -0.350  16.272  19.533  0.00  0.00    +0.000 Cl
ENDBRANCH  22  25
ENDBRANCH  18  19
ENDBRANCH  17  18
ENDBRANCH   1  17
TORSDOF 9
ENDMDL
MODEL 5
REMARK VINA RESULT:      -6.8      4.340      9.599
REMARK  Name = 
REMARK  9 active torsions:
REMARK  status: ('A' for Active; 'I' for Inactive)
REMARK    1  A    between atoms: O_1  and  N_2
REMARK    2  A    between atoms: C_3  and  C_4
REMARK    3  A    between atoms: C_8  and  O_9
REMARK    4  A    between atoms: O_9  and  C_10
REMARK    5  A    between atoms: C_10  and  C_11
REMARK    6  A    between atoms: C_11  and  C_12
REMARK    7  A    between atoms: C_12  and  C_13
REMARK    8  A    between atoms: C_13  and  N_14
REMARK    9  A    between atoms: N_17  and  C_18
REMARK                            x       y       z     vdW  Elec       q    Type
REMARK                         _______ _______ _______ _____ _____    ______ ____
ROOT
ATOM      1  C   UNL     1       1.588   5.078  20.192  0.00  0.00    +0.000 C 
ENDROOT
BRANCH   1   2
ATOM      2  C   UNL     1       2.861   4.232  20.153  0.00  0.00    +0.000 C 
BRANCH   2   3
ATOM      3  O   UNL     1       4.012   5.080  20.181  0.00  0.00    +0.000 OA
BRANCH   3   8
ATOM      4  C   UNL     1       6.404   4.449  14.863  0.00  0.00    +0.000 A 
ATOM      5  C   UNL     1       5.104   4.344  15.415  0.00  0.00    +0.000 A 
ATOM      6  C   UNL     1       5.261   4.606  16.755  0.00  0.00    +0.000 A 
ATOM      7  C   UNL     1       4.386   4.670  17.879  0.00  0.00    +0.000 A 
ATOM      8  C   UNL     1       4.876   4.984  19.102  0.00  0.00    +0.000 A 
ATOM      9  C   UNL     1       6.295   5.294  19.269  0.00  0.00    +0.000 A 
ATOM     10  C   UNL     1       7.114   5.219  18.206  0.00  0.00    +0.000 A 
ATOM     11  N   UNL     1       6.613   4.872  16.955  0.00  0.00    +0.000 N 
ATOM     12  N   UNL     1       7.313   4.762  15.799  0.00  0.00    +0.000 NA
BRANCH   4  14
ATOM     13  N   UNL     1       7.512   5.183  12.899  0.00  0.00    +0.000 NA
ATOM     14  C   UNL     1       6.808   4.265  13.483  0.00  0.00    +0.000 C 
BRANCH  13  15
ATOM     15  O   UNL     1       7.783   4.782  11.583  0.00  0.00    +0.000 OA
ATOM     16  H   UNL     1       8.568   5.317  11.359  0.00  0.00    +0.000 HD
ENDBRANCH  13  15
ENDBRANCH   4  14
ENDBRANCH   3   8
ENDBRANCH   2   3
ENDBRANCH   1   2
BRANCH   1  17
ATOM     17  C   UNL     1       1.948   6.568  20.179  0.00  0.00    +0.000 C 
BRANCH  17  18
ATOM     18  C   UNL     1       1.057   7.445  21.072  0.00  0.00    +0.000 C 
BRANCH  18  19
ATOM     19  N   UNL     1       1.505   8.833  21.206  0.00  0.00    +0.000 NA
ATOM     20  C   UNL     1       0.815   9.790  20.315  0.00  0.00    +0.000 C 
ATOM     21  C   UNL     1      -0.600  10.267  20.732  0.00  0.00    +0.000 C 
ATOM     22  N   UNL     1      -0.638  10.673  22.145  0.00  0.00    +0.000 N 
ATOM     23  C   UNL     1      -0.044   9.687  23.065  0.00  0.00    +0.000 C 
ATOM     24  C   UNL     1       1.386   9.312  22.604  0.00  0.00    +0.000 C 
BRANCH  22  25
ATOM     25  C   UNL     1      -1.234  11.849  22.591  0.00  0.00    +0.000 A 
ATOM     26  C   UNL     1      -2.501  11.766  23.216  0.00  0.00    +0.000 A 
ATOM     27  C   UNL     1      -3.176  12.875  23.732  0.00  0.00    +0.000 A 
ATOM     28  C   UNL     1      -2.588  14.127  23.670  0.00  0.00    +0.000 A 
ATOM     29  C   UNL     1      -1.340  14.270  23.067  0.00  0.00    +0.000 A 
ATOM     30 CL   UNL     1      -0.681  15.875  23.041  0.00  0.00    +0.000 Cl
ATOM     31  C   UNL     1      -0.670  13.155  22.509  0.00  0.00    +0.000 A 
ATOM     32 CL   UNL     1       0.802  13.469  21.623  0.00  0.00    +0.000 Cl
ENDBRANCH  22  25
ENDBRANCH  18  19
ENDBRANCH  17  18
ENDBRANCH   1  17
TORSDOF 9
ENDMDL
MODEL 6
REMARK VINA RESULT:      -6.8      6.593      8.537
REMARK  Name = 
REMARK  9 active torsions:
REMARK  status: ('A' for Active; 'I' for Inactive)
REMARK    1  A    between atoms: O_1  and  N_2
REMARK    2  A    between atoms: C_3  and  C_4
REMARK    3  A    between atoms: C_8  and  O_9
REMARK    4  A    between atoms: O_9  and  C_10
REMARK    5  A    between atoms: C_10  and  C_11
REMARK    6  A    between atoms: C_11  and  C_12
REMARK    7  A    between atoms: C_12  and  C_13
REMARK    8  A    between atoms: C_13  and  N_14
REMARK    9  A    between atoms: N_17  and  C_18
REMARK                            x       y       z     vdW  Elec       q    Type
REMARK                         _______ _______ _______ _____ _____    ______ ____
ROOT
ATOM      1  C   UNL     1       8.286   7.968  18.249  0.00  0.00    +0.000 C 
ENDROOT
BRANCH   1   2
ATOM      2  C   UNL     1       8.379   9.490  18.361  0.00  0.00    +0.000 C 
BRANCH   2   3
ATOM      3  O   UNL     1       9.298   9.849  19.396  0.00  0.00    +0.000 OA
BRANCH   3   8
ATOM      4  C   UNL     1      11.101  15.225  17.897  0.00  0.00    +0.000 A 
ATOM      5  C   UNL     1      10.739  14.042  17.208  0.00  0.00    +0.000 A 
ATOM      6  C   UNL     1      10.430  13.134  18.191  0.00  0.00    +0.000 A 
ATOM      7  C   UNL     1       9.997  11.775  18.209  0.00  0.00    +0.000 A 
ATOM      8  C   UNL     1       9.755  11.157  19.390  0.00  0.00    +0.000 A 
ATOM      9  C   UNL     1       9.901  11.888  20.648  0.00  0.00    +0.000 A 
ATOM     10  C   UNL     1      10.322  13.164  20.621  0.00  0.00    +0.000 A 
ATOM     11  N   UNL     1      10.594  13.791  19.408  0.00  0.00    +0.000 N 
ATOM     12  N   UNL     1      11.017  15.066  19.227  0.00  0.00    +0.000 NA
BRANCH   4  14
ATOM     13  N   UNL     1      10.742  17.526  17.450  0.00  0.00    +0.000 NA
ATOM     14  C   UNL     1      11.518  16.495  17.337  0.00  0.00    +0.000 C 
BRANCH  13  15
ATOM     15  O   UNL     1      11.356  18.630  16.842  0.00  0.00    +0.000 OA
ATOM     16  H   UNL     1      12.039  18.875  17.494  0.00  0.00    +0.000 HD
ENDBRANCH  13  15
ENDBRANCH   4  14
ENDBRANCH   3   8
ENDBRANCH   2   3
ENDBRANCH   1   2
BRANCH   1  17
ATOM     17  C   UNL     1       7.239   7.584  17.197  0.00  0.00    +0.000 C 
BRANCH  17  18
ATOM     18  C   UNL     1       7.611   6.360  16.346  0.00  0.00    +0.000 C 
BRANCH  18  19
ATOM     19  N   UNL     1       6.692   5.227  16.471  0.00  0.00    +0.000 NA
ATOM     20  C   UNL     1       6.747   4.531  17.775  0.00  0.00    +0.000 C 
ATOM     21  C   UNL     1       6.010   5.186  18.970  0.00  0.00    +0.000 C 
ATOM     22  N   UNL     1       4.648   5.601  18.602  0.00  0.00    +0.000 N 
ATOM     23  C   UNL     1       4.579   6.384  17.355  0.00  0.00    +0.000 C 
ATOM     24  C   UNL     1       5.290   5.629  16.205  0.00  0.00    +0.000 C 
BRANCH  22  25
ATOM     25  C   UNL     1       3.527   5.339  19.383  0.00  0.00    +0.000 A 
ATOM     26  C   UNL     1       2.687   6.421  19.741  0.00  0.00    +0.000 A 
ATOM     27  C   UNL     1       1.519   6.270  20.492  0.00  0.00    +0.000 A 
ATOM     28  C   UNL     1       1.121   5.007  20.898  0.00  0.00    +0.000 A 
ATOM     29  C   UNL     1       1.907   3.904  20.573  0.00  0.00    +0.000 A 
ATOM     30 CL   UNL     1       1.325   2.362  21.119  0.00  0.00    +0.000 Cl
ATOM     31  C   UNL     1       3.111   4.056  19.845  0.00  0.00    +0.000 A 
ATOM     32 CL   UNL     1       4.109   2.637  19.645  0.00  0.00    +0.000 Cl
ENDBRANCH  22  25
ENDBRANCH  18  19
ENDBRANCH  17  18
ENDBRANCH   1  17
TORSDOF 9
ENDMDL
MODEL 7
REMARK VINA RESULT:      -6.6      1.073      1.570
REMARK  Name = 
REMARK  9 active torsions:
REMARK  status: ('A' for Active; 'I' for Inactive)
REMARK    1  A    between atoms: O_1  and  N_2
REMARK    2  A    between atoms: C_3  and  C_4
REMARK    3  A    between atoms: C_8  and  O_9
REMARK    4  A    between atoms: O_9  and  C_10
REMARK    5  A    between atoms: C_10  and  C_11
REMARK    6  A    between atoms: C_11  and  C_12
REMARK    7  A    between atoms: C_12  and  C_13
REMARK    8  A    between atoms: C_13  and  N_14
REMARK    9  A    between atoms: N_17  and  C_18
REMARK                            x       y       z     vdW  Elec       q    Type
REMARK                         _______ _______ _______ _____ _____    ______ ____
ROOT
ATOM      1  C   UNL     1       1.156   4.674  20.316  0.00  0.00    +0.000 C 
ENDROOT
BRANCH   1   2
ATOM      2  C   UNL     1       1.949   5.817  20.949  0.00  0.00    +0.000 C 
BRANCH   2   3
ATOM      3  O   UNL     1       2.233   6.818  19.969  0.00  0.00    +0.000 OA
BRANCH   3   8
ATOM      4  C   UNL     1      -0.174  12.133  19.375  0.00  0.00    +0.000 A 
ATOM      5  C   UNL     1       0.358  11.152  18.503  0.00  0.00    +0.000 A 
ATOM      6  C   UNL     1       0.777  10.133  19.323  0.00  0.00    +0.000 A 
ATOM      7  C   UNL     1       1.394   8.863  19.120  0.00  0.00    +0.000 A 
ATOM      8  C   UNL     1       1.668   8.065  20.180  0.00  0.00    +0.000 A 
ATOM      9  C   UNL     1       1.302   8.485  21.531  0.00  0.00    +0.000 A 
ATOM     10  C   UNL     1       0.733   9.689  21.714  0.00  0.00    +0.000 A 
ATOM     11  N   UNL     1       0.474  10.518  20.627  0.00  0.00    +0.000 N 
ATOM     12  N   UNL     1      -0.096  11.748  20.657  0.00  0.00    +0.000 NA
BRANCH   4  14
ATOM     13  N   UNL     1      -0.273  14.495  19.562  0.00  0.00    +0.000 NA
ATOM     14  C   UNL     1      -0.754  13.417  19.030  0.00  0.00    +0.000 C 
BRANCH  13  15
ATOM     15  O   UNL     1      -0.985  15.601  19.077  0.00  0.00    +0.000 OA
ATOM     16  H   UNL     1      -0.289  16.118  18.630  0.00  0.00    +0.000 HD
ENDBRANCH  13  15
ENDBRANCH   4  14
ENDBRANCH   3   8
ENDBRANCH   2   3
ENDBRANCH   1   2
BRANCH   1  17
ATOM     17  C   UNL     1       1.710   3.326  20.792  0.00  0.00    +0.000 C 
BRANCH  17  18
ATOM     18  C   UNL     1       1.309   2.129  19.916  0.00  0.00    +0.000 C 
BRANCH  18  19
ATOM     19  N   UNL     1       2.382   1.607  19.066  0.00  0.00    +0.000 NA
ATOM     20  C   UNL     1       2.297   2.016  17.648  0.00  0.00    +0.000 C 
ATOM     21  C   UNL     1       2.780   3.442  17.282  0.00  0.00    +0.000 C 
ATOM     22  N   UNL     1       4.088   3.740  17.884  0.00  0.00    +0.000 N 
ATOM     23  C   UNL     1       4.165   3.434  19.324  0.00  0.00    +0.000 C 
ATOM     24  C   UNL     1       3.720   1.975  19.589  0.00  0.00    +0.000 C 
BRANCH  22  25
ATOM     25  C   UNL     1       5.143   4.317  17.184  0.00  0.00    +0.000 A 
ATOM     26  C   UNL     1       5.448   3.819  15.895  0.00  0.00    +0.000 A 
ATOM     27  C   UNL     1       6.462   4.344  15.089  0.00  0.00    +0.000 A 
ATOM     28  C   UNL     1       7.204   5.425  15.536  0.00  0.00    +0.000 A 
ATOM     29  C   UNL     1       6.947   5.958  16.797  0.00  0.00    +0.000 A 
ATOM     30 CL   UNL     1       7.923   7.314  17.268  0.00  0.00    +0.000 Cl
ATOM     31  C   UNL     1       5.947   5.406  17.632  0.00  0.00    +0.000 A 
ATOM     32 CL   UNL     1       5.825   6.033  19.257  0.00  0.00    +0.000 Cl
ENDBRANCH  22  25
ENDBRANCH  18  19
ENDBRANCH  17  18
ENDBRANCH   1  17
TORSDOF 9
ENDMDL
MODEL 8
REMARK VINA RESULT:      -6.5      3.395      8.389
REMARK  Name = 
REMARK  9 active torsions:
REMARK  status: ('A' for Active; 'I' for Inactive)
REMARK    1  A    between atoms: O_1  and  N_2
REMARK    2  A    between atoms: C_3  and  C_4
REMARK    3  A    between atoms: C_8  and  O_9
REMARK    4  A    between atoms: O_9  and  C_10
REMARK    5  A    between atoms: C_10  and  C_11
REMARK    6  A    between atoms: C_11  and  C_12
REMARK    7  A    between atoms: C_12  and  C_13
REMARK    8  A    between atoms: C_13  and  N_14
REMARK    9  A    between atoms: N_17  and  C_18
REMARK                            x       y       z     vdW  Elec       q    Type
REMARK                         _______ _______ _______ _____ _____    ______ ____
ROOT
ATOM      1  C   UNL     1       1.605   4.268  20.839  0.00  0.00    +0.000 C 
ENDROOT
BRANCH   1   2
ATOM      2  C   UNL     1       1.368   3.727  19.429  0.00  0.00    +0.000 C 
BRANCH   2   3
ATOM      3  O   UNL     1       2.393   2.792  19.085  0.00  0.00    +0.000 OA
BRANCH   3   8
ATOM      4  C   UNL     1       6.325   4.740  15.193  0.00  0.00    +0.000 A 
ATOM      5  C   UNL     1       5.050   4.126  15.134  0.00  0.00    +0.000 A 
ATOM      6  C   UNL     1       4.693   3.915  16.444  0.00  0.00    +0.000 A 
ATOM      7  C   UNL     1       3.560   3.350  17.101  0.00  0.00    +0.000 A 
ATOM      8  C   UNL     1       3.513   3.308  18.455  0.00  0.00    +0.000 A 
ATOM      9  C   UNL     1       4.605   3.874  19.246  0.00  0.00    +0.000 A 
ATOM     10  C   UNL     1       5.673   4.392  18.617  0.00  0.00    +0.000 A 
ATOM     11  N   UNL     1       5.731   4.412  17.227  0.00  0.00    +0.000 N 
ATOM     12  N   UNL     1       6.735   4.904  16.460  0.00  0.00    +0.000 NA
BRANCH   4  14
ATOM     13  N   UNL     1       8.342   5.646  14.337  0.00  0.00    +0.000 NA
ATOM     14  C   UNL     1       7.161   5.174  14.091  0.00  0.00    +0.000 C 
BRANCH  13  15
ATOM     15  O   UNL     1       8.957   5.991  13.125  0.00  0.00    +0.000 OA
ATOM     16  H   UNL     1       9.308   5.134  12.818  0.00  0.00    +0.000 HD
ENDBRANCH  13  15
ENDBRANCH   4  14
ENDBRANCH   3   8
ENDBRANCH   2   3
ENDBRANCH   1   2
BRANCH   1  17
ATOM     17  C   UNL     1       1.546   5.800  20.829  0.00  0.00    +0.000 C 
BRANCH  17  18
ATOM     18  C   UNL     1       1.769   6.435  19.448  0.00  0.00    +0.000 C 
BRANCH  18  19
ATOM     19  N   UNL     1       2.358   7.776  19.480  0.00  0.00    +0.000 NA
ATOM     20  C   UNL     1       2.063   8.606  18.293  0.00  0.00    +0.000 C 
ATOM     21  C   UNL     1       0.670   9.282  18.217  0.00  0.00    +0.000 C 
ATOM     22  N   UNL     1       0.326   9.951  19.481  0.00  0.00    +0.000 N 
ATOM     23  C   UNL     1       0.518   9.107  20.674  0.00  0.00    +0.000 C 
ATOM     24  C   UNL     1       1.951   8.521  20.695  0.00  0.00    +0.000 C 
BRANCH  22  25
ATOM     25  C   UNL     1      -0.193  11.240  19.551  0.00  0.00    +0.000 A 
ATOM     26  C   UNL     1      -1.588  11.394  19.741  0.00  0.00    +0.000 A 
ATOM     27  C   UNL     1      -2.213  12.638  19.861  0.00  0.00    +0.000 A 
ATOM     28  C   UNL     1      -1.453  13.795  19.824  0.00  0.00    +0.000 A 
ATOM     29  C   UNL     1      -0.074  13.705  19.641  0.00  0.00    +0.000 A 
ATOM     30 CL   UNL     1       0.795  15.207  19.615  0.00  0.00    +0.000 Cl
ATOM     31  C   UNL     1       0.558  12.449  19.482  0.00  0.00    +0.000 A 
ATOM     32 CL   UNL     1       2.258  12.455  19.083  0.00  0.00    +0.000 Cl
ENDBRANCH  22  25
ENDBRANCH  18  19
ENDBRANCH  17  18
ENDBRANCH   1  17
TORSDOF 9
ENDMDL
MODEL 9
REMARK VINA RESULT:      -6.5      3.393      6.053
REMARK  Name = 
REMARK  9 active torsions:
REMARK  status: ('A' for Active; 'I' for Inactive)
REMARK    1  A    between atoms: O_1  and  N_2
REMARK    2  A    between atoms: C_3  and  C_4
REMARK    3  A    between atoms: C_8  and  O_9
REMARK    4  A    between atoms: O_9  and  C_10
REMARK    5  A    between atoms: C_10  and  C_11
REMARK    6  A    between atoms: C_11  and  C_12
REMARK    7  A    between atoms: C_12  and  C_13
REMARK    8  A    between atoms: C_13  and  N_14
REMARK    9  A    between atoms: N_17  and  C_18
REMARK                            x       y       z     vdW  Elec       q    Type
REMARK                         _______ _______ _______ _____ _____    ______ ____
ROOT
ATOM      1  C   UNL     1      -0.207  10.859  22.153  0.00  0.00    +0.000 C 
ENDROOT
BRANCH   1   2
ATOM      2  C   UNL     1      -1.409  11.804  22.128  0.00  0.00    +0.000 C 
BRANCH   2   3
ATOM      3  O   UNL     1      -1.327  12.670  20.993  0.00  0.00    +0.000 OA
BRANCH   3   8
ATOM      4  C   UNL     1      -3.397  10.833  15.822  0.00  0.00    +0.000 A 
ATOM      5  C   UNL     1      -2.120  10.971  16.418  0.00  0.00    +0.000 A 
ATOM      6  C   UNL     1      -2.361  11.488  17.667  0.00  0.00    +0.000 A 
ATOM      7  C   UNL     1      -1.548  11.866  18.777  0.00  0.00    +0.000 A 
ATOM      8  C   UNL     1      -2.123  12.341  19.908  0.00  0.00    +0.000 A 
ATOM      9  C   UNL     1      -3.578  12.434  20.010  0.00  0.00    +0.000 A 
ATOM     10  C   UNL     1      -4.335  12.088  18.955  0.00  0.00    +0.000 A 
ATOM     11  N   UNL     1      -3.742  11.623  17.785  0.00  0.00    +0.000 N 
ATOM     12  N   UNL     1      -4.374  11.235  16.650  0.00  0.00    +0.000 NA
BRANCH   4  14
ATOM     13  N   UNL     1      -2.760   9.980  13.703  0.00  0.00    +0.000 NA
ATOM     14  C   UNL     1      -3.719  10.333  14.499  0.00  0.00    +0.000 C 
BRANCH  13  15
ATOM     15  O   UNL     1      -3.312   9.529  12.496  0.00  0.00    +0.000 OA
ATOM     16  H   UNL     1      -4.246   9.378  12.736  0.00  0.00    +0.000 HD
ENDBRANCH  13  15
ENDBRANCH   4  14
ENDBRANCH   3   8
ENDBRANCH   2   3
ENDBRANCH   1   2
BRANCH   1  17
ATOM     17  C   UNL     1      -0.594   9.503  21.551  0.00  0.00    +0.000 C 
BRANCH  17  18
ATOM     18  C   UNL     1      -0.010   9.237  20.155  0.00  0.00    +0.000 C 
BRANCH  18  19
ATOM     19  N   UNL     1       1.439   9.028  20.128  0.00  0.00    +0.000 NA
ATOM     20  C   UNL     1       1.896   7.805  20.822  0.00  0.00    +0.000 C 
ATOM     21  C   UNL     1       1.746   6.456  20.073  0.00  0.00    +0.000 C 
ATOM     22  N   UNL     1       2.241   6.548  18.692  0.00  0.00    +0.000 N 
ATOM     23  C   UNL     1       1.719   7.708  17.946  0.00  0.00    +0.000 C 
ATOM     24  C   UNL     1       1.963   9.013  18.742  0.00  0.00    +0.000 C 
BRANCH  22  25
ATOM     25  C   UNL     1       3.077   5.600  18.110  0.00  0.00    +0.000 A 
ATOM     26  C   UNL     1       4.186   6.052  17.355  0.00  0.00    +0.000 A 
ATOM     27  C   UNL     1       5.108   5.191  16.755  0.00  0.00    +0.000 A 
ATOM     28  C   UNL     1       4.975   3.822  16.915  0.00  0.00    +0.000 A 
ATOM     29  C   UNL     1       3.904   3.318  17.650  0.00  0.00    +0.000 A 
ATOM     30 CL   UNL     1       3.822   1.591  17.800  0.00  0.00    +0.000 Cl
ATOM     31  C   UNL     1       2.945   4.185  18.227  0.00  0.00    +0.000 A 
ATOM     32 CL   UNL     1       1.549   3.449  18.975  0.00  0.00    +0.000 Cl
ENDBRANCH  22  25
ENDBRANCH  18  19
ENDBRANCH  17  18
ENDBRANCH   1  17
TORSDOF 9
ENDMDL
