MODEL 1
REMARK VINA RESULT:      -8.8      0.000      0.000
REMARK  Name = 
REMARK  5 active torsions:
REMARK  status: ('A' for Active; 'I' for Inactive)
REMARK    1  A    between atoms: N_1  and  C_2
REMARK    2  A    between atoms: N_9  and  C_10
REMARK    3  A    between atoms: C_13  and  N_14
REMARK    4  A    between atoms: C_15  and  C_17
REMARK    5  A    between atoms: C_17  and  N_18
REMARK                            x       y       z     vdW  Elec       q    Type
REMARK                         _______ _______ _______ _____ _____    ______ ____
ROOT
ATOM      1  C   UNL     1       2.554   6.854  18.705  0.00  0.00    +0.000 A 
ATOM      2  C   UNL     1       2.225   7.917  17.861  0.00  0.00    +0.000 A 
ATOM      3  C   UNL     1       1.567   9.054  18.366  0.00  0.00    +0.000 A 
ATOM      4  C   UNL     1       1.217   9.149  19.716  0.00  0.00    +0.000 A 
ATOM      5  C   UNL     1       1.609   8.117  20.569  0.00  0.00    +0.000 A 
ATOM      6  C   UNL     1       2.296   6.996  20.071  0.00  0.00    +0.000 A 
ENDROOT
BRANCH   1  14
ATOM      7  C   UNL     1       1.857   3.671  19.320  0.00  0.00    +0.000 A 
ATOM      8  N   UNL     1       1.855   2.325  19.369  0.00  0.00    +0.000 NA
ATOM      9  C   UNL     1       2.723   1.637  18.617  0.00  0.00    +0.000 A 
ATOM     10  N   UNL     1       3.631   2.130  17.779  0.00  0.00    +0.000 NA
ATOM     11  C   UNL     1       3.637   3.476  17.734  0.00  0.00    +0.000 A 
ATOM     12  C   UNL     1       4.447   4.290  16.960  0.00  0.00    +0.000 A 
ATOM     13  C   UNL     1       4.110   5.589  17.213  0.00  0.00    +0.000 A 
ATOM     14  N   UNL     1       3.123   5.650  18.177  0.00  0.00    +0.000 N 
ATOM     15  C   UNL     1       2.797   4.307  18.497  0.00  0.00    +0.000 A 
ATOM     16  C   UNL     1       4.991   6.557  16.511  0.00  0.00    +0.000 C 
ATOM     17  C   UNL     1       6.151   5.611  16.034  0.00  0.00    +0.000 C 
ATOM     18  C   UNL     1       5.574   4.161  16.018  0.00  0.00    +0.000 C 
BRANCH   7  19
ATOM     19  N   UNL     1       0.882   4.267  20.101  0.00  0.00    +0.000 N 
ATOM     20  H   UNL     1       0.490   3.582  20.737  0.00  0.00    +0.000 HD
ATOM     21  H   UNL     1       0.203   4.816  19.590  0.00  0.00    +0.000 HD
ENDBRANCH   7  19
ENDBRANCH   1  14
BRANCH   4  22
ATOM     22  N   UNL     1       0.520  10.254  20.266  0.00  0.00    +0.000 N 
ATOM     23  C   UNL     1      -0.727  10.713  19.860  0.00  0.00    +0.000 C 
ATOM     24  O   UNL     1      -1.444  10.178  19.025  0.00  0.00    +0.000 OA
ATOM     25  H   UNL     1       0.946  10.715  21.061  0.00  0.00    +0.000 HD
BRANCH  23  26
ATOM     26  C   UNL     1      -1.204  11.994  20.565  0.00  0.00    +0.000 C 
BRANCH  26  27
ATOM     27  N   UNL     1      -0.618  12.138  21.919  0.00  0.00    +0.000 NA
ATOM     28  C   UNL     1      -1.446  11.437  22.935  0.00  0.00    +0.000 C 
ATOM     29  C   UNL     1      -2.779  12.135  23.272  0.00  0.00    +0.000 C 
ATOM     30  O   UNL     1      -2.579  13.497  23.667  0.00  0.00    +0.000 OA
ATOM     31  C   UNL     1      -1.864  14.224  22.659  0.00  0.00    +0.000 C 
ATOM     32  C   UNL     1      -0.513  13.556  22.353  0.00  0.00    +0.000 C 
ENDBRANCH  26  27
ENDBRANCH  23  26
ENDBRANCH   4  22
TORSDOF 5
ENDMDL
MODEL 2
REMARK VINA RESULT:      -8.6      1.135      2.865
REMARK  Name = 
REMARK  5 active torsions:
REMARK  status: ('A' for Active; 'I' for Inactive)
REMARK    1  A    between atoms: N_1  and  C_2
REMARK    2  A    between atoms: N_9  and  C_10
REMARK    3  A    between atoms: C_13  and  N_14
REMARK    4  A    between atoms: C_15  and  C_17
REMARK    5  A    between atoms: C_17  and  N_18
REMARK                            x       y       z     vdW  Elec       q    Type
REMARK                         _______ _______ _______ _____ _____    ______ ____
ROOT
ATOM      1  C   UNL     1       2.582   6.846  18.662  0.00  0.00    +0.000 A 
ATOM      2  C   UNL     1       2.309   7.930  17.824  0.00  0.00    +0.000 A 
ATOM      3  C   UNL     1       1.673   9.080  18.327  0.00  0.00    +0.000 A 
ATOM      4  C   UNL     1       1.291   9.169  19.668  0.00  0.00    +0.000 A 
ATOM      5  C   UNL     1       1.627   8.114  20.517  0.00  0.00    +0.000 A 
ATOM      6  C   UNL     1       2.293   6.979  20.022  0.00  0.00    +0.000 A 
ENDROOT
BRANCH   1  14
ATOM      7  C   UNL     1       5.290   6.304  16.827  0.00  0.00    +0.000 A 
ATOM      8  N   UNL     1       6.261   5.760  16.068  0.00  0.00    +0.000 NA
ATOM      9  C   UNL     1       6.256   4.441  15.840  0.00  0.00    +0.000 A 
ATOM     10  N   UNL     1       5.379   3.547  16.290  0.00  0.00    +0.000 NA
ATOM     11  C   UNL     1       4.405   4.092  17.043  0.00  0.00    +0.000 A 
ATOM     12  C   UNL     1       3.354   3.438  17.665  0.00  0.00    +0.000 A 
ATOM     13  C   UNL     1       2.613   4.368  18.337  0.00  0.00    +0.000 A 
ATOM     14  N   UNL     1       3.128   5.632  18.132  0.00  0.00    +0.000 N 
ATOM     15  C   UNL     1       4.285   5.465  17.329  0.00  0.00    +0.000 A 
ATOM     16  C   UNL     1       1.395   3.789  18.959  0.00  0.00    +0.000 C 
ATOM     17  C   UNL     1       1.347   2.381  18.263  0.00  0.00    +0.000 C 
ATOM     18  C   UNL     1       2.791   2.079  17.755  0.00  0.00    +0.000 C 
BRANCH   7  19
ATOM     19  N   UNL     1       5.430   7.666  17.035  0.00  0.00    +0.000 N 
ATOM     20  H   UNL     1       6.331   7.853  17.462  0.00  0.00    +0.000 HD
ATOM     21  H   UNL     1       4.642   8.112  17.482  0.00  0.00    +0.000 HD
ENDBRANCH   7  19
ENDBRANCH   1  14
BRANCH   4  22
ATOM     22  N   UNL     1       0.613  10.288  20.215  0.00  0.00    +0.000 N 
ATOM     23  C   UNL     1      -0.654  10.729  19.853  0.00  0.00    +0.000 C 
ATOM     24  O   UNL     1      -1.405  10.165  19.068  0.00  0.00    +0.000 OA
ATOM     25  H   UNL     1       1.072  10.775  20.975  0.00  0.00    +0.000 HD
BRANCH  23  26
ATOM     26  C   UNL     1      -1.105  12.029  20.538  0.00  0.00    +0.000 C 
BRANCH  26  27
ATOM     27  N   UNL     1      -0.526  12.176  21.895  0.00  0.00    +0.000 NA
ATOM     28  C   UNL     1      -1.359  11.478  22.908  0.00  0.00    +0.000 C 
ATOM     29  C   UNL     1      -2.694  12.177  23.237  0.00  0.00    +0.000 C 
ATOM     30  O   UNL     1      -2.494  13.540  23.630  0.00  0.00    +0.000 OA
ATOM     31  C   UNL     1      -1.774  14.265  22.624  0.00  0.00    +0.000 C 
ATOM     32  C   UNL     1      -0.422  13.595  22.326  0.00  0.00    +0.000 C 
ENDBRANCH  26  27
ENDBRANCH  23  26
ENDBRANCH   4  22
TORSDOF 5
ENDMDL
MODEL 3
REMARK VINA RESULT:      -8.4      0.994      1.160
REMARK  Name = 
REMARK  5 active torsions:
REMARK  status: ('A' for Active; 'I' for Inactive)
REMARK    1  A    between atoms: N_1  and  C_2
REMARK    2  A    between atoms: N_9  and  C_10
REMARK    3  A    between atoms: C_13  and  N_14
REMARK    4  A    between atoms: C_15  and  C_17
REMARK    5  A    between atoms: C_17  and  N_18
REMARK                            x       y       z     vdW  Elec       q    Type
REMARK                         _______ _______ _______ _____ _____    ______ ____
ROOT
ATOM      1  C   UNL     1       2.495   6.984  18.673  0.00  0.00    +0.000 A 
ATOM      2  C   UNL     1       2.106   7.978  17.773  0.00  0.00    +0.000 A 
ATOM      3  C   UNL     1       1.422   9.123  18.223  0.00  0.00    +0.000 A 
ATOM      4  C   UNL     1       1.107   9.294  19.574  0.00  0.00    +0.000 A 
ATOM      5  C   UNL     1       1.557   8.333  20.479  0.00  0.00    +0.000 A 
ATOM      6  C   UNL     1       2.270   7.206  20.034  0.00  0.00    +0.000 A 
ENDROOT
BRANCH   1  14
ATOM      7  C   UNL     1       1.858   3.821  19.433  0.00  0.00    +0.000 A 
ATOM      8  N   UNL     1       1.882   2.478  19.547  0.00  0.00    +0.000 NA
ATOM      9  C   UNL     1       2.769   1.774  18.833  0.00  0.00    +0.000 A 
ATOM     10  N   UNL     1       3.673   2.245  17.978  0.00  0.00    +0.000 NA
ATOM     11  C   UNL     1       3.653   3.587  17.870  0.00  0.00    +0.000 A 
ATOM     12  C   UNL     1       4.452   4.379  17.063  0.00  0.00    +0.000 A 
ATOM     13  C   UNL     1       4.087   5.682  17.252  0.00  0.00    +0.000 A 
ATOM     14  N   UNL     1       3.092   5.768  18.205  0.00  0.00    +0.000 N 
ATOM     15  C   UNL     1       2.791   4.436  18.587  0.00  0.00    +0.000 A 
ATOM     16  C   UNL     1       4.954   6.633  16.510  0.00  0.00    +0.000 C 
ATOM     17  C   UNL     1       6.136   5.689  16.086  0.00  0.00    +0.000 C 
ATOM     18  C   UNL     1       5.588   4.229  16.136  0.00  0.00    +0.000 C 
BRANCH   7  19
ATOM     19  N   UNL     1       0.865   4.433  20.179  0.00  0.00    +0.000 N 
ATOM     20  H   UNL     1      -0.027   3.992  19.984  0.00  0.00    +0.000 HD
ATOM     21  H   UNL     1       0.862   5.443  20.137  0.00  0.00    +0.000 HD
ENDBRANCH   7  19
ENDBRANCH   1  14
BRANCH   4  22
ATOM     22  N   UNL     1       0.386  10.409  20.072  0.00  0.00    +0.000 N 
ATOM     23  C   UNL     1       0.812  11.731  20.044  0.00  0.00    +0.000 C 
ATOM     24  O   UNL     1       1.835  12.138  19.509  0.00  0.00    +0.000 OA
ATOM     25  H   UNL     1      -0.544  10.230  20.429  0.00  0.00    +0.000 HD
BRANCH  23  26
ATOM     26  C   UNL     1      -0.128  12.726  20.745  0.00  0.00    +0.000 C 
BRANCH  26  27
ATOM     27  N   UNL     1      -1.263  12.047  21.414  0.00  0.00    +0.000 NA
ATOM     28  C   UNL     1      -2.561  12.632  20.988  0.00  0.00    +0.000 C 
ATOM     29  C   UNL     1      -2.858  14.030  21.567  0.00  0.00    +0.000 C 
ATOM     30  O   UNL     1      -2.769  14.041  22.996  0.00  0.00    +0.000 OA
ATOM     31  C   UNL     1      -1.488  13.570  23.434  0.00  0.00    +0.000 C 
ATOM     32  C   UNL     1      -1.207  12.157  22.896  0.00  0.00    +0.000 C 
ENDBRANCH  26  27
ENDBRANCH  23  26
ENDBRANCH   4  22
TORSDOF 5
ENDMDL
MODEL 4
REMARK VINA RESULT:      -8.3      1.039      1.378
REMARK  Name = 
REMARK  5 active torsions:
REMARK  status: ('A' for Active; 'I' for Inactive)
REMARK    1  A    between atoms: N_1  and  C_2
REMARK    2  A    between atoms: N_9  and  C_10
REMARK    3  A    between atoms: C_13  and  N_14
REMARK    4  A    between atoms: C_15  and  C_17
REMARK    5  A    between atoms: C_17  and  N_18
REMARK                            x       y       z     vdW  Elec       q    Type
REMARK                         _______ _______ _______ _____ _____    ______ ____
ROOT
ATOM      1  C   UNL     1       2.316   6.913  18.819  0.00  0.00    +0.000 A 
ATOM      2  C   UNL     1       2.058   7.088  20.181  0.00  0.00    +0.000 A 
ATOM      3  C   UNL     1       1.483   8.283  20.652  0.00  0.00    +0.000 A 
ATOM      4  C   UNL     1       1.163   9.326  19.779  0.00  0.00    +0.000 A 
ATOM      5  C   UNL     1       1.357   9.122  18.413  0.00  0.00    +0.000 A 
ATOM      6  C   UNL     1       1.901   7.914  17.938  0.00  0.00    +0.000 A 
ENDROOT
BRANCH   1  14
ATOM      7  C   UNL     1       1.781   3.696  19.415  0.00  0.00    +0.000 A 
ATOM      8  N   UNL     1       1.861   2.352  19.480  0.00  0.00    +0.000 NA
ATOM      9  C   UNL     1       2.827   1.718  18.804  0.00  0.00    +0.000 A 
ATOM     10  N   UNL     1       3.764   2.263  18.033  0.00  0.00    +0.000 NA
ATOM     11  C   UNL     1       3.687   3.607  17.973  0.00  0.00    +0.000 A 
ATOM     12  C   UNL     1       4.500   4.467  17.255  0.00  0.00    +0.000 A 
ATOM     13  C   UNL     1       4.062   5.743  17.467  0.00  0.00    +0.000 A 
ATOM     14  N   UNL     1       3.001   5.745  18.350  0.00  0.00    +0.000 N 
ATOM     15  C   UNL     1       2.738   4.386  18.660  0.00  0.00    +0.000 A 
ATOM     16  C   UNL     1       4.930   6.761  16.822  0.00  0.00    +0.000 C 
ATOM     17  C   UNL     1       6.183   5.889  16.448  0.00  0.00    +0.000 C 
ATOM     18  C   UNL     1       5.703   4.405  16.404  0.00  0.00    +0.000 C 
BRANCH   7  19
ATOM     19  N   UNL     1       0.711   4.232  20.112  0.00  0.00    +0.000 N 
ATOM     20  H   UNL     1      -0.085   4.327  19.491  0.00  0.00    +0.000 HD
ATOM     21  H   UNL     1       0.928   5.053  20.660  0.00  0.00    +0.000 HD
ENDBRANCH   7  19
ENDBRANCH   1  14
BRANCH   4  22
ATOM     22  N   UNL     1       0.618  10.564  20.207  0.00  0.00    +0.000 N 
ATOM     23  C   UNL     1       0.385  10.937  21.525  0.00  0.00    +0.000 C 
ATOM     24  O   UNL     1       0.693  10.285  22.514  0.00  0.00    +0.000 OA
ATOM     25  H   UNL     1       0.437  11.256  19.491  0.00  0.00    +0.000 HD
BRANCH  23  26
ATOM     26  C   UNL     1      -0.306  12.300  21.696  0.00  0.00    +0.000 C 
BRANCH  26  27
ATOM     27  N   UNL     1      -0.924  12.449  23.035  0.00  0.00    +0.000 NA
ATOM     28  C   UNL     1      -2.274  11.828  23.071  0.00  0.00    +0.000 C 
ATOM     29  C   UNL     1      -3.364  12.612  22.313  0.00  0.00    +0.000 C 
ATOM     30  O   UNL     1      -3.445  13.971  22.759  0.00  0.00    +0.000 OA
ATOM     31  C   UNL     1      -2.174  14.625  22.645  0.00  0.00    +0.000 C 
ATOM     32  C   UNL     1      -1.093  13.870  23.437  0.00  0.00    +0.000 C 
ENDBRANCH  26  27
ENDBRANCH  23  26
ENDBRANCH   4  22
TORSDOF 5
ENDMDL
MODEL 5
REMARK VINA RESULT:      -8.3      1.418      1.843
REMARK  Name = 
REMARK  5 active torsions:
REMARK  status: ('A' for Active; 'I' for Inactive)
REMARK    1  A    between atoms: N_1  and  C_2
REMARK    2  A    between atoms: N_9  and  C_10
REMARK    3  A    between atoms: C_13  and  N_14
REMARK    4  A    between atoms: C_15  and  C_17
REMARK    5  A    between atoms: C_17  and  N_18
REMARK                            x       y       z     vdW  Elec       q    Type
REMARK                         _______ _______ _______ _____ _____    ______ ____
ROOT
ATOM      1  C   UNL     1       2.563   6.859  18.699  0.00  0.00    +0.000 A 
ATOM      2  C   UNL     1       2.251   7.930  17.859  0.00  0.00    +0.000 A 
ATOM      3  C   UNL     1       1.600   9.070  18.365  0.00  0.00    +0.000 A 
ATOM      4  C   UNL     1       1.240   9.161  19.712  0.00  0.00    +0.000 A 
ATOM      5  C   UNL     1       1.614   8.120  20.562  0.00  0.00    +0.000 A 
ATOM      6  C   UNL     1       2.295   6.995  20.064  0.00  0.00    +0.000 A 
ENDROOT
BRANCH   1  14
ATOM      7  C   UNL     1       1.859   3.679  19.319  0.00  0.00    +0.000 A 
ATOM      8  N   UNL     1       1.852   2.333  19.370  0.00  0.00    +0.000 NA
ATOM      9  C   UNL     1       2.713   1.642  18.613  0.00  0.00    +0.000 A 
ATOM     10  N   UNL     1       3.619   2.131  17.769  0.00  0.00    +0.000 NA
ATOM     11  C   UNL     1       3.629   3.477  17.724  0.00  0.00    +0.000 A 
ATOM     12  C   UNL     1       4.437   4.288  16.945  0.00  0.00    +0.000 A 
ATOM     13  C   UNL     1       4.106   5.588  17.199  0.00  0.00    +0.000 A 
ATOM     14  N   UNL     1       3.125   5.653  18.168  0.00  0.00    +0.000 N 
ATOM     15  C   UNL     1       2.796   4.311  18.491  0.00  0.00    +0.000 A 
ATOM     16  C   UNL     1       4.986   6.552  16.491  0.00  0.00    +0.000 C 
ATOM     17  C   UNL     1       6.141   5.602  16.008  0.00  0.00    +0.000 C 
ATOM     18  C   UNL     1       5.558   4.154  15.997  0.00  0.00    +0.000 C 
BRANCH   7  19
ATOM     19  N   UNL     1       0.890   4.279  20.106  0.00  0.00    +0.000 N 
ATOM     20  H   UNL     1       0.751   5.237  19.802  0.00  0.00    +0.000 HD
ATOM     21  H   UNL     1       1.014   4.158  21.101  0.00  0.00    +0.000 HD
ENDBRANCH   7  19
ENDBRANCH   1  14
BRANCH   4  22
ATOM     22  N   UNL     1       0.549  10.270  20.263  0.00  0.00    +0.000 N 
ATOM     23  C   UNL     1      -0.693  10.738  19.854  0.00  0.00    +0.000 C 
ATOM     24  O   UNL     1      -1.411  10.211  19.014  0.00  0.00    +0.000 OA
ATOM     25  H   UNL     1       0.975  10.725  21.061  0.00  0.00    +0.000 HD
BRANCH  23  26
ATOM     26  C   UNL     1      -1.164  12.021  20.561  0.00  0.00    +0.000 C 
BRANCH  26  27
ATOM     27  N   UNL     1      -1.381  13.136  19.609  0.00  0.00    +0.000 NA
ATOM     28  C   UNL     1      -0.169  13.375  18.783  0.00  0.00    +0.000 C 
ATOM     29  C   UNL     1       1.001  14.043  19.534  0.00  0.00    +0.000 C 
ATOM     30  O   UNL     1       0.597  15.264  20.165  0.00  0.00    +0.000 OA
ATOM     31  C   UNL     1      -0.514  15.044  21.045  0.00  0.00    +0.000 C 
ATOM     32  C   UNL     1      -1.699  14.420  20.288  0.00  0.00    +0.000 C 
ENDBRANCH  26  27
ENDBRANCH  23  26
ENDBRANCH   4  22
TORSDOF 5
ENDMDL
MODEL 6
REMARK VINA RESULT:      -8.3      0.744      1.398
REMARK  Name = 
REMARK  5 active torsions:
REMARK  status: ('A' for Active; 'I' for Inactive)
REMARK    1  A    between atoms: N_1  and  C_2
REMARK    2  A    between atoms: N_9  and  C_10
REMARK    3  A    between atoms: C_13  and  N_14
REMARK    4  A    between atoms: C_15  and  C_17
REMARK    5  A    between atoms: C_17  and  N_18
REMARK                            x       y       z     vdW  Elec       q    Type
REMARK                         _______ _______ _______ _____ _____    ______ ____
ROOT
ATOM      1  C   UNL     1       2.546   6.820  18.687  0.00  0.00    +0.000 A 
ATOM      2  C   UNL     1       2.218   6.955  20.038  0.00  0.00    +0.000 A 
ATOM      3  C   UNL     1       1.602   8.130  20.510  0.00  0.00    +0.000 A 
ATOM      4  C   UNL     1       1.310   9.191  19.649  0.00  0.00    +0.000 A 
ATOM      5  C   UNL     1       1.576   9.025  18.290  0.00  0.00    +0.000 A 
ATOM      6  C   UNL     1       2.161   7.838  17.812  0.00  0.00    +0.000 A 
ENDROOT
BRANCH   1  14
ATOM      7  C   UNL     1       1.996   3.579  19.123  0.00  0.00    +0.000 A 
ATOM      8  N   UNL     1       2.083   2.235  19.144  0.00  0.00    +0.000 NA
ATOM      9  C   UNL     1       3.098   1.632  18.513  0.00  0.00    +0.000 A 
ATOM     10  N   UNL     1       4.082   2.211  17.830  0.00  0.00    +0.000 NA
ATOM     11  C   UNL     1       3.998   3.555  17.816  0.00  0.00    +0.000 A 
ATOM     12  C   UNL     1       4.853   4.446  17.188  0.00  0.00    +0.000 A 
ATOM     13  C   UNL     1       4.391   5.711  17.416  0.00  0.00    +0.000 A 
ATOM     14  N   UNL     1       3.271   5.675  18.223  0.00  0.00    +0.000 N 
ATOM     15  C   UNL     1       2.998   4.303  18.463  0.00  0.00    +0.000 A 
ATOM     16  C   UNL     1       5.293   6.758  16.873  0.00  0.00    +0.000 C 
ATOM     17  C   UNL     1       6.576   5.907  16.553  0.00  0.00    +0.000 C 
ATOM     18  C   UNL     1       6.112   4.423  16.421  0.00  0.00    +0.000 C 
BRANCH   7  19
ATOM     19  N   UNL     1       0.877   4.084  19.764  0.00  0.00    +0.000 N 
ATOM     20  H   UNL     1       0.708   3.560  20.616  0.00  0.00    +0.000 HD
ATOM     21  H   UNL     1       0.068   4.211  19.171  0.00  0.00    +0.000 HD
ENDBRANCH   7  19
ENDBRANCH   1  14
BRANCH   4  22
ATOM     22  N   UNL     1       0.727  10.409  20.081  0.00  0.00    +0.000 N 
ATOM     23  C   UNL     1      -0.536  10.874  19.734  0.00  0.00    +0.000 C 
ATOM     24  O   UNL     1      -1.363  10.260  19.072  0.00  0.00    +0.000 OA
ATOM     25  H   UNL     1       1.257  10.961  20.745  0.00  0.00    +0.000 HD
BRANCH  23  26
ATOM     26  C   UNL     1      -0.876  12.276  20.268  0.00  0.00    +0.000 C 
BRANCH  26  27
ATOM     27  N   UNL     1      -2.104  12.275  21.098  0.00  0.00    +0.000 NA
ATOM     28  C   UNL     1      -2.873  13.533  20.913  0.00  0.00    +0.000 C 
ATOM     29  C   UNL     1      -2.244  14.775  21.575  0.00  0.00    +0.000 C 
ATOM     30  O   UNL     1      -1.992  14.562  22.969  0.00  0.00    +0.000 OA
ATOM     31  C   UNL     1      -1.170  13.406  23.171  0.00  0.00    +0.000 C 
ATOM     32  C   UNL     1      -1.817  12.156  22.551  0.00  0.00    +0.000 C 
ENDBRANCH  26  27
ENDBRANCH  23  26
ENDBRANCH   4  22
TORSDOF 5
ENDMDL
MODEL 7
REMARK VINA RESULT:      -8.2      0.958      1.169
REMARK  Name = 
REMARK  5 active torsions:
REMARK  status: ('A' for Active; 'I' for Inactive)
REMARK    1  A    between atoms: N_1  and  C_2
REMARK    2  A    between atoms: N_9  and  C_10
REMARK    3  A    between atoms: C_13  and  N_14
REMARK    4  A    between atoms: C_15  and  C_17
REMARK    5  A    between atoms: C_17  and  N_18
REMARK                            x       y       z     vdW  Elec       q    Type
REMARK                         _______ _______ _______ _____ _____    ______ ____
ROOT
ATOM      1  C   UNL     1       2.558   6.911  18.617  0.00  0.00    +0.000 A 
ATOM      2  C   UNL     1       2.234   7.941  17.731  0.00  0.00    +0.000 A 
ATOM      3  C   UNL     1       1.559   9.089  18.186  0.00  0.00    +0.000 A 
ATOM      4  C   UNL     1       1.189   9.229  19.526  0.00  0.00    +0.000 A 
ATOM      5  C   UNL     1       1.575   8.231  20.421  0.00  0.00    +0.000 A 
ATOM      6  C   UNL     1       2.279   7.098  19.973  0.00  0.00    +0.000 A 
ENDROOT
BRANCH   1  14
ATOM      7  C   UNL     1       1.874   3.746  19.329  0.00  0.00    +0.000 A 
ATOM      8  N   UNL     1       1.880   2.402  19.425  0.00  0.00    +0.000 NA
ATOM      9  C   UNL     1       2.765   1.695  18.711  0.00  0.00    +0.000 A 
ATOM     10  N   UNL     1       3.684   2.166  17.871  0.00  0.00    +0.000 NA
ATOM     11  C   UNL     1       3.681   3.510  17.780  0.00  0.00    +0.000 A 
ATOM     12  C   UNL     1       4.498   4.303  16.992  0.00  0.00    +0.000 A 
ATOM     13  C   UNL     1       4.148   5.608  17.195  0.00  0.00    +0.000 A 
ATOM     14  N   UNL     1       3.145   5.694  18.139  0.00  0.00    +0.000 N 
ATOM     15  C   UNL     1       2.823   4.360  18.501  0.00  0.00    +0.000 A 
ATOM     16  C   UNL     1       5.033   6.557  16.474  0.00  0.00    +0.000 C 
ATOM     17  C   UNL     1       6.208   5.604  16.049  0.00  0.00    +0.000 C 
ATOM     18  C   UNL     1       5.642   4.151  16.074  0.00  0.00    +0.000 C 
BRANCH   7  19
ATOM     19  N   UNL     1       0.881   4.361  20.073  0.00  0.00    +0.000 N 
ATOM     20  H   UNL     1       1.299   5.034  20.706  0.00  0.00    +0.000 HD
ATOM     21  H   UNL     1       0.213   3.731  20.496  0.00  0.00    +0.000 HD
ENDBRANCH   7  19
ENDBRANCH   1  14
BRANCH   4  22
ATOM     22  N   UNL     1       0.475  10.347  20.027  0.00  0.00    +0.000 N 
ATOM     23  C   UNL     1      -0.796  10.745  19.630  0.00  0.00    +0.000 C 
ATOM     24  O   UNL     1      -1.519  10.139  18.850  0.00  0.00    +0.000 OA
ATOM     25  H   UNL     1       0.908  10.868  20.779  0.00  0.00    +0.000 HD
BRANCH  23  26
ATOM     26  C   UNL     1      -1.291  12.054  20.267  0.00  0.00    +0.000 C 
BRANCH  26  27
ATOM     27  N   UNL     1      -0.174  12.970  20.601  0.00  0.00    +0.000 NA
ATOM     28  C   UNL     1      -0.182  13.316  22.046  0.00  0.00    +0.000 C 
ATOM     29  C   UNL     1      -1.305  14.285  22.469  0.00  0.00    +0.000 C 
ATOM     30  O   UNL     1      -1.294  15.484  21.685  0.00  0.00    +0.000 OA
ATOM     31  C   UNL     1      -1.383  15.182  20.286  0.00  0.00    +0.000 C 
ATOM     32  C   UNL     1      -0.238  14.252  19.850  0.00  0.00    +0.000 C 
ENDBRANCH  26  27
ENDBRANCH  23  26
ENDBRANCH   4  22
TORSDOF 5
ENDMDL
MODEL 8
REMARK VINA RESULT:      -8.2      1.512      1.906
REMARK  Name = 
REMARK  5 active torsions:
REMARK  status: ('A' for Active; 'I' for Inactive)
REMARK    1  A    between atoms: N_1  and  C_2
REMARK    2  A    between atoms: N_9  and  C_10
REMARK    3  A    between atoms: C_13  and  N_14
REMARK    4  A    between atoms: C_15  and  C_17
REMARK    5  A    between atoms: C_17  and  N_18
REMARK                            x       y       z     vdW  Elec       q    Type
REMARK                         _______ _______ _______ _____ _____    ______ ____
ROOT
ATOM      1  C   UNL     1       2.666   7.121  19.019  0.00  0.00    +0.000 A 
ATOM      2  C   UNL     1       2.094   7.453  20.250  0.00  0.00    +0.000 A 
ATOM      3  C   UNL     1       1.279   8.594  20.375  0.00  0.00    +0.000 A 
ATOM      4  C   UNL     1       1.026   9.427  19.283  0.00  0.00    +0.000 A 
ATOM      5  C   UNL     1       1.542   9.056  18.041  0.00  0.00    +0.000 A 
ATOM      6  C   UNL     1       2.328   7.897  17.908  0.00  0.00    +0.000 A 
ENDROOT
BRANCH   1  14
ATOM      7  C   UNL     1       2.561   4.068  20.306  0.00  0.00    +0.000 A 
ATOM      8  N   UNL     1       2.841   2.809  20.696  0.00  0.00    +0.000 NA
ATOM      9  C   UNL     1       3.978   2.231  20.291  0.00  0.00    +0.000 A 
ATOM     10  N   UNL     1       4.917   2.759  19.509  0.00  0.00    +0.000 NA
ATOM     11  C   UNL     1       4.640   4.020  19.124  0.00  0.00    +0.000 A 
ATOM     12  C   UNL     1       5.402   4.838  18.307  0.00  0.00    +0.000 A 
ATOM     13  C   UNL     1       4.744   6.027  18.164  0.00  0.00    +0.000 A 
ATOM     14  N   UNL     1       3.583   6.026  18.912  0.00  0.00    +0.000 N 
ATOM     15  C   UNL     1       3.495   4.742  19.508  0.00  0.00    +0.000 A 
ATOM     16  C   UNL     1       5.524   7.023  17.386  0.00  0.00    +0.000 C 
ATOM     17  C   UNL     1       6.937   6.336  17.356  0.00  0.00    +0.000 C 
ATOM     18  C   UNL     1       6.706   4.816  17.619  0.00  0.00    +0.000 C 
BRANCH   7  19
ATOM     19  N   UNL     1       1.335   4.537  20.745  0.00  0.00    +0.000 N 
ATOM     20  H   UNL     1       1.421   5.509  21.018  0.00  0.00    +0.000 HD
ATOM     21  H   UNL     1       0.867   3.943  21.416  0.00  0.00    +0.000 HD
ENDBRANCH   7  19
ENDBRANCH   1  14
BRANCH   4  22
ATOM     22  N   UNL     1       0.245  10.607  19.366  0.00  0.00    +0.000 N 
ATOM     23  C   UNL     1       0.475  11.677  20.223  0.00  0.00    +0.000 C 
ATOM     24  O   UNL     1       1.436  11.793  20.973  0.00  0.00    +0.000 OA
ATOM     25  H   UNL     1      -0.514  10.702  18.702  0.00  0.00    +0.000 HD
BRANCH  23  26
ATOM     26  C   UNL     1      -0.588  12.786  20.170  0.00  0.00    +0.000 C 
BRANCH  26  27
ATOM     27  N   UNL     1      -1.860  12.372  20.811  0.00  0.00    +0.000 NA
ATOM     28  C   UNL     1      -2.864  13.466  20.757  0.00  0.00    +0.000 C 
ATOM     29  C   UNL     1      -2.588  14.642  21.715  0.00  0.00    +0.000 C 
ATOM     30  O   UNL     1      -2.430  14.197  23.067  0.00  0.00    +0.000 OA
ATOM     31  C   UNL     1      -1.396  13.207  23.164  0.00  0.00    +0.000 C 
ATOM     32  C   UNL     1      -1.692  12.012  22.243  0.00  0.00    +0.000 C 
ENDBRANCH  26  27
ENDBRANCH  23  26
ENDBRANCH   4  22
TORSDOF 5
ENDMDL
MODEL 9
REMARK VINA RESULT:      -8.2      1.371      1.607
REMARK  Name = 
REMARK  5 active torsions:
REMARK  status: ('A' for Active; 'I' for Inactive)
REMARK    1  A    between atoms: N_1  and  C_2
REMARK    2  A    between atoms: N_9  and  C_10
REMARK    3  A    between atoms: C_13  and  N_14
REMARK    4  A    between atoms: C_15  and  C_17
REMARK    5  A    between atoms: C_17  and  N_18
REMARK                            x       y       z     vdW  Elec       q    Type
REMARK                         _______ _______ _______ _____ _____    ______ ____
ROOT
ATOM      1  C   UNL     1       2.580   6.833  18.675  0.00  0.00    +0.000 A 
ATOM      2  C   UNL     1       2.244   7.878  17.811  0.00  0.00    +0.000 A 
ATOM      3  C   UNL     1       1.534   8.997  18.285  0.00  0.00    +0.000 A 
ATOM      4  C   UNL     1       1.140   9.092  19.622  0.00  0.00    +0.000 A 
ATOM      5  C   UNL     1       1.537   8.081  20.496  0.00  0.00    +0.000 A 
ATOM      6  C   UNL     1       2.275   6.978  20.030  0.00  0.00    +0.000 A 
ENDROOT
BRANCH   1  14
ATOM      7  C   UNL     1       1.935   3.634  19.258  0.00  0.00    +0.000 A 
ATOM      8  N   UNL     1       1.964   2.288  19.309  0.00  0.00    +0.000 NA
ATOM      9  C   UNL     1       2.884   1.622  18.600  0.00  0.00    +0.000 A 
ATOM     10  N   UNL     1       3.819   2.138  17.806  0.00  0.00    +0.000 NA
ATOM     11  C   UNL     1       3.793   3.484  17.760  0.00  0.00    +0.000 A 
ATOM     12  C   UNL     1       4.619   4.318  17.025  0.00  0.00    +0.000 A 
ATOM     13  C   UNL     1       4.238   5.608  17.261  0.00  0.00    +0.000 A 
ATOM     14  N   UNL     1       3.204   5.644  18.175  0.00  0.00    +0.000 N 
ATOM     15  C   UNL     1       2.897   4.293  18.481  0.00  0.00    +0.000 A 
ATOM     16  C   UNL     1       5.126   6.598  16.600  0.00  0.00    +0.000 C 
ATOM     17  C   UNL     1       6.332   5.681  16.181  0.00  0.00    +0.000 C 
ATOM     18  C   UNL     1       5.793   4.217  16.138  0.00  0.00    +0.000 C 
BRANCH   7  19
ATOM     19  N   UNL     1       0.908   4.205  19.991  0.00  0.00    +0.000 N 
ATOM     20  H   UNL     1       0.259   4.666  19.363  0.00  0.00    +0.000 HD
ATOM     21  H   UNL     1       1.206   4.759  20.782  0.00  0.00    +0.000 HD
ENDBRANCH   7  19
ENDBRANCH   1  14
BRANCH   4  22
ATOM     22  N   UNL     1       0.390  10.179  20.139  0.00  0.00    +0.000 N 
ATOM     23  C   UNL     1       0.455  10.666  21.439  0.00  0.00    +0.000 C 
ATOM     24  O   UNL     1       1.230  10.281  22.305  0.00  0.00    +0.000 OA
ATOM     25  H   UNL     1      -0.203  10.678  19.487  0.00  0.00    +0.000 HD
BRANCH  23  26
ATOM     26  C   UNL     1      -0.542  11.792  21.756  0.00  0.00    +0.000 C 
BRANCH  26  27
ATOM     27  N   UNL     1       0.140  13.057  22.121  0.00  0.00    +0.000 NA
ATOM     28  C   UNL     1      -0.836  14.071  22.598  0.00  0.00    +0.000 C 
ATOM     29  C   UNL     1      -1.716  14.688  21.492  0.00  0.00    +0.000 C 
ATOM     30  O   UNL     1      -0.925  15.238  20.431  0.00  0.00    +0.000 OA
ATOM     31  C   UNL     1      -0.039  14.251  19.886  0.00  0.00    +0.000 C 
ATOM     32  C   UNL     1       0.872  13.666  20.980  0.00  0.00    +0.000 C 
ENDBRANCH  26  27
ENDBRANCH  23  26
ENDBRANCH   4  22
TORSDOF 5
ENDMDL
