MODEL 1
REMARK VINA RESULT:      -6.9      0.000      0.000
REMARK  Name = 
REMARK  3 active torsions:
REMARK  status: ('A' for Active; 'I' for Inactive)
REMARK    1  A    between atoms: C_2  and  C_3
REMARK    2  A    between atoms: C_15  and  C_16
REMARK    3  A    between atoms: C_17  and  O_18
REMARK                            x       y       z     vdW  Elec       q    Type
REMARK                         _______ _______ _______ _____ _____    ______ ____
ROOT
ATOM      1  C   UNL     1       5.275   5.437  17.081  0.00  0.00    +0.000 C 
ATOM      2  O   UNL     1       5.590   4.371  17.606  0.00  0.00    +0.000 OA
ATOM      3  N   UNL     1       4.315   6.302  17.595  0.00  0.00    +0.000 N 
ATOM      4  C   UNL     1       3.697   7.415  16.858  0.00  0.00    +0.000 C 
ATOM      5  C   UNL     1       2.746   8.379  17.662  0.00  0.00    +0.000 C 
ATOM      6  N   UNL     1       2.055   7.784  18.829  0.00  0.00    +0.000 N 
ATOM      7  C   UNL     1       1.468   8.632  19.837  0.00  0.00    +0.000 A 
ATOM      8  C   UNL     1       1.055   8.022  21.075  0.00  0.00    +0.000 A 
ATOM      9  C   UNL     1       0.523   8.819  22.079  0.00  0.00    +0.000 A 
ATOM     10  N   UNL     1       0.650  10.135  22.096  0.00  0.00    +0.000 NA
ATOM     11  C   UNL     1       1.138  10.676  20.979  0.00  0.00    +0.000 A 
ATOM     12  C   UNL     1       1.330  12.019  21.017  0.00  0.00    +0.000 A 
ATOM     13  C   UNL     1       0.253  12.627  20.436  0.00  0.00    +0.000 A 
ATOM     14  C   UNL     1       0.191  12.232  19.090  0.00  0.00    +0.000 A 
ATOM     15 CL   UNL     1      -0.631  13.182  17.914  0.00  0.00    +0.000 Cl
ATOM     16  C   UNL     1       0.800  10.985  18.695  0.00  0.00    +0.000 A 
ATOM     17  C   UNL     1       1.193  10.055  19.745  0.00  0.00    +0.000 A 
ATOM     18  N   UNL     1       1.325   6.704  21.455  0.00  0.00    +0.000 N 
ATOM     19  C   UNL     1       1.937   5.878  20.458  0.00  0.00    +0.000 C 
ATOM     20  C   UNL     1       2.839   6.707  19.534  0.00  0.00    +0.000 C 
ATOM     21  C   UNL     1       3.450   5.694  18.577  0.00  0.00    +0.000 C 
ATOM     22  H   UNL     1       0.622   6.270  22.046  0.00  0.00    +0.000 HD
ENDROOT
BRANCH  13  23
ATOM     23  C   UNL     1      -0.780  13.163  21.397  0.00  0.00    +0.000 A 
ATOM     24  C   UNL     1      -0.625  14.215  22.316  0.00  0.00    +0.000 A 
ATOM     25  C   UNL     1      -1.720  14.768  23.015  0.00  0.00    +0.000 A 
ATOM     26  C   UNL     1      -3.022  14.324  22.803  0.00  0.00    +0.000 A 
ATOM     27  C   UNL     1      -3.231  13.303  21.898  0.00  0.00    +0.000 A 
ATOM     28  C   UNL     1      -2.138  12.729  21.242  0.00  0.00    +0.000 A 
ATOM     29  F   UNL     1      -2.451  11.740  20.384  0.00  0.00    +0.000 F 
BRANCH  24  30
ATOM     30  O   UNL     1       0.553  14.858  22.583  0.00  0.00    +0.000 OA
ATOM     31  H   UNL     1       0.368  15.775  22.832  0.00  0.00    +0.000 HD
ENDBRANCH  24  30
ENDBRANCH  13  23
BRANCH   1  33
ATOM     32  C   UNL     1       5.951   4.877  14.825  0.00  0.00    +0.000 C 
ATOM     33  C   UNL     1       5.888   5.809  15.786  0.00  0.00    +0.000 C 
ENDBRANCH   1  33
TORSDOF 3
ENDMDL
MODEL 2
REMARK VINA RESULT:      -6.7      1.279      1.535
REMARK  Name = 
REMARK  3 active torsions:
REMARK  status: ('A' for Active; 'I' for Inactive)
REMARK    1  A    between atoms: C_2  and  C_3
REMARK    2  A    between atoms: C_15  and  C_16
REMARK    3  A    between atoms: C_17  and  O_18
REMARK                            x       y       z     vdW  Elec       q    Type
REMARK                         _______ _______ _______ _____ _____    ______ ____
ROOT
ATOM      1  C   UNL     1       5.050   5.455  17.182  0.00  0.00    +0.000 C 
ATOM      2  O   UNL     1       5.323   4.384  17.720  0.00  0.00    +0.000 OA
ATOM      3  N   UNL     1       4.119   6.359  17.682  0.00  0.00    +0.000 N 
ATOM      4  C   UNL     1       3.546   7.486  16.930  0.00  0.00    +0.000 C 
ATOM      5  C   UNL     1       2.626   8.491  17.719  0.00  0.00    +0.000 C 
ATOM      6  N   UNL     1       1.907   7.934  18.887  0.00  0.00    +0.000 N 
ATOM      7  C   UNL     1       1.346   8.814  19.883  0.00  0.00    +0.000 A 
ATOM      8  C   UNL     1       0.904   8.232  21.125  0.00  0.00    +0.000 A 
ATOM      9  C   UNL     1       0.397   9.058  22.118  0.00  0.00    +0.000 A 
ATOM     10  N   UNL     1       0.571  10.369  22.122  0.00  0.00    +0.000 NA
ATOM     11  C   UNL     1       1.084  10.880  21.003  0.00  0.00    +0.000 A 
ATOM     12  C   UNL     1       1.324  12.216  21.028  0.00  0.00    +0.000 A 
ATOM     13  C   UNL     1       0.273  12.856  20.435  0.00  0.00    +0.000 A 
ATOM     14  C   UNL     1       0.205  12.449  19.092  0.00  0.00    +0.000 A 
ATOM     15 CL   UNL     1      -0.576  13.417  17.902  0.00  0.00    +0.000 Cl
ATOM     16  C   UNL     1       0.770  11.177  18.713  0.00  0.00    +0.000 A 
ATOM     17  C   UNL     1       1.123  10.245  19.775  0.00  0.00    +0.000 A 
ATOM     18  N   UNL     1       1.125   6.909  21.520  0.00  0.00    +0.000 N 
ATOM     19  C   UNL     1       1.712   6.051  20.535  0.00  0.00    +0.000 C 
ATOM     20  C   UNL     1       2.648   6.837  19.608  0.00  0.00    +0.000 C 
ATOM     21  C   UNL     1       3.228   5.793  18.665  0.00  0.00    +0.000 C 
ATOM     22  H   UNL     1       0.403   6.506  22.111  0.00  0.00    +0.000 HD
ENDROOT
BRANCH  13  23
ATOM     23  C   UNL     1      -0.745  13.438  21.384  0.00  0.00    +0.000 A 
ATOM     24  C   UNL     1      -2.088  13.054  21.535  0.00  0.00    +0.000 A 
ATOM     25  C   UNL     1      -2.889  13.524  22.598  0.00  0.00    +0.000 A 
ATOM     26  C   UNL     1      -2.377  14.367  23.580  0.00  0.00    +0.000 A 
ATOM     27  C   UNL     1      -1.058  14.761  23.488  0.00  0.00    +0.000 A 
ATOM     28  C   UNL     1      -0.283  14.329  22.409  0.00  0.00    +0.000 A 
ATOM     29  F   UNL     1       0.988  14.772  22.413  0.00  0.00    +0.000 F 
BRANCH  24  30
ATOM     30  O   UNL     1      -2.742  12.154  20.738  0.00  0.00    +0.000 OA
ATOM     31  H   UNL     1      -2.777  11.296  21.186  0.00  0.00    +0.000 HD
ENDBRANCH  24  30
ENDBRANCH  13  23
BRANCH   1  33
ATOM     32  C   UNL     1       5.664   4.868  14.915  0.00  0.00    +0.000 C 
ATOM     33  C   UNL     1       5.683   5.790  15.888  0.00  0.00    +0.000 C 
ENDBRANCH   1  33
TORSDOF 3
ENDMDL
MODEL 3
REMARK VINA RESULT:      -6.7      2.720      4.306
REMARK  Name = 
REMARK  3 active torsions:
REMARK  status: ('A' for Active; 'I' for Inactive)
REMARK    1  A    between atoms: C_2  and  C_3
REMARK    2  A    between atoms: C_15  and  C_16
REMARK    3  A    between atoms: C_17  and  O_18
REMARK                            x       y       z     vdW  Elec       q    Type
REMARK                         _______ _______ _______ _____ _____    ______ ____
ROOT
ATOM      1  C   UNL     1       2.199   5.674  19.781  0.00  0.00    +0.000 C 
ATOM      2  O   UNL     1       2.925   5.381  18.832  0.00  0.00    +0.000 OA
ATOM      3  N   UNL     1       1.678   6.945  19.995  0.00  0.00    +0.000 N 
ATOM      4  C   UNL     1       1.072   7.411  21.251  0.00  0.00    +0.000 C 
ATOM      5  C   UNL     1       0.396   8.833  21.248  0.00  0.00    +0.000 C 
ATOM      6  N   UNL     1       0.943   9.809  20.280  0.00  0.00    +0.000 N 
ATOM      7  C   UNL     1       0.187  10.987  19.928  0.00  0.00    +0.000 A 
ATOM      8  C   UNL     1       0.627  11.756  18.792  0.00  0.00    +0.000 A 
ATOM      9  C   UNL     1      -0.103  12.872  18.405  0.00  0.00    +0.000 A 
ATOM     10  N   UNL     1      -1.338  13.101  18.818  0.00  0.00    +0.000 NA
ATOM     11  C   UNL     1      -1.770  12.307  19.797  0.00  0.00    +0.000 A 
ATOM     12  C   UNL     1      -3.059  12.499  20.178  0.00  0.00    +0.000 A 
ATOM     13  C   UNL     1      -3.069  13.300  21.285  0.00  0.00    +0.000 A 
ATOM     14  C   UNL     1      -2.401  12.632  22.324  0.00  0.00    +0.000 A 
ATOM     15 CL   UNL     1      -2.689  13.029  23.973  0.00  0.00    +0.000 Cl
ATOM     16  C   UNL     1      -1.427  11.619  21.996  0.00  0.00    +0.000 A 
ATOM     17  C   UNL     1      -0.967  11.536  20.617  0.00  0.00    +0.000 A 
ATOM     18  N   UNL     1       1.627  11.370  17.894  0.00  0.00    +0.000 N 
ATOM     19  C   UNL     1       2.350  10.183  18.235  0.00  0.00    +0.000 C 
ATOM     20  C   UNL     1       1.460   9.197  19.003  0.00  0.00    +0.000 C 
ATOM     21  C   UNL     1       2.343   7.982  19.242  0.00  0.00    +0.000 C 
ATOM     22  H   UNL     1       2.158  12.132  17.482  0.00  0.00    +0.000 HD
ENDROOT
BRANCH  13  23
ATOM     23  C   UNL     1      -3.363  14.756  21.021  0.00  0.00    +0.000 A 
ATOM     24  C   UNL     1      -2.439  15.773  20.729  0.00  0.00    +0.000 A 
ATOM     25  C   UNL     1      -2.844  17.055  20.294  0.00  0.00    +0.000 A 
ATOM     26  C   UNL     1      -4.185  17.367  20.095  0.00  0.00    +0.000 A 
ATOM     27  C   UNL     1      -5.134  16.398  20.352  0.00  0.00    +0.000 A 
ATOM     28  C   UNL     1      -4.729  15.146  20.825  0.00  0.00    +0.000 A 
ATOM     29  F   UNL     1      -5.732  14.276  21.046  0.00  0.00    +0.000 F 
BRANCH  24  30
ATOM     30  O   UNL     1      -1.078  15.631  20.759  0.00  0.00    +0.000 OA
ATOM     31  H   UNL     1      -0.804  15.018  20.062  0.00  0.00    +0.000 HD
ENDBRANCH  24  30
ENDBRANCH  13  23
BRANCH   1  33
ATOM     32  C   UNL     1       1.040   3.675  20.504  0.00  0.00    +0.000 C 
ATOM     33  C   UNL     1       1.910   4.649  20.808  0.00  0.00    +0.000 C 
ENDBRANCH   1  33
TORSDOF 3
ENDMDL
MODEL 4
REMARK VINA RESULT:      -6.7      3.292      8.721
REMARK  Name = 
REMARK  3 active torsions:
REMARK  status: ('A' for Active; 'I' for Inactive)
REMARK    1  A    between atoms: C_2  and  C_3
REMARK    2  A    between atoms: C_15  and  C_16
REMARK    3  A    between atoms: C_17  and  O_18
REMARK                            x       y       z     vdW  Elec       q    Type
REMARK                         _______ _______ _______ _____ _____    ______ ____
ROOT
ATOM      1  C   UNL     1      -0.694  13.825  19.459  0.00  0.00    +0.000 C 
ATOM      2  O   UNL     1      -1.459  14.166  20.359  0.00  0.00    +0.000 OA
ATOM      3  N   UNL     1       0.015  12.628  19.455  0.00  0.00    +0.000 N 
ATOM      4  C   UNL     1       1.150  12.320  18.573  0.00  0.00    +0.000 C 
ATOM      5  C   UNL     1       1.722  10.853  18.610  0.00  0.00    +0.000 C 
ATOM      6  N   UNL     1       1.553  10.123  19.887  0.00  0.00    +0.000 N 
ATOM      7  C   UNL     1       1.692   8.688  19.929  0.00  0.00    +0.000 A 
ATOM      8  C   UNL     1       1.254   8.002  21.118  0.00  0.00    +0.000 A 
ATOM      9  C   UNL     1       1.339   6.618  21.171  0.00  0.00    +0.000 A 
ATOM     10  N   UNL     1       1.509   5.865  20.098  0.00  0.00    +0.000 NA
ATOM     11  C   UNL     1       1.808   6.526  18.980  0.00  0.00    +0.000 A 
ATOM     12  C   UNL     1       1.920   5.762  17.863  0.00  0.00    +0.000 A 
ATOM     13  C   UNL     1       3.243   5.493  17.653  0.00  0.00    +0.000 A 
ATOM     14  C   UNL     1       3.912   6.705  17.422  0.00  0.00    +0.000 A 
ATOM     15 CL   UNL     1       5.410   6.754  16.576  0.00  0.00    +0.000 Cl
ATOM     16  C   UNL     1       3.348   7.929  17.938  0.00  0.00    +0.000 A 
ATOM     17  C   UNL     1       2.274   7.826  18.916  0.00  0.00    +0.000 A 
ATOM     18  N   UNL     1       0.547   8.588  22.173  0.00  0.00    +0.000 N 
ATOM     19  C   UNL     1       0.386  10.008  22.107  0.00  0.00    +0.000 C 
ATOM     20  C   UNL     1       0.305  10.486  20.651  0.00  0.00    +0.000 C 
ATOM     21  C   UNL     1       0.083  11.988  20.747  0.00  0.00    +0.000 C 
ATOM     22  H   UNL     1       0.724   8.185  23.089  0.00  0.00    +0.000 HD
ENDROOT
BRANCH  13  23
ATOM     23  C   UNL     1       3.707   4.138  18.127  0.00  0.00    +0.000 A 
ATOM     24  C   UNL     1       4.545   3.858  19.220  0.00  0.00    +0.000 A 
ATOM     25  C   UNL     1       4.743   2.544  19.698  0.00  0.00    +0.000 A 
ATOM     26  C   UNL     1       4.085   1.455  19.134  0.00  0.00    +0.000 A 
ATOM     27  C   UNL     1       3.237   1.678  18.068  0.00  0.00    +0.000 A 
ATOM     28  C   UNL     1       3.080   2.974  17.571  0.00  0.00    +0.000 A 
ATOM     29  F   UNL     1       2.233   3.081  16.530  0.00  0.00    +0.000 F 
BRANCH  24  30
ATOM     30  O   UNL     1       5.194   4.798  19.973  0.00  0.00    +0.000 OA
ATOM     31  H   UNL     1       4.543   5.376  20.396  0.00  0.00    +0.000 HD
ENDBRANCH  24  30
ENDBRANCH  13  23
BRANCH   1  33
ATOM     32  C   UNL     1      -0.201  16.044  18.626  0.00  0.00    +0.000 C 
ATOM     33  C   UNL     1      -0.442  14.757  18.338  0.00  0.00    +0.000 C 
ENDBRANCH   1  33
TORSDOF 3
ENDMDL
MODEL 5
REMARK VINA RESULT:      -6.6      5.059      6.778
REMARK  Name = 
REMARK  3 active torsions:
REMARK  status: ('A' for Active; 'I' for Inactive)
REMARK    1  A    between atoms: C_2  and  C_3
REMARK    2  A    between atoms: C_15  and  C_16
REMARK    3  A    between atoms: C_17  and  O_18
REMARK                            x       y       z     vdW  Elec       q    Type
REMARK                         _______ _______ _______ _____ _____    ______ ____
ROOT
ATOM      1  C   UNL     1      -3.307  10.006  13.997  0.00  0.00    +0.000 C 
ATOM      2  O   UNL     1      -2.291   9.539  13.483  0.00  0.00    +0.000 OA
ATOM      3  N   UNL     1      -3.369  10.473  15.305  0.00  0.00    +0.000 N 
ATOM      4  C   UNL     1      -4.609  10.749  16.047  0.00  0.00    +0.000 C 
ATOM      5  C   UNL     1      -4.473  11.422  17.464  0.00  0.00    +0.000 C 
ATOM      6  N   UNL     1      -3.214  11.149  18.194  0.00  0.00    +0.000 N 
ATOM      7  C   UNL     1      -2.820  11.984  19.302  0.00  0.00    +0.000 A 
ATOM      8  C   UNL     1      -1.474  11.854  19.799  0.00  0.00    +0.000 A 
ATOM      9  C   UNL     1      -1.054  12.672  20.839  0.00  0.00    +0.000 A 
ATOM     10  N   UNL     1      -1.702  13.766  21.201  0.00  0.00    +0.000 NA
ATOM     11  C   UNL     1      -2.904  13.927  20.647  0.00  0.00    +0.000 A 
ATOM     12  C   UNL     1      -3.544  15.081  20.966  0.00  0.00    +0.000 A 
ATOM     13  C   UNL     1      -4.423  14.822  21.980  0.00  0.00    +0.000 A 
ATOM     14  C   UNL     1      -5.380  13.905  21.516  0.00  0.00    +0.000 A 
ATOM     15 CL   UNL     1      -6.927  13.773  22.259  0.00  0.00    +0.000 Cl
ATOM     16  C   UNL     1      -5.043  13.032  20.418  0.00  0.00    +0.000 A 
ATOM     17  C   UNL     1      -3.643  12.934  20.030  0.00  0.00    +0.000 A 
ATOM     18  N   UNL     1      -0.459  11.108  19.194  0.00  0.00    +0.000 N 
ATOM     19  C   UNL     1      -0.852  10.307  18.075  0.00  0.00    +0.000 C 
ATOM     20  C   UNL     1      -2.009  10.962  17.309  0.00  0.00    +0.000 C 
ATOM     21  C   UNL     1      -2.273  10.032  16.134  0.00  0.00    +0.000 C 
ATOM     22  H   UNL     1       0.224  10.707  19.831  0.00  0.00    +0.000 HD
ENDROOT
BRANCH  13  23
ATOM     23  C   UNL     1      -3.939  15.192  23.361  0.00  0.00    +0.000 A 
ATOM     24  C   UNL     1      -3.254  14.370  24.272  0.00  0.00    +0.000 A 
ATOM     25  C   UNL     1      -2.666  14.882  25.449  0.00  0.00    +0.000 A 
ATOM     26  C   UNL     1      -2.699  16.240  25.751  0.00  0.00    +0.000 A 
ATOM     27  C   UNL     1      -3.346  17.093  24.880  0.00  0.00    +0.000 A 
ATOM     28  C   UNL     1      -3.965  16.575  23.739  0.00  0.00    +0.000 A 
ATOM     29  F   UNL     1      -4.568  17.490  22.959  0.00  0.00    +0.000 F 
BRANCH  24  30
ATOM     30  O   UNL     1      -3.020  13.032  24.102  0.00  0.00    +0.000 OA
ATOM     31  H   UNL     1      -2.186  12.911  23.626  0.00  0.00    +0.000 HD
ENDBRANCH  24  30
ENDBRANCH  13  23
BRANCH   1  33
ATOM     32  C   UNL     1      -4.493   9.852  11.892  0.00  0.00    +0.000 C 
ATOM     33  C   UNL     1      -4.566  10.014  13.221  0.00  0.00    +0.000 C 
ENDBRANCH   1  33
TORSDOF 3
ENDMDL
MODEL 6
REMARK VINA RESULT:      -6.5      2.843      4.315
REMARK  Name = 
REMARK  3 active torsions:
REMARK  status: ('A' for Active; 'I' for Inactive)
REMARK    1  A    between atoms: C_2  and  C_3
REMARK    2  A    between atoms: C_15  and  C_16
REMARK    3  A    between atoms: C_17  and  O_18
REMARK                            x       y       z     vdW  Elec       q    Type
REMARK                         _______ _______ _______ _____ _____    ______ ____
ROOT
ATOM      1  C   UNL     1       2.310   5.443  19.740  0.00  0.00    +0.000 C 
ATOM      2  O   UNL     1       3.013   5.131  18.781  0.00  0.00    +0.000 OA
ATOM      3  N   UNL     1       1.805   6.722  19.949  0.00  0.00    +0.000 N 
ATOM      4  C   UNL     1       1.229   7.209  21.211  0.00  0.00    +0.000 C 
ATOM      5  C   UNL     1       0.567   8.638  21.204  0.00  0.00    +0.000 C 
ATOM      6  N   UNL     1       1.103   9.597  20.212  0.00  0.00    +0.000 N 
ATOM      7  C   UNL     1       0.352  10.777  19.861  0.00  0.00    +0.000 A 
ATOM      8  C   UNL     1       0.776  11.528  18.706  0.00  0.00    +0.000 A 
ATOM      9  C   UNL     1       0.048  12.645  18.320  0.00  0.00    +0.000 A 
ATOM     10  N   UNL     1      -1.176  12.892  18.755  0.00  0.00    +0.000 NA
ATOM     11  C   UNL     1      -1.594  12.115  19.753  0.00  0.00    +0.000 A 
ATOM     12  C   UNL     1      -2.874  12.323  20.157  0.00  0.00    +0.000 A 
ATOM     13  C   UNL     1      -2.854  13.138  21.253  0.00  0.00    +0.000 A 
ATOM     14  C   UNL     1      -2.171  12.477  22.287  0.00  0.00    +0.000 A 
ATOM     15 CL   UNL     1      -2.421  12.897  23.937  0.00  0.00    +0.000 Cl
ATOM     16  C   UNL     1      -1.213  11.451  21.953  0.00  0.00    +0.000 A 
ATOM     17  C   UNL     1      -0.783  11.345  20.566  0.00  0.00    +0.000 A 
ATOM     18  N   UNL     1       1.754  11.121  17.793  0.00  0.00    +0.000 N 
ATOM     19  C   UNL     1       2.472   9.931  18.134  0.00  0.00    +0.000 C 
ATOM     20  C   UNL     1       1.589   8.964  18.933  0.00  0.00    +0.000 C 
ATOM     21  C   UNL     1       2.465   7.743  19.170  0.00  0.00    +0.000 C 
ATOM     22  H   UNL     1       2.284  11.872  17.361  0.00  0.00    +0.000 HD
ENDROOT
BRANCH  13  23
ATOM     23  C   UNL     1      -3.140  14.594  20.978  0.00  0.00    +0.000 A 
ATOM     24  C   UNL     1      -4.398  15.210  20.870  0.00  0.00    +0.000 A 
ATOM     25  C   UNL     1      -4.545  16.614  20.819  0.00  0.00    +0.000 A 
ATOM     26  C   UNL     1      -3.449  17.467  20.913  0.00  0.00    +0.000 A 
ATOM     27  C   UNL     1      -2.191  16.912  21.038  0.00  0.00    +0.000 A 
ATOM     28  C   UNL     1      -2.048  15.522  21.042  0.00  0.00    +0.000 A 
ATOM     29  F   UNL     1      -0.781  15.086  21.166  0.00  0.00    +0.000 F 
BRANCH  24  30
ATOM     30  O   UNL     1      -5.598  14.552  20.871  0.00  0.00    +0.000 OA
ATOM     31  H   UNL     1      -6.035  14.683  20.017  0.00  0.00    +0.000 HD
ENDBRANCH  24  30
ENDBRANCH  13  23
BRANCH   1  33
ATOM     32  C   UNL     1       1.094   3.508  20.540  0.00  0.00    +0.000 C 
ATOM     33  C   UNL     1       2.033   4.434  20.786  0.00  0.00    +0.000 C 
ENDBRANCH   1  33
TORSDOF 3
ENDMDL
MODEL 7
REMARK VINA RESULT:      -6.4      5.567      7.596
REMARK  Name = 
REMARK  3 active torsions:
REMARK  status: ('A' for Active; 'I' for Inactive)
REMARK    1  A    between atoms: C_2  and  C_3
REMARK    2  A    between atoms: C_15  and  C_16
REMARK    3  A    between atoms: C_17  and  O_18
REMARK                            x       y       z     vdW  Elec       q    Type
REMARK                         _______ _______ _______ _____ _____    ______ ____
ROOT
ATOM      1  C   UNL     1       7.557  17.030  18.559  0.00  0.00    +0.000 C 
ATOM      2  O   UNL     1       7.785  18.233  18.664  0.00  0.00    +0.000 OA
ATOM      3  N   UNL     1       6.342  16.439  18.884  0.00  0.00    +0.000 N 
ATOM      4  C   UNL     1       6.123  14.995  19.065  0.00  0.00    +0.000 C 
ATOM      5  C   UNL     1       4.641  14.506  19.276  0.00  0.00    +0.000 C 
ATOM      6  N   UNL     1       3.718  15.481  19.898  0.00  0.00    +0.000 N 
ATOM      7  C   UNL     1       2.291  15.294  19.804  0.00  0.00    +0.000 A 
ATOM      8  C   UNL     1       1.440  16.395  20.179  0.00  0.00    +0.000 A 
ATOM      9  C   UNL     1       0.064  16.258  20.061  0.00  0.00    +0.000 A 
ATOM     10  N   UNL     1      -0.506  15.303  19.345  0.00  0.00    +0.000 NA
ATOM     11  C   UNL     1       0.316  14.347  18.913  0.00  0.00    +0.000 A 
ATOM     12  C   UNL     1      -0.255  13.401  18.124  0.00  0.00    +0.000 A 
ATOM     13  C   UNL     1      -0.557  12.317  18.899  0.00  0.00    +0.000 A 
ATOM     14  C   UNL     1       0.638  11.792  19.418  0.00  0.00    +0.000 A 
ATOM     15 CL   UNL     1       0.745  10.156  19.941  0.00  0.00    +0.000 Cl
ATOM     16  C   UNL     1       1.787  12.655  19.546  0.00  0.00    +0.000 A 
ATOM     17  C   UNL     1       1.580  14.090  19.410  0.00  0.00    +0.000 A 
ATOM     18  N   UNL     1       1.878  17.691  20.468  0.00  0.00    +0.000 N 
ATOM     19  C   UNL     1       3.296  17.874  20.528  0.00  0.00    +0.000 C 
ATOM     20  C   UNL     1       4.016  16.920  19.565  0.00  0.00    +0.000 C 
ATOM     21  C   UNL     1       5.490  17.269  19.702  0.00  0.00    +0.000 C 
ATOM     22  H   UNL     1       1.318  18.196  21.149  0.00  0.00    +0.000 HD
ENDROOT
BRANCH  13  23
ATOM     23  C   UNL     1      -1.997  12.225  19.343  0.00  0.00    +0.000 A 
ATOM     24  C   UNL     1      -2.577  12.813  20.480  0.00  0.00    +0.000 A 
ATOM     25  C   UNL     1      -3.974  12.835  20.684  0.00  0.00    +0.000 A 
ATOM     26  C   UNL     1      -4.857  12.309  19.746  0.00  0.00    +0.000 A 
ATOM     27  C   UNL     1      -4.339  11.735  18.602  0.00  0.00    +0.000 A 
ATOM     28  C   UNL     1      -2.954  11.675  18.428  0.00  0.00    +0.000 A 
ATOM     29  F   UNL     1      -2.554  11.094  17.282  0.00  0.00    +0.000 F 
BRANCH  24  30
ATOM     30  O   UNL     1      -1.889  13.474  21.461  0.00  0.00    +0.000 OA
ATOM     31  H   UNL     1      -1.294  12.854  21.909  0.00  0.00    +0.000 HD
ENDBRANCH  24  30
ENDBRANCH  13  23
BRANCH   1  33
ATOM     32  C   UNL     1       9.714  16.664  17.521  0.00  0.00    +0.000 C 
ATOM     33  C   UNL     1       8.649  16.127  18.134  0.00  0.00    +0.000 C 
ENDBRANCH   1  33
TORSDOF 3
ENDMDL
MODEL 8
REMARK VINA RESULT:      -6.3      3.488      5.899
REMARK  Name = 
REMARK  3 active torsions:
REMARK  status: ('A' for Active; 'I' for Inactive)
REMARK    1  A    between atoms: C_2  and  C_3
REMARK    2  A    between atoms: C_15  and  C_16
REMARK    3  A    between atoms: C_17  and  O_18
REMARK                            x       y       z     vdW  Elec       q    Type
REMARK                         _______ _______ _______ _____ _____    ______ ____
ROOT
ATOM      1  C   UNL     1       1.867   8.962  18.391  0.00  0.00    +0.000 C 
ATOM      2  O   UNL     1       2.613   9.301  17.475  0.00  0.00    +0.000 OA
ATOM      3  N   UNL     1       1.085   9.849  19.122  0.00  0.00    +0.000 N 
ATOM      4  C   UNL     1       0.424   9.540  20.400  0.00  0.00    +0.000 C 
ATOM      5  C   UNL     1      -0.548  10.626  20.996  0.00  0.00    +0.000 C 
ATOM      6  N   UNL     1      -0.254  12.030  20.632  0.00  0.00    +0.000 N 
ATOM      7  C   UNL     1      -1.258  13.051  20.801  0.00  0.00    +0.000 A 
ATOM      8  C   UNL     1      -1.027  14.334  20.185  0.00  0.00    +0.000 A 
ATOM      9  C   UNL     1      -1.994  15.323  20.297  0.00  0.00    +0.000 A 
ATOM     10  N   UNL     1      -3.238  15.074  20.669  0.00  0.00    +0.000 NA
ATOM     11  C   UNL     1      -3.460  13.846  21.136  0.00  0.00    +0.000 A 
ATOM     12  C   UNL     1      -4.749  13.568  21.457  0.00  0.00    +0.000 A 
ATOM     13  C   UNL     1      -4.906  13.740  22.804  0.00  0.00    +0.000 A 
ATOM     14  C   UNL     1      -4.081  12.819  23.470  0.00  0.00    +0.000 A 
ATOM     15 CL   UNL     1      -4.406  12.333  25.088  0.00  0.00    +0.000 Cl
ATOM     16  C   UNL     1      -2.917  12.300  22.793  0.00  0.00    +0.000 A 
ATOM     17  C   UNL     1      -2.487  12.965  21.571  0.00  0.00    +0.000 A 
ATOM     18  N   UNL     1       0.009  14.625  19.293  0.00  0.00    +0.000 N 
ATOM     19  C   UNL     1       0.984  13.594  19.106  0.00  0.00    +0.000 C 
ATOM     20  C   UNL     1       0.352  12.204  19.263  0.00  0.00    +0.000 C 
ATOM     21  C   UNL     1       1.486  11.228  18.986  0.00  0.00    +0.000 C 
ATOM     22  H   UNL     1       0.350  15.582  19.321  0.00  0.00    +0.000 HD
ENDROOT
BRANCH  13  23
ATOM     23  C   UNL     1      -5.520  15.055  23.217  0.00  0.00    +0.000 A 
ATOM     24  C   UNL     1      -4.850  16.260  23.488  0.00  0.00    +0.000 A 
ATOM     25  C   UNL     1      -5.539  17.481  23.661  0.00  0.00    +0.000 A 
ATOM     26  C   UNL     1      -6.922  17.562  23.533  0.00  0.00    +0.000 A 
ATOM     27  C   UNL     1      -7.627  16.409  23.250  0.00  0.00    +0.000 A 
ATOM     28  C   UNL     1      -6.944  15.197  23.125  0.00  0.00    +0.000 A 
ATOM     29  F   UNL     1      -7.724  14.135  22.851  0.00  0.00    +0.000 F 
BRANCH  24  30
ATOM     30  O   UNL     1      -3.490  16.408  23.547  0.00  0.00    +0.000 OA
ATOM     31  H   UNL     1      -3.265  17.028  24.255  0.00  0.00    +0.000 HD
ENDBRANCH  24  30
ENDBRANCH  13  23
BRANCH   1  33
ATOM     32  C   UNL     1       2.585   6.666  18.120  0.00  0.00    +0.000 C 
ATOM     33  C   UNL     1       1.836   7.542  18.805  0.00  0.00    +0.000 C 
ENDBRANCH   1  33
TORSDOF 3
ENDMDL
MODEL 9
REMARK VINA RESULT:      -6.3      5.254      7.257
REMARK  Name = 
REMARK  3 active torsions:
REMARK  status: ('A' for Active; 'I' for Inactive)
REMARK    1  A    between atoms: C_2  and  C_3
REMARK    2  A    between atoms: C_15  and  C_16
REMARK    3  A    between atoms: C_17  and  O_18
REMARK                            x       y       z     vdW  Elec       q    Type
REMARK                         _______ _______ _______ _____ _____    ______ ____
ROOT
ATOM      1  C   UNL     1       5.209  15.713  20.977  0.00  0.00    +0.000 C 
ATOM      2  O   UNL     1       6.179  15.114  20.516  0.00  0.00    +0.000 OA
ATOM      3  N   UNL     1       3.889  15.393  20.682  0.00  0.00    +0.000 N 
ATOM      4  C   UNL     1       2.728  16.253  20.958  0.00  0.00    +0.000 C 
ATOM      5  C   UNL     1       1.297  15.648  20.695  0.00  0.00    +0.000 C 
ATOM      6  N   UNL     1       1.217  14.602  19.651  0.00  0.00    +0.000 N 
ATOM      7  C   UNL     1       0.069  13.731  19.581  0.00  0.00    +0.000 A 
ATOM      8  C   UNL     1       0.157  12.566  18.737  0.00  0.00    +0.000 A 
ATOM      9  C   UNL     1      -0.917  11.688  18.680  0.00  0.00    +0.000 A 
ATOM     10  N   UNL     1      -1.891  11.684  19.574  0.00  0.00    +0.000 NA
ATOM     11  C   UNL     1      -1.894  12.714  20.420  0.00  0.00    +0.000 A 
ATOM     12  C   UNL     1      -2.854  12.679  21.379  0.00  0.00    +0.000 A 
ATOM     13  C   UNL     1      -3.904  13.451  20.969  0.00  0.00    +0.000 A 
ATOM     14  C   UNL     1      -3.460  14.777  20.844  0.00  0.00    +0.000 A 
ATOM     15 CL   UNL     1      -4.558  16.100  20.914  0.00  0.00    +0.000 Cl
ATOM     16  C   UNL     1      -2.058  15.030  20.616  0.00  0.00    +0.000 A 
ATOM     17  C   UNL     1      -1.215  13.905  20.237  0.00  0.00    +0.000 A 
ATOM     18  N   UNL     1       1.320  12.112  18.107  0.00  0.00    +0.000 N 
ATOM     19  C   UNL     1       2.463  12.968  18.209  0.00  0.00    +0.000 C 
ATOM     20  C   UNL     1       2.451  13.746  19.532  0.00  0.00    +0.000 C 
ATOM     21  C   UNL     1       3.738  14.557  19.515  0.00  0.00    +0.000 C 
ATOM     22  H   UNL     1       1.175  11.638  17.219  0.00  0.00    +0.000 HD
ENDROOT
BRANCH  13  23
ATOM     23  C   UNL     1      -5.061  12.694  20.364  0.00  0.00    +0.000 A 
ATOM     24  C   UNL     1      -5.162  12.196  19.054  0.00  0.00    +0.000 A 
ATOM     25  C   UNL     1      -6.200  11.322  18.661  0.00  0.00    +0.000 A 
ATOM     26  C   UNL     1      -7.160  10.877  19.564  0.00  0.00    +0.000 A 
ATOM     27  C   UNL     1      -7.097  11.324  20.869  0.00  0.00    +0.000 A 
ATOM     28  C   UNL     1      -6.094  12.223  21.241  0.00  0.00    +0.000 A 
ATOM     29  F   UNL     1      -6.123  12.597  22.533  0.00  0.00    +0.000 F 
BRANCH  24  30
ATOM     30  O   UNL     1      -4.260  12.430  18.052  0.00  0.00    +0.000 OA
ATOM     31  H   UNL     1      -4.557  13.184  17.523  0.00  0.00    +0.000 HD
ENDBRANCH  24  30
ENDBRANCH  13  23
BRANCH   1  33
ATOM     32  C   UNL     1       6.385  16.814  22.785  0.00  0.00    +0.000 C 
ATOM     33  C   UNL     1       5.437  16.893  21.840  0.00  0.00    +0.000 C 
ENDBRANCH   1  33
TORSDOF 3
ENDMDL
