MODEL 1
REMARK VINA RESULT:      -7.7      0.000      0.000
REMARK  Name = 
REMARK  6 active torsions:
REMARK  status: ('A' for Active; 'I' for Inactive)
REMARK    1  A    between atoms: C_2  and  O_3
REMARK    2  A    between atoms: C_2  and  C_14
REMARK    3  A    between atoms: O_3  and  C_4
REMARK    4  A    between atoms: C_4  and  C_5
REMARK    5  A    between atoms: C_17  and  S_18
REMARK    6  A    between atoms: S_18  and  N_21
REMARK                            x       y       z     vdW  Elec       q    Type
REMARK                         _______ _______ _______ _____ _____    ______ ____
ROOT
ATOM      1  C   UNL     1       3.608   6.678  18.503  0.00  0.00    +0.000 A 
ATOM      2  C   UNL     1       2.812   6.652  19.675  0.00  0.00    +0.000 A 
ATOM      3  C   UNL     1       1.790   7.610  19.875  0.00  0.00    +0.000 A 
ATOM      4  C   UNL     1       1.621   8.651  18.959  0.00  0.00    +0.000 A 
ATOM      5  C   UNL     1       2.384   8.641  17.783  0.00  0.00    +0.000 A 
ATOM      6  C   UNL     1       3.378   7.684  17.578  0.00  0.00    +0.000 A 
ENDROOT
BRANCH   4   7
ATOM      7  S   UNL     1       0.367   9.913  19.285  0.00  0.00    +0.000 S 
ATOM      8  O   UNL     1      -0.387  10.067  18.056  0.00  0.00    +0.000 OA
ATOM      9  O   UNL     1      -0.293   9.509  20.510  0.00  0.00    +0.000 OA
BRANCH   7  10
ATOM     10  N   UNL     1       1.094  11.413  19.614  0.00  0.00    +0.000 NA
ATOM     11  C   UNL     1       0.991  12.060  20.941  0.00  0.00    +0.000 C 
ATOM     12  C   UNL     1      -0.291  12.879  21.012  0.00  0.00    +0.000 C 
ATOM     13  O   UNL     1      -0.532  13.723  19.867  0.00  0.00    +0.000 OA
ATOM     14  C   UNL     1      -0.140  13.238  18.567  0.00  0.00    +0.000 C 
ATOM     15  C   UNL     1       1.166  12.456  18.567  0.00  0.00    +0.000 C 
ENDBRANCH   7  10
ENDBRANCH   4   7
BRANCH   1  17
ATOM     16  O   UNL     1       5.551   5.436  19.016  0.00  0.00    +0.000 OA
ATOM     17  C   UNL     1       4.685   5.681  18.233  0.00  0.00    +0.000 C 
BRANCH  17  18
ATOM     18  O   UNL     1       4.533   5.127  16.984  0.00  0.00    +0.000 OA
BRANCH  18  19
ATOM     19  C   UNL     1       4.281   3.722  16.921  0.00  0.00    +0.000 C 
BRANCH  19  20
ATOM     20  C   UNL     1       2.888   3.341  17.398  0.00  0.00    +0.000 C 
ATOM     21  O   UNL     1       1.888   3.607  16.729  0.00  0.00    +0.000 OA
ATOM     22  N   UNL     1       2.828   2.582  18.569  0.00  0.00    +0.000 N 
ATOM     23  C   UNL     1       1.533   2.013  18.911  0.00  0.00    +0.000 C 
ATOM     24  C   UNL     1       0.718   2.970  19.771  0.00  0.00    +0.000 C 
ATOM     25  C   UNL     1       1.171   3.012  21.227  0.00  0.00    +0.000 C 
ATOM     26  C   UNL     1       2.643   3.367  21.442  0.00  0.00    +0.000 C 
ATOM     27  C   UNL     1       3.605   2.280  20.956  0.00  0.00    +0.000 C 
ATOM     28  C   UNL     1       3.963   2.398  19.477  0.00  0.00    +0.000 C 
ENDBRANCH  19  20
ENDBRANCH  18  19
ENDBRANCH  17  18
ENDBRANCH   1  17
TORSDOF 6
ENDMDL
MODEL 2
REMARK VINA RESULT:      -7.7      1.122      1.487
REMARK  Name = 
REMARK  6 active torsions:
REMARK  status: ('A' for Active; 'I' for Inactive)
REMARK    1  A    between atoms: C_2  and  O_3
REMARK    2  A    between atoms: C_2  and  C_14
REMARK    3  A    between atoms: O_3  and  C_4
REMARK    4  A    between atoms: C_4  and  C_5
REMARK    5  A    between atoms: C_17  and  S_18
REMARK    6  A    between atoms: S_18  and  N_21
REMARK                            x       y       z     vdW  Elec       q    Type
REMARK                         _______ _______ _______ _____ _____    ______ ____
ROOT
ATOM      1  C   UNL     1       3.485   6.873  18.033  0.00  0.00    +0.000 A 
ATOM      2  C   UNL     1       3.086   6.400  19.308  0.00  0.00    +0.000 A 
ATOM      3  C   UNL     1       2.178   7.138  20.102  0.00  0.00    +0.000 A 
ATOM      4  C   UNL     1       1.739   8.394  19.674  0.00  0.00    +0.000 A 
ATOM      5  C   UNL     1       2.104   8.832  18.393  0.00  0.00    +0.000 A 
ATOM      6  C   UNL     1       2.984   8.092  17.602  0.00  0.00    +0.000 A 
ENDROOT
BRANCH   4   7
ATOM      7  S   UNL     1       0.650   9.356  20.750  0.00  0.00    +0.000 S 
ATOM      8  O   UNL     1      -0.533   8.546  20.964  0.00  0.00    +0.000 OA
ATOM      9  O   UNL     1       1.469   9.779  21.868  0.00  0.00    +0.000 OA
BRANCH   7  10
ATOM     10  N   UNL     1       0.143  10.781  19.973  0.00  0.00    +0.000 NA
ATOM     11  C   UNL     1       1.017  11.969  19.866  0.00  0.00    +0.000 C 
ATOM     12  C   UNL     1       0.874  12.825  21.118  0.00  0.00    +0.000 C 
ATOM     13  O   UNL     1      -0.488  13.066  21.531  0.00  0.00    +0.000 OA
ATOM     14  C   UNL     1      -1.453  12.011  21.348  0.00  0.00    +0.000 C 
ATOM     15  C   UNL     1      -1.267  11.219  20.061  0.00  0.00    +0.000 C 
ENDBRANCH   7  10
ENDBRANCH   4   7
BRANCH   1  17
ATOM     16  O   UNL     1       4.730   6.508  16.059  0.00  0.00    +0.000 OA
ATOM     17  C   UNL     1       4.424   6.125  17.146  0.00  0.00    +0.000 C 
BRANCH  17  18
ATOM     18  O   UNL     1       4.846   4.966  17.753  0.00  0.00    +0.000 OA
BRANCH  18  19
ATOM     19  C   UNL     1       4.496   3.734  17.119  0.00  0.00    +0.000 C 
BRANCH  19  20
ATOM     20  C   UNL     1       3.093   3.260  17.463  0.00  0.00    +0.000 C 
ATOM     21  O   UNL     1       2.157   3.404  16.674  0.00  0.00    +0.000 OA
ATOM     22  N   UNL     1       2.961   2.560  18.665  0.00  0.00    +0.000 N 
ATOM     23  C   UNL     1       1.685   1.899  18.897  0.00  0.00    +0.000 C 
ATOM     24  C   UNL     1       0.703   2.826  19.603  0.00  0.00    +0.000 C 
ATOM     25  C   UNL     1       0.983   2.981  21.095  0.00  0.00    +0.000 C 
ATOM     26  C   UNL     1       2.387   3.473  21.448  0.00  0.00    +0.000 C 
ATOM     27  C   UNL     1       3.482   2.449  21.136  0.00  0.00    +0.000 C 
ATOM     28  C   UNL     1       3.995   2.522  19.700  0.00  0.00    +0.000 C 
ENDBRANCH  19  20
ENDBRANCH  18  19
ENDBRANCH  17  18
ENDBRANCH   1  17
TORSDOF 6
ENDMDL
MODEL 3
REMARK VINA RESULT:      -7.6      1.635      2.150
REMARK  Name = 
REMARK  6 active torsions:
REMARK  status: ('A' for Active; 'I' for Inactive)
REMARK    1  A    between atoms: C_2  and  O_3
REMARK    2  A    between atoms: C_2  and  C_14
REMARK    3  A    between atoms: O_3  and  C_4
REMARK    4  A    between atoms: C_4  and  C_5
REMARK    5  A    between atoms: C_17  and  S_18
REMARK    6  A    between atoms: S_18  and  N_21
REMARK                            x       y       z     vdW  Elec       q    Type
REMARK                         _______ _______ _______ _____ _____    ______ ____
ROOT
ATOM      1  C   UNL     1       3.142   7.050  18.677  0.00  0.00    +0.000 A 
ATOM      2  C   UNL     1       2.879   8.090  17.751  0.00  0.00    +0.000 A 
ATOM      3  C   UNL     1       1.988   9.139  18.077  0.00  0.00    +0.000 A 
ATOM      4  C   UNL     1       1.283   9.106  19.283  0.00  0.00    +0.000 A 
ATOM      5  C   UNL     1       1.584   8.097  20.208  0.00  0.00    +0.000 A 
ATOM      6  C   UNL     1       2.478   7.074  19.893  0.00  0.00    +0.000 A 
ENDROOT
BRANCH   4   7
ATOM      7  S   UNL     1       0.083  10.413  19.634  0.00  0.00    +0.000 S 
ATOM      8  O   UNL     1      -0.918   9.825  20.503  0.00  0.00    +0.000 OA
ATOM      9  O   UNL     1       0.859  11.558  20.067  0.00  0.00    +0.000 OA
BRANCH   7  10
ATOM     10  N   UNL     1      -0.714  10.894  18.212  0.00  0.00    +0.000 NA
ATOM     11  C   UNL     1      -1.408  12.197  18.105  0.00  0.00    +0.000 C 
ATOM     12  C   UNL     1      -2.831  12.063  18.634  0.00  0.00    +0.000 C 
ATOM     13  O   UNL     1      -3.550  10.911  18.145  0.00  0.00    +0.000 OA
ATOM     14  C   UNL     1      -2.816   9.689  17.931  0.00  0.00    +0.000 C 
ATOM     15  C   UNL     1      -1.416   9.898  17.374  0.00  0.00    +0.000 C 
ENDBRANCH   7  10
ENDBRANCH   4   7
BRANCH   1  17
ATOM     16  O   UNL     1       4.822   5.479  19.216  0.00  0.00    +0.000 OA
ATOM     17  C   UNL     1       4.087   5.930  18.392  0.00  0.00    +0.000 C 
BRANCH  17  18
ATOM     18  O   UNL     1       3.990   5.533  17.080  0.00  0.00    +0.000 OA
BRANCH  18  19
ATOM     19  C   UNL     1       3.653   4.165  16.837  0.00  0.00    +0.000 C 
BRANCH  19  20
ATOM     20  C   UNL     1       2.352   3.741  17.501  0.00  0.00    +0.000 C 
ATOM     21  O   UNL     1       1.263   4.149  17.092  0.00  0.00    +0.000 OA
ATOM     22  N   UNL     1       2.464   2.786  18.515  0.00  0.00    +0.000 N 
ATOM     23  C   UNL     1       1.223   2.199  18.996  0.00  0.00    +0.000 C 
ATOM     24  C   UNL     1       0.639   3.007  20.147  0.00  0.00    +0.000 C 
ATOM     25  C   UNL     1       1.354   2.776  21.474  0.00  0.00    +0.000 C 
ATOM     26  C   UNL     1       2.859   3.048  21.461  0.00  0.00    +0.000 C 
ATOM     27  C   UNL     1       3.648   2.042  20.620  0.00  0.00    +0.000 C 
ATOM     28  C   UNL     1       3.733   2.414  19.142  0.00  0.00    +0.000 C 
ENDBRANCH  19  20
ENDBRANCH  18  19
ENDBRANCH  17  18
ENDBRANCH   1  17
TORSDOF 6
ENDMDL
MODEL 4
REMARK VINA RESULT:      -7.4      2.369      8.770
REMARK  Name = 
REMARK  6 active torsions:
REMARK  status: ('A' for Active; 'I' for Inactive)
REMARK    1  A    between atoms: C_2  and  O_3
REMARK    2  A    between atoms: C_2  and  C_14
REMARK    3  A    between atoms: O_3  and  C_4
REMARK    4  A    between atoms: C_4  and  C_5
REMARK    5  A    between atoms: C_17  and  S_18
REMARK    6  A    between atoms: S_18  and  N_21
REMARK                            x       y       z     vdW  Elec       q    Type
REMARK                         _______ _______ _______ _____ _____    ______ ____
ROOT
ATOM      1  C   UNL     1       2.131   8.014  19.081  0.00  0.00    +0.000 A 
ATOM      2  C   UNL     1       2.836   7.883  17.859  0.00  0.00    +0.000 A 
ATOM      3  C   UNL     1       3.617   6.734  17.594  0.00  0.00    +0.000 A 
ATOM      4  C   UNL     1       3.778   5.757  18.581  0.00  0.00    +0.000 A 
ATOM      5  C   UNL     1       3.041   5.876  19.768  0.00  0.00    +0.000 A 
ATOM      6  C   UNL     1       2.255   7.000  20.019  0.00  0.00    +0.000 A 
ENDROOT
BRANCH   4   7
ATOM      7  S   UNL     1       4.855   4.343  18.248  0.00  0.00    +0.000 S 
ATOM      8  O   UNL     1       5.386   4.539  16.914  0.00  0.00    +0.000 OA
ATOM      9  O   UNL     1       5.741   4.243  19.390  0.00  0.00    +0.000 OA
BRANCH   7  10
ATOM     10  N   UNL     1       3.959   2.899  18.220  0.00  0.00    +0.000 NA
ATOM     11  C   UNL     1       2.709   2.767  17.440  0.00  0.00    +0.000 C 
ATOM     12  C   UNL     1       1.532   3.260  18.271  0.00  0.00    +0.000 C 
ATOM     13  O   UNL     1       1.498   2.760  19.625  0.00  0.00    +0.000 OA
ATOM     14  C   UNL     1       2.751   2.572  20.314  0.00  0.00    +0.000 C 
ATOM     15  C   UNL     1       3.872   2.049  19.428  0.00  0.00    +0.000 C 
ENDBRANCH   7  10
ENDBRANCH   4   7
BRANCH   1  17
ATOM     16  O   UNL     1       0.858   9.937  18.569  0.00  0.00    +0.000 OA
ATOM     17  C   UNL     1       1.278   9.195  19.403  0.00  0.00    +0.000 C 
BRANCH  17  18
ATOM     18  O   UNL     1       1.077   9.294  20.759  0.00  0.00    +0.000 OA
BRANCH  18  19
ATOM     19  C   UNL     1      -0.275   9.401  21.211  0.00  0.00    +0.000 C 
BRANCH  19  20
ATOM     20  C   UNL     1      -0.480  10.508  22.233  0.00  0.00    +0.000 C 
ATOM     21  O   UNL     1      -0.147  10.362  23.410  0.00  0.00    +0.000 OA
ATOM     22  N   UNL     1      -0.958  11.722  21.733  0.00  0.00    +0.000 N 
ATOM     23  C   UNL     1      -0.938  12.855  22.645  0.00  0.00    +0.000 C 
ATOM     24  C   UNL     1      -2.232  12.946  23.443  0.00  0.00    +0.000 C 
ATOM     25  C   UNL     1      -3.400  13.512  22.642  0.00  0.00    +0.000 C 
ATOM     26  C   UNL     1      -3.729  12.764  21.349  0.00  0.00    +0.000 C 
ATOM     27  C   UNL     1      -2.647  12.910  20.275  0.00  0.00    +0.000 C 
ATOM     28  C   UNL     1      -1.526  11.881  20.393  0.00  0.00    +0.000 C 
ENDBRANCH  19  20
ENDBRANCH  18  19
ENDBRANCH  17  18
ENDBRANCH   1  17
TORSDOF 6
ENDMDL
MODEL 5
REMARK VINA RESULT:      -7.4      0.895      1.156
REMARK  Name = 
REMARK  6 active torsions:
REMARK  status: ('A' for Active; 'I' for Inactive)
REMARK    1  A    between atoms: C_2  and  O_3
REMARK    2  A    between atoms: C_2  and  C_14
REMARK    3  A    between atoms: O_3  and  C_4
REMARK    4  A    between atoms: C_4  and  C_5
REMARK    5  A    between atoms: C_17  and  S_18
REMARK    6  A    between atoms: S_18  and  N_21
REMARK                            x       y       z     vdW  Elec       q    Type
REMARK                         _______ _______ _______ _____ _____    ______ ____
ROOT
ATOM      1  C   UNL     1       3.390   7.267  18.123  0.00  0.00    +0.000 A 
ATOM      2  C   UNL     1       2.836   6.946  19.387  0.00  0.00    +0.000 A 
ATOM      3  C   UNL     1       1.783   7.718  19.932  0.00  0.00    +0.000 A 
ATOM      4  C   UNL     1       1.344   8.866  19.268  0.00  0.00    +0.000 A 
ATOM      5  C   UNL     1       1.868   9.149  17.998  0.00  0.00    +0.000 A 
ATOM      6  C   UNL     1       2.893   8.374  17.453  0.00  0.00    +0.000 A 
ENDROOT
BRANCH   4   7
ATOM      7  S   UNL     1       0.059   9.885  20.031  0.00  0.00    +0.000 S 
ATOM      8  O   UNL     1      -1.024   9.963  19.070  0.00  0.00    +0.000 OA
ATOM      9  O   UNL     1      -0.161   9.324  21.349  0.00  0.00    +0.000 OA
BRANCH   7  10
ATOM     10  N   UNL     1       0.618  11.470  20.281  0.00  0.00    +0.000 NA
ATOM     11  C   UNL     1       0.160  12.292  21.422  0.00  0.00    +0.000 C 
ATOM     12  C   UNL     1      -1.134  13.007  21.052  0.00  0.00    +0.000 C 
ATOM     13  O   UNL     1      -1.116  13.655  19.762  0.00  0.00    +0.000 OA
ATOM     14  C   UNL     1      -0.392  13.019  18.690  0.00  0.00    +0.000 C 
ATOM     15  C   UNL     1       0.904  12.353  19.128  0.00  0.00    +0.000 C 
ENDBRANCH   7  10
ENDBRANCH   4   7
BRANCH   1  17
ATOM     16  O   UNL     1       4.767   6.562  16.337  0.00  0.00    +0.000 OA
ATOM     17  C   UNL     1       4.487   6.475  17.494  0.00  0.00    +0.000 C 
BRANCH  17  18
ATOM     18  O   UNL     1       5.086   5.654  18.419  0.00  0.00    +0.000 OA
BRANCH  18  19
ATOM     19  C   UNL     1       5.291   4.290  18.043  0.00  0.00    +0.000 C 
BRANCH  19  20
ATOM     20  C   UNL     1       3.995   3.545  17.763  0.00  0.00    +0.000 C 
ATOM     21  O   UNL     1       3.548   3.447  16.619  0.00  0.00    +0.000 OA
ATOM     22  N   UNL     1       3.415   2.893  18.854  0.00  0.00    +0.000 N 
ATOM     23  C   UNL     1       2.314   1.988  18.561  0.00  0.00    +0.000 C 
ATOM     24  C   UNL     1       0.977   2.717  18.588  0.00  0.00    +0.000 C 
ATOM     25  C   UNL     1       0.471   3.002  19.999  0.00  0.00    +0.000 C 
ATOM     26  C   UNL     1       1.428   3.798  20.888  0.00  0.00    +0.000 C 
ATOM     27  C   UNL     1       2.687   3.017  21.271  0.00  0.00    +0.000 C 
ATOM     28  C   UNL     1       3.811   3.127  20.244  0.00  0.00    +0.000 C 
ENDBRANCH  19  20
ENDBRANCH  18  19
ENDBRANCH  17  18
ENDBRANCH   1  17
TORSDOF 6
ENDMDL
MODEL 6
REMARK VINA RESULT:      -7.4      1.266      1.900
REMARK  Name = 
REMARK  6 active torsions:
REMARK  status: ('A' for Active; 'I' for Inactive)
REMARK    1  A    between atoms: C_2  and  O_3
REMARK    2  A    between atoms: C_2  and  C_14
REMARK    3  A    between atoms: O_3  and  C_4
REMARK    4  A    between atoms: C_4  and  C_5
REMARK    5  A    between atoms: C_17  and  S_18
REMARK    6  A    between atoms: S_18  and  N_21
REMARK                            x       y       z     vdW  Elec       q    Type
REMARK                         _______ _______ _______ _____ _____    ______ ____
ROOT
ATOM      1  C   UNL     1       3.817   6.669  18.214  0.00  0.00    +0.000 A 
ATOM      2  C   UNL     1       3.440   7.855  17.538  0.00  0.00    +0.000 A 
ATOM      3  C   UNL     1       2.450   8.710  18.076  0.00  0.00    +0.000 A 
ATOM      4  C   UNL     1       1.764   8.340  19.236  0.00  0.00    +0.000 A 
ATOM      5  C   UNL     1       2.176   7.187  19.919  0.00  0.00    +0.000 A 
ATOM      6  C   UNL     1       3.167   6.355  19.397  0.00  0.00    +0.000 A 
ENDROOT
BRANCH   4   7
ATOM      7  S   UNL     1       0.441   9.407  19.852  0.00  0.00    +0.000 S 
ATOM      8  O   UNL     1       0.163  10.364  18.798  0.00  0.00    +0.000 OA
ATOM      9  O   UNL     1      -0.596   8.516  20.333  0.00  0.00    +0.000 OA
BRANCH   7  10
ATOM     10  N   UNL     1       0.964  10.294  21.204  0.00  0.00    +0.000 NA
ATOM     11  C   UNL     1       1.201   9.655  22.517  0.00  0.00    +0.000 C 
ATOM     12  C   UNL     1      -0.105   9.593  23.299  0.00  0.00    +0.000 C 
ATOM     13  O   UNL     1      -0.859  10.823  23.312  0.00  0.00    +0.000 OA
ATOM     14  C   UNL     1      -0.848  11.643  22.126  0.00  0.00    +0.000 C 
ATOM     15  C   UNL     1       0.497  11.682  21.414  0.00  0.00    +0.000 C 
ENDBRANCH   7  10
ENDBRANCH   4   7
BRANCH   1  17
ATOM     16  O   UNL     1       5.963   5.682  18.172  0.00  0.00    +0.000 OA
ATOM     17  C   UNL     1       4.869   5.742  17.701  0.00  0.00    +0.000 C 
BRANCH  17  18
ATOM     18  O   UNL     1       4.398   5.014  16.635  0.00  0.00    +0.000 OA
BRANCH  18  19
ATOM     19  C   UNL     1       4.181   3.617  16.845  0.00  0.00    +0.000 C 
BRANCH  19  20
ATOM     20  C   UNL     1       2.797   3.300  17.387  0.00  0.00    +0.000 C 
ATOM     21  O   UNL     1       1.779   3.600  16.759  0.00  0.00    +0.000 OA
ATOM     22  N   UNL     1       2.757   2.557  18.570  0.00  0.00    +0.000 N 
ATOM     23  C   UNL     1       1.456   2.047  18.975  0.00  0.00    +0.000 C 
ATOM     24  C   UNL     1       0.720   3.046  19.857  0.00  0.00    +0.000 C 
ATOM     25  C   UNL     1       1.238   3.086  21.292  0.00  0.00    +0.000 C 
ATOM     26  C   UNL     1       2.732   3.382  21.438  0.00  0.00    +0.000 C 
ATOM     27  C   UNL     1       3.625   2.250  20.924  0.00  0.00    +0.000 C 
ATOM     28  C   UNL     1       3.922   2.337  19.429  0.00  0.00    +0.000 C 
ENDBRANCH  19  20
ENDBRANCH  18  19
ENDBRANCH  17  18
ENDBRANCH   1  17
TORSDOF 6
ENDMDL
MODEL 7
REMARK VINA RESULT:      -7.3      0.921      1.145
REMARK  Name = 
REMARK  6 active torsions:
REMARK  status: ('A' for Active; 'I' for Inactive)
REMARK    1  A    between atoms: C_2  and  O_3
REMARK    2  A    between atoms: C_2  and  C_14
REMARK    3  A    between atoms: O_3  and  C_4
REMARK    4  A    between atoms: C_4  and  C_5
REMARK    5  A    between atoms: C_17  and  S_18
REMARK    6  A    between atoms: S_18  and  N_21
REMARK                            x       y       z     vdW  Elec       q    Type
REMARK                         _______ _______ _______ _____ _____    ______ ____
ROOT
ATOM      1  C   UNL     1       3.389   6.810  18.623  0.00  0.00    +0.000 A 
ATOM      2  C   UNL     1       2.763   6.645  19.883  0.00  0.00    +0.000 A 
ATOM      3  C   UNL     1       1.812   7.584  20.346  0.00  0.00    +0.000 A 
ATOM      4  C   UNL     1       1.552   8.739  19.602  0.00  0.00    +0.000 A 
ATOM      5  C   UNL     1       2.145   8.869  18.338  0.00  0.00    +0.000 A 
ATOM      6  C   UNL     1       3.068   7.931  17.874  0.00  0.00    +0.000 A 
ENDROOT
BRANCH   4   7
ATOM      7  S   UNL     1       0.400   9.966  20.260  0.00  0.00    +0.000 S 
ATOM      8  O   UNL     1      -0.837   9.260  20.534  0.00  0.00    +0.000 OA
ATOM      9  O   UNL     1       1.111  10.650  21.321  0.00  0.00    +0.000 OA
BRANCH   7  10
ATOM     10  N   UNL     1       0.048  11.149  19.091  0.00  0.00    +0.000 NA
ATOM     11  C   UNL     1       0.793  12.425  19.019  0.00  0.00    +0.000 C 
ATOM     12  C   UNL     1       0.161  13.441  19.962  0.00  0.00    +0.000 C 
ATOM     13  O   UNL     1      -1.277  13.531  19.875  0.00  0.00    +0.000 OA
ATOM     14  C   UNL     1      -2.022  12.323  19.622  0.00  0.00    +0.000 C 
ATOM     15  C   UNL     1      -1.345  11.371  18.647  0.00  0.00    +0.000 C 
ENDBRANCH   7  10
ENDBRANCH   4   7
BRANCH   1  17
ATOM     16  O   UNL     1       5.394   5.560  18.648  0.00  0.00    +0.000 OA
ATOM     17  C   UNL     1       4.384   5.839  18.079  0.00  0.00    +0.000 C 
BRANCH  17  18
ATOM     18  O   UNL     1       3.973   5.354  16.860  0.00  0.00    +0.000 OA
BRANCH  18  19
ATOM     19  C   UNL     1       3.668   3.959  16.784  0.00  0.00    +0.000 C 
BRANCH  19  20
ATOM     20  C   UNL     1       2.366   3.591  17.477  0.00  0.00    +0.000 C 
ATOM     21  O   UNL     1       1.277   3.957  17.029  0.00  0.00    +0.000 OA
ATOM     22  N   UNL     1       2.476   2.731  18.572  0.00  0.00    +0.000 N 
ATOM     23  C   UNL     1       1.234   2.185  19.098  0.00  0.00    +0.000 C 
ATOM     24  C   UNL     1       0.642   3.090  20.171  0.00  0.00    +0.000 C 
ATOM     25  C   UNL     1       1.352   2.980  21.516  0.00  0.00    +0.000 C 
ATOM     26  C   UNL     1       2.857   3.255  21.485  0.00  0.00    +0.000 C 
ATOM     27  C   UNL     1       3.652   2.180  20.740  0.00  0.00    +0.000 C 
ATOM     28  C   UNL     1       3.743   2.420  19.236  0.00  0.00    +0.000 C 
ENDBRANCH  19  20
ENDBRANCH  18  19
ENDBRANCH  17  18
ENDBRANCH   1  17
TORSDOF 6
ENDMDL
MODEL 8
REMARK VINA RESULT:      -7.3      2.208      8.608
REMARK  Name = 
REMARK  6 active torsions:
REMARK  status: ('A' for Active; 'I' for Inactive)
REMARK    1  A    between atoms: C_2  and  O_3
REMARK    2  A    between atoms: C_2  and  C_14
REMARK    3  A    between atoms: O_3  and  C_4
REMARK    4  A    between atoms: C_4  and  C_5
REMARK    5  A    between atoms: C_17  and  S_18
REMARK    6  A    between atoms: S_18  and  N_21
REMARK                            x       y       z     vdW  Elec       q    Type
REMARK                         _______ _______ _______ _____ _____    ______ ____
ROOT
ATOM      1  C   UNL     1       2.018   8.135  19.004  0.00  0.00    +0.000 A 
ATOM      2  C   UNL     1       2.163   7.110  19.971  0.00  0.00    +0.000 A 
ATOM      3  C   UNL     1       3.058   6.035  19.757  0.00  0.00    +0.000 A 
ATOM      4  C   UNL     1       3.738   5.925  18.541  0.00  0.00    +0.000 A 
ATOM      5  C   UNL     1       3.621   6.968  17.610  0.00  0.00    +0.000 A 
ATOM      6  C   UNL     1       2.753   8.037  17.832  0.00  0.00    +0.000 A 
ENDROOT
BRANCH   4   7
ATOM      7  S   UNL     1       4.806   4.494  18.259  0.00  0.00    +0.000 S 
ATOM      8  O   UNL     1       5.452   4.712  16.979  0.00  0.00    +0.000 OA
ATOM      9  O   UNL     1       5.592   4.341  19.466  0.00  0.00    +0.000 OA
BRANCH   7  10
ATOM     10  N   UNL     1       3.883   3.074  18.115  0.00  0.00    +0.000 NA
ATOM     11  C   UNL     1       2.641   3.024  17.312  0.00  0.00    +0.000 C 
ATOM     12  C   UNL     1       1.463   3.479  18.163  0.00  0.00    +0.000 C 
ATOM     13  O   UNL     1       1.402   2.883  19.476  0.00  0.00    +0.000 OA
ATOM     14  C   UNL     1       2.641   2.621  20.165  0.00  0.00    +0.000 C 
ATOM     15  C   UNL     1       3.764   2.141  19.256  0.00  0.00    +0.000 C 
ENDBRANCH   7  10
ENDBRANCH   4   7
BRANCH   1  17
ATOM     16  O   UNL     1       0.919  10.117  18.338  0.00  0.00    +0.000 OA
ATOM     17  C   UNL     1       1.104   9.300  19.187  0.00  0.00    +0.000 C 
BRANCH  17  18
ATOM     18  O   UNL     1       0.548   9.289  20.444  0.00  0.00    +0.000 OA
BRANCH  18  19
ATOM     19  C   UNL     1       1.088  10.200  21.404  0.00  0.00    +0.000 C 
BRANCH  19  20
ATOM     20  C   UNL     1       0.043  10.754  22.359  0.00  0.00    +0.000 C 
ATOM     21  O   UNL     1      -0.199  10.200  23.433  0.00  0.00    +0.000 OA
ATOM     22  N   UNL     1      -0.534  11.974  21.996  0.00  0.00    +0.000 N 
ATOM     23  C   UNL     1      -1.355  12.630  23.002  0.00  0.00    +0.000 C 
ATOM     24  C   UNL     1      -2.808  12.185  22.906  0.00  0.00    +0.000 C 
ATOM     25  C   UNL     1      -3.566  12.833  21.751  0.00  0.00    +0.000 C 
ATOM     26  C   UNL     1      -2.948  12.628  20.368  0.00  0.00    +0.000 C 
ATOM     27  C   UNL     1      -1.618  13.364  20.185  0.00  0.00    +0.000 C 
ATOM     28  C   UNL     1      -0.407  12.567  20.663  0.00  0.00    +0.000 C 
ENDBRANCH  19  20
ENDBRANCH  18  19
ENDBRANCH  17  18
ENDBRANCH   1  17
TORSDOF 6
ENDMDL
MODEL 9
REMARK VINA RESULT:      -7.3      1.898      3.734
REMARK  Name = 
REMARK  6 active torsions:
REMARK  status: ('A' for Active; 'I' for Inactive)
REMARK    1  A    between atoms: C_2  and  O_3
REMARK    2  A    between atoms: C_2  and  C_14
REMARK    3  A    between atoms: O_3  and  C_4
REMARK    4  A    between atoms: C_4  and  C_5
REMARK    5  A    between atoms: C_17  and  S_18
REMARK    6  A    between atoms: S_18  and  N_21
REMARK                            x       y       z     vdW  Elec       q    Type
REMARK                         _______ _______ _______ _____ _____    ______ ____
ROOT
ATOM      1  C   UNL     1       2.149   6.390  19.555  0.00  0.00    +0.000 A 
ATOM      2  C   UNL     1       2.411   7.048  18.328  0.00  0.00    +0.000 A 
ATOM      3  C   UNL     1       2.145   8.430  18.178  0.00  0.00    +0.000 A 
ATOM      4  C   UNL     1       1.529   9.139  19.212  0.00  0.00    +0.000 A 
ATOM      5  C   UNL     1       1.315   8.488  20.436  0.00  0.00    +0.000 A 
ATOM      6  C   UNL     1       1.597   7.130  20.589  0.00  0.00    +0.000 A 
ENDROOT
BRANCH   4   7
ATOM      7  S   UNL     1       1.119  10.881  18.960  0.00  0.00    +0.000 S 
ATOM      8  O   UNL     1       2.194  11.443  18.166  0.00  0.00    +0.000 OA
ATOM      9  O   UNL     1      -0.246  10.901  18.475  0.00  0.00    +0.000 OA
BRANCH   7  10
ATOM     10  N   UNL     1       1.105  11.716  20.440  0.00  0.00    +0.000 NA
ATOM     11  C   UNL     1      -0.098  11.769  21.299  0.00  0.00    +0.000 C 
ATOM     12  C   UNL     1      -0.993  12.921  20.857  0.00  0.00    +0.000 C 
ATOM     13  O   UNL     1      -0.304  14.170  20.641  0.00  0.00    +0.000 OA
ATOM     14  C   UNL     1       1.027  14.129  20.088  0.00  0.00    +0.000 C 
ATOM     15  C   UNL     1       1.873  12.971  20.598  0.00  0.00    +0.000 C 
ENDBRANCH   7  10
ENDBRANCH   4   7
BRANCH   1  17
ATOM     16  O   UNL     1       2.580   4.468  20.859  0.00  0.00    +0.000 OA
ATOM     17  C   UNL     1       2.428   4.941  19.774  0.00  0.00    +0.000 C 
BRANCH  17  18
ATOM     18  O   UNL     1       2.496   4.272  18.575  0.00  0.00    +0.000 OA
BRANCH  18  19
ATOM     19  C   UNL     1       3.452   3.215  18.472  0.00  0.00    +0.000 C 
BRANCH  19  20
ATOM     20  C   UNL     1       4.882   3.674  18.710  0.00  0.00    +0.000 C 
ATOM     21  O   UNL     1       5.463   3.432  19.770  0.00  0.00    +0.000 OA
ATOM     22  N   UNL     1       5.521   4.277  17.624  0.00  0.00    +0.000 N 
ATOM     23  C   UNL     1       6.951   4.508  17.756  0.00  0.00    +0.000 C 
ATOM     24  C   UNL     1       7.237   5.869  18.377  0.00  0.00    +0.000 C 
ATOM     25  C   UNL     1       7.061   7.029  17.401  0.00  0.00    +0.000 C 
ATOM     26  C   UNL     1       5.684   7.123  16.741  0.00  0.00    +0.000 C 
ATOM     27  C   UNL     1       5.405   5.981  15.761  0.00  0.00    +0.000 C 
ATOM     28  C   UNL     1       4.820   4.736  16.423  0.00  0.00    +0.000 C 
ENDBRANCH  19  20
ENDBRANCH  18  19
ENDBRANCH  17  18
ENDBRANCH   1  17
TORSDOF 6
ENDMDL
