MODEL 1
REMARK VINA RESULT:      -6.7      0.000      0.000
REMARK  Name = 
REMARK  14 active torsions:
REMARK  status: ('A' for Active; 'I' for Inactive)
REMARK    1  A    between atoms: C_1  and  O_2
REMARK    2  A    between atoms: O_2  and  C_3
REMARK    3  A    between atoms: C_6  and  O_7
REMARK    4  A    between atoms: O_7  and  C_8
REMARK    5  A    between atoms: C_8  and  C_9
REMARK    6  A    between atoms: C_9  and  O_10
REMARK    7  A    between atoms: C_9  and  C_11
REMARK    8  A    between atoms: C_11  and  N_12
REMARK    9  A    between atoms: C_15  and  O_16
REMARK   10  A    between atoms: C_19  and  C_20
REMARK   11  A    between atoms: C_20  and  N_21
REMARK   12  A    between atoms: N_21  and  C_22
REMARK   13  A    between atoms: C_22  and  C_23
REMARK   14  A    between atoms: C_23  and  C_24
REMARK                            x       y       z     vdW  Elec       q    Type
REMARK                         _______ _______ _______ _____ _____    ______ ____
ROOT
ATOM      1  C   UNL     1       6.548   4.258  14.465  0.00  0.00    +0.000 A 
ATOM      2  C   UNL     1       5.208   4.019  14.731  0.00  0.00    +0.000 A 
ATOM      3  C   UNL     1       4.619   4.510  15.890  0.00  0.00    +0.000 A 
ATOM      4  C   UNL     1       5.353   5.265  16.820  0.00  0.00    +0.000 A 
ATOM      5  C   UNL     1       6.709   5.525  16.559  0.00  0.00    +0.000 A 
ATOM      6  C   UNL     1       7.296   4.998  15.380  0.00  0.00    +0.000 A 
ENDROOT
BRANCH   1   8
ATOM      7  C   UNL     1       5.995   3.285  12.370  0.00  0.00    +0.000 C 
ATOM      8  O   UNL     1       6.984   3.716  13.292  0.00  0.00    +0.000 OA
ENDBRANCH   1   8
BRANCH   4   9
ATOM      9  O   UNL     1       4.807   5.753  17.992  0.00  0.00    +0.000 OA
BRANCH   9  10
ATOM     10  C   UNL     1       3.858   6.807  17.793  0.00  0.00    +0.000 C 
BRANCH  10  11
ATOM     11  C   UNL     1       2.700   6.811  18.797  0.00  0.00    +0.000 C 
BRANCH  11  12
ATOM     12  O   UNL     1       2.115   8.113  18.874  0.00  0.00    +0.000 OA
ATOM     13  H   UNL     1       2.651   8.719  18.336  0.00  0.00    +0.000 HD
ENDBRANCH  11  12
BRANCH  11  14
ATOM     14  C   UNL     1       1.664   5.756  18.297  0.00  0.00    +0.000 C 
BRANCH  14  15
ATOM     15  N   UNL     1       1.513   4.545  19.121  0.00  0.00    +0.000 NA
ATOM     16  C   UNL     1       2.005   4.762  20.489  0.00  0.00    +0.000 C 
ATOM     17  C   UNL     1       1.778   3.527  21.357  0.00  0.00    +0.000 C 
ATOM     18  C   UNL     1       2.390   2.272  20.745  0.00  0.00    +0.000 C 
ATOM     19  C   UNL     1       1.983   2.116  19.283  0.00  0.00    +0.000 C 
ATOM     20  C   UNL     1       2.200   3.405  18.488  0.00  0.00    +0.000 C 
BRANCH  18  21
ATOM     21  O   UNL     1       3.813   2.296  20.868  0.00  0.00    +0.000 OA
ATOM     22  H   UNL     1       4.088   3.181  21.156  0.00  0.00    +0.000 HD
ENDBRANCH  18  21
ENDBRANCH  14  15
ENDBRANCH  11  14
ENDBRANCH  10  11
ENDBRANCH   9  10
ENDBRANCH   4   9
BRANCH   5  23
ATOM     23  C   UNL     1       7.602   6.273  17.528  0.00  0.00    +0.000 C 
BRANCH  23  24
ATOM     24  N   UNL     1       7.984   7.600  17.014  0.00  0.00    +0.000 NA
ATOM     25  H   UNL     1       7.268   7.882  16.342  0.00  0.00    +0.000 HD
BRANCH  24  26
ATOM     26  C   UNL     1       8.054   8.614  18.077  0.00  0.00    +0.000 C 
BRANCH  26  27
ATOM     27  C   UNL     1       8.222  10.041  17.533  0.00  0.00    +0.000 C 
BRANCH  27  28
ATOM     28  C   UNL     1       9.051  10.917  18.429  0.00  0.00    +0.000 A 
ATOM     29  C   UNL     1       9.468  10.468  19.686  0.00  0.00    +0.000 A 
ATOM     30  C   UNL     1      10.274  11.285  20.472  0.00  0.00    +0.000 A 
ATOM     31  C   UNL     1      10.625  12.524  19.981  0.00  0.00    +0.000 A 
ATOM     32  N   UNL     1      10.228  13.001  18.780  0.00  0.00    +0.000 NA
ATOM     33  C   UNL     1       9.447  12.189  18.037  0.00  0.00    +0.000 A 
ENDBRANCH  27  28
ENDBRANCH  26  27
ENDBRANCH  24  26
ENDBRANCH  23  24
ENDBRANCH   5  23
TORSDOF 13
ENDMDL
MODEL 2
REMARK VINA RESULT:      -6.7      2.462      3.793
REMARK  Name = 
REMARK  14 active torsions:
REMARK  status: ('A' for Active; 'I' for Inactive)
REMARK    1  A    between atoms: C_1  and  O_2
REMARK    2  A    between atoms: O_2  and  C_3
REMARK    3  A    between atoms: C_6  and  O_7
REMARK    4  A    between atoms: O_7  and  C_8
REMARK    5  A    between atoms: C_8  and  C_9
REMARK    6  A    between atoms: C_9  and  O_10
REMARK    7  A    between atoms: C_9  and  C_11
REMARK    8  A    between atoms: C_11  and  N_12
REMARK    9  A    between atoms: C_15  and  O_16
REMARK   10  A    between atoms: C_19  and  C_20
REMARK   11  A    between atoms: C_20  and  N_21
REMARK   12  A    between atoms: N_21  and  C_22
REMARK   13  A    between atoms: C_22  and  C_23
REMARK   14  A    between atoms: C_23  and  C_24
REMARK                            x       y       z     vdW  Elec       q    Type
REMARK                         _______ _______ _______ _____ _____    ______ ____
ROOT
ATOM      1  C   UNL     1       5.915   4.175  15.200  0.00  0.00    +0.000 A 
ATOM      2  C   UNL     1       4.863   3.555  15.858  0.00  0.00    +0.000 A 
ATOM      3  C   UNL     1       4.222   4.185  16.919  0.00  0.00    +0.000 A 
ATOM      4  C   UNL     1       4.609   5.465  17.351  0.00  0.00    +0.000 A 
ATOM      5  C   UNL     1       5.666   6.111  16.687  0.00  0.00    +0.000 A 
ATOM      6  C   UNL     1       6.320   5.442  15.620  0.00  0.00    +0.000 A 
ENDROOT
BRANCH   1   8
ATOM      7  C   UNL     1       6.073   3.797  12.861  0.00  0.00    +0.000 C 
ATOM      8  O   UNL     1       6.442   3.436  14.183  0.00  0.00    +0.000 OA
ENDBRANCH   1   8
BRANCH   4   9
ATOM      9  O   UNL     1       4.009   6.114  18.412  0.00  0.00    +0.000 OA
BRANCH   9  10
ATOM     10  C   UNL     1       3.369   5.234  19.342  0.00  0.00    +0.000 C 
BRANCH  10  11
ATOM     11  C   UNL     1       2.155   5.842  20.055  0.00  0.00    +0.000 C 
BRANCH  11  12
ATOM     12  O   UNL     1       2.090   5.379  21.406  0.00  0.00    +0.000 OA
ATOM     13  H   UNL     1       1.872   4.431  21.392  0.00  0.00    +0.000 HD
ENDBRANCH  11  12
BRANCH  11  14
ATOM     14  C   UNL     1       2.327   7.392  19.997  0.00  0.00    +0.000 C 
BRANCH  14  15
ATOM     15  N   UNL     1       1.184   8.194  20.464  0.00  0.00    +0.000 NA
ATOM     16  C   UNL     1       0.911   9.318  19.558  0.00  0.00    +0.000 C 
ATOM     17  C   UNL     1      -0.319  10.102  20.008  0.00  0.00    +0.000 C 
ATOM     18  C   UNL     1      -0.203  10.575  21.452  0.00  0.00    +0.000 C 
ATOM     19  C   UNL     1       0.208   9.433  22.376  0.00  0.00    +0.000 C 
ATOM     20  C   UNL     1       1.419   8.670  21.839  0.00  0.00    +0.000 C 
BRANCH  18  21
ATOM     21  O   UNL     1       0.724  11.658  21.554  0.00  0.00    +0.000 OA
ATOM     22  H   UNL     1       1.315  11.494  22.306  0.00  0.00    +0.000 HD
ENDBRANCH  18  21
ENDBRANCH  14  15
ENDBRANCH  11  14
ENDBRANCH  10  11
ENDBRANCH   9  10
ENDBRANCH   4   9
BRANCH   5  23
ATOM     23  C   UNL     1       6.200   7.462  17.117  0.00  0.00    +0.000 C 
BRANCH  23  24
ATOM     24  N   UNL     1       7.673   7.508  17.081  0.00  0.00    +0.000 NA
ATOM     25  H   UNL     1       7.941   7.928  16.190  0.00  0.00    +0.000 HD
BRANCH  24  26
ATOM     26  C   UNL     1       8.234   8.320  18.171  0.00  0.00    +0.000 C 
BRANCH  26  27
ATOM     27  C   UNL     1       8.234   9.824  17.858  0.00  0.00    +0.000 C 
BRANCH  27  28
ATOM     28  C   UNL     1       9.331  10.572  18.562  0.00  0.00    +0.000 A 
ATOM     29  C   UNL     1      10.364  11.177  17.840  0.00  0.00    +0.000 A 
ATOM     30  C   UNL     1      11.339  11.902  18.516  0.00  0.00    +0.000 A 
ATOM     31  C   UNL     1      11.255  11.988  19.889  0.00  0.00    +0.000 A 
ATOM     32  N   UNL     1      10.284  11.402  20.625  0.00  0.00    +0.000 NA
ATOM     33  C   UNL     1       9.349  10.705  19.944  0.00  0.00    +0.000 A 
ENDBRANCH  27  28
ENDBRANCH  26  27
ENDBRANCH  24  26
ENDBRANCH  23  24
ENDBRANCH   5  23
TORSDOF 13
ENDMDL
MODEL 3
REMARK VINA RESULT:      -6.7      5.470      9.671
REMARK  Name = 
REMARK  14 active torsions:
REMARK  status: ('A' for Active; 'I' for Inactive)
REMARK    1  A    between atoms: C_1  and  O_2
REMARK    2  A    between atoms: O_2  and  C_3
REMARK    3  A    between atoms: C_6  and  O_7
REMARK    4  A    between atoms: O_7  and  C_8
REMARK    5  A    between atoms: C_8  and  C_9
REMARK    6  A    between atoms: C_9  and  O_10
REMARK    7  A    between atoms: C_9  and  C_11
REMARK    8  A    between atoms: C_11  and  N_12
REMARK    9  A    between atoms: C_15  and  O_16
REMARK   10  A    between atoms: C_19  and  C_20
REMARK   11  A    between atoms: C_20  and  N_21
REMARK   12  A    between atoms: N_21  and  C_22
REMARK   13  A    between atoms: C_22  and  C_23
REMARK   14  A    between atoms: C_23  and  C_24
REMARK                            x       y       z     vdW  Elec       q    Type
REMARK                         _______ _______ _______ _____ _____    ______ ____
ROOT
ATOM      1  C   UNL     1       0.135  10.189  22.177  0.00  0.00    +0.000 A 
ATOM      2  C   UNL     1       0.829   9.012  22.410  0.00  0.00    +0.000 A 
ATOM      3  C   UNL     1       1.455   8.341  21.366  0.00  0.00    +0.000 A 
ATOM      4  C   UNL     1       1.413   8.833  20.051  0.00  0.00    +0.000 A 
ATOM      5  C   UNL     1       0.723  10.031  19.800  0.00  0.00    +0.000 A 
ATOM      6  C   UNL     1       0.074  10.690  20.876  0.00  0.00    +0.000 A 
ENDROOT
BRANCH   1   8
ATOM      7  C   UNL     1      -1.603  11.501  23.123  0.00  0.00    +0.000 C 
ATOM      8  O   UNL     1      -0.424  10.732  23.296  0.00  0.00    +0.000 OA
ENDBRANCH   1   8
BRANCH   4   9
ATOM      9  O   UNL     1       2.006   8.185  18.985  0.00  0.00    +0.000 OA
BRANCH   9  10
ATOM     10  C   UNL     1       1.886   6.759  19.036  0.00  0.00    +0.000 C 
BRANCH  10  11
ATOM     11  C   UNL     1       3.209   6.023  19.279  0.00  0.00    +0.000 C 
BRANCH  11  12
ATOM     12  O   UNL     1       3.184   5.364  20.549  0.00  0.00    +0.000 OA
ATOM     13  H   UNL     1       2.799   5.974  21.199  0.00  0.00    +0.000 HD
ENDBRANCH  11  12
BRANCH  11  14
ATOM     14  C   UNL     1       3.377   4.998  18.115  0.00  0.00    +0.000 C 
BRANCH  14  15
ATOM     15  N   UNL     1       4.499   5.234  17.192  0.00  0.00    +0.000 NA
ATOM     16  C   UNL     1       4.934   3.989  16.544  0.00  0.00    +0.000 C 
ATOM     17  C   UNL     1       6.049   4.253  15.535  0.00  0.00    +0.000 C 
ATOM     18  C   UNL     1       7.228   4.989  16.159  0.00  0.00    +0.000 C 
ATOM     19  C   UNL     1       6.763   6.213  16.942  0.00  0.00    +0.000 C 
ATOM     20  C   UNL     1       5.619   5.879  17.900  0.00  0.00    +0.000 C 
BRANCH  18  21
ATOM     21  O   UNL     1       7.978   4.113  17.002  0.00  0.00    +0.000 OA
ATOM     22  H   UNL     1       7.375   3.698  17.639  0.00  0.00    +0.000 HD
ENDBRANCH  18  21
ENDBRANCH  14  15
ENDBRANCH  11  14
ENDBRANCH  10  11
ENDBRANCH   9  10
ENDBRANCH   4   9
BRANCH   5  23
ATOM     23  C   UNL     1       0.564  10.610  18.409  0.00  0.00    +0.000 C 
BRANCH  23  24
ATOM     24  N   UNL     1       0.474  12.081  18.432  0.00  0.00    +0.000 NA
ATOM     25  H   UNL     1       1.209  12.439  17.819  0.00  0.00    +0.000 HD
BRANCH  24  26
ATOM     26  C   UNL     1      -0.823  12.570  17.944  0.00  0.00    +0.000 C 
BRANCH  26  27
ATOM     27  C   UNL     1      -1.889  11.467  17.865  0.00  0.00    +0.000 C 
BRANCH  27  28
ATOM     28  C   UNL     1      -3.133  11.793  18.641  0.00  0.00    +0.000 A 
ATOM     29  C   UNL     1      -3.059  12.460  19.867  0.00  0.00    +0.000 A 
ATOM     30  C   UNL     1      -4.232  12.791  20.539  0.00  0.00    +0.000 A 
ATOM     31  C   UNL     1      -5.435  12.433  19.969  0.00  0.00    +0.000 A 
ATOM     32  N   UNL     1      -5.547  11.771  18.796  0.00  0.00    +0.000 NA
ATOM     33  C   UNL     1      -4.395  11.464  18.164  0.00  0.00    +0.000 A 
ENDBRANCH  27  28
ENDBRANCH  26  27
ENDBRANCH  24  26
ENDBRANCH  23  24
ENDBRANCH   5  23
TORSDOF 13
ENDMDL
MODEL 4
REMARK VINA RESULT:      -6.6      3.725      8.546
REMARK  Name = 
REMARK  14 active torsions:
REMARK  status: ('A' for Active; 'I' for Inactive)
REMARK    1  A    between atoms: C_1  and  O_2
REMARK    2  A    between atoms: O_2  and  C_3
REMARK    3  A    between atoms: C_6  and  O_7
REMARK    4  A    between atoms: O_7  and  C_8
REMARK    5  A    between atoms: C_8  and  C_9
REMARK    6  A    between atoms: C_9  and  O_10
REMARK    7  A    between atoms: C_9  and  C_11
REMARK    8  A    between atoms: C_11  and  N_12
REMARK    9  A    between atoms: C_15  and  O_16
REMARK   10  A    between atoms: C_19  and  C_20
REMARK   11  A    between atoms: C_20  and  N_21
REMARK   12  A    between atoms: N_21  and  C_22
REMARK   13  A    between atoms: C_22  and  C_23
REMARK   14  A    between atoms: C_23  and  C_24
REMARK                            x       y       z     vdW  Elec       q    Type
REMARK                         _______ _______ _______ _____ _____    ______ ____
ROOT
ATOM      1  C   UNL     1       1.592   8.540  19.321  0.00  0.00    +0.000 A 
ATOM      2  C   UNL     1       2.097   8.716  18.042  0.00  0.00    +0.000 A 
ATOM      3  C   UNL     1       2.959   7.777  17.487  0.00  0.00    +0.000 A 
ATOM      4  C   UNL     1       3.338   6.624  18.194  0.00  0.00    +0.000 A 
ATOM      5  C   UNL     1       2.826   6.426  19.487  0.00  0.00    +0.000 A 
ATOM      6  C   UNL     1       1.964   7.406  20.043  0.00  0.00    +0.000 A 
ENDROOT
BRANCH   1   8
ATOM      7  C   UNL     1       0.846  10.777  19.037  0.00  0.00    +0.000 C 
ATOM      8  O   UNL     1       0.761   9.542  19.729  0.00  0.00    +0.000 OA
ENDBRANCH   1   8
BRANCH   4   9
ATOM      9  O   UNL     1       4.206   5.679  17.683  0.00  0.00    +0.000 OA
BRANCH   9  10
ATOM     10  C   UNL     1       5.589   6.001  17.873  0.00  0.00    +0.000 C 
BRANCH  10  11
ATOM     11  C   UNL     1       6.278   6.580  16.632  0.00  0.00    +0.000 C 
BRANCH  11  12
ATOM     12  O   UNL     1       7.237   7.571  17.014  0.00  0.00    +0.000 OA
ATOM     13  H   UNL     1       6.822   8.157  17.670  0.00  0.00    +0.000 HD
ENDBRANCH  11  12
BRANCH  11  14
ATOM     14  C   UNL     1       6.963   5.387  15.897  0.00  0.00    +0.000 C 
BRANCH  14  15
ATOM     15  N   UNL     1       6.542   5.146  14.506  0.00  0.00    +0.000 NA
ATOM     16  C   UNL     1       5.661   3.974  14.407  0.00  0.00    +0.000 C 
ATOM     17  C   UNL     1       5.170   3.775  12.975  0.00  0.00    +0.000 C 
ATOM     18  C   UNL     1       6.320   3.685  11.979  0.00  0.00    +0.000 C 
ATOM     19  C   UNL     1       7.306   4.834  12.169  0.00  0.00    +0.000 C 
ATOM     20  C   UNL     1       7.719   4.998  13.632  0.00  0.00    +0.000 C 
BRANCH  18  21
ATOM     21  O   UNL     1       6.990   2.428  12.097  0.00  0.00    +0.000 OA
ATOM     22  H   UNL     1       7.164   2.253  13.035  0.00  0.00    +0.000 HD
ENDBRANCH  18  21
ENDBRANCH  14  15
ENDBRANCH  11  14
ENDBRANCH  10  11
ENDBRANCH   9  10
ENDBRANCH   4   9
BRANCH   5  23
ATOM     23  C   UNL     1       3.224   5.251  20.356  0.00  0.00    +0.000 C 
BRANCH  23  24
ATOM     24  N   UNL     1       2.286   5.050  21.474  0.00  0.00    +0.000 NA
ATOM     25  H   UNL     1       1.473   5.644  21.299  0.00  0.00    +0.000 HD
BRANCH  24  26
ATOM     26  C   UNL     1       1.832   3.655  21.580  0.00  0.00    +0.000 C 
BRANCH  26  27
ATOM     27  C   UNL     1       1.012   3.197  20.364  0.00  0.00    +0.000 C 
BRANCH  27  28
ATOM     28  C   UNL     1       1.867   2.752  19.212  0.00  0.00    +0.000 A 
ATOM     29  C   UNL     1       1.699   3.306  17.939  0.00  0.00    +0.000 A 
ATOM     30  C   UNL     1       2.537   2.908  16.903  0.00  0.00    +0.000 A 
ATOM     31  C   UNL     1       3.505   1.964  17.171  0.00  0.00    +0.000 A 
ATOM     32  N   UNL     1       3.687   1.392  18.382  0.00  0.00    +0.000 NA
ATOM     33  C   UNL     1       2.861   1.796  19.370  0.00  0.00    +0.000 A 
ENDBRANCH  27  28
ENDBRANCH  26  27
ENDBRANCH  24  26
ENDBRANCH  23  24
ENDBRANCH   5  23
TORSDOF 13
ENDMDL
MODEL 5
REMARK VINA RESULT:      -6.6      5.196      8.664
REMARK  Name = 
REMARK  14 active torsions:
REMARK  status: ('A' for Active; 'I' for Inactive)
REMARK    1  A    between atoms: C_1  and  O_2
REMARK    2  A    between atoms: O_2  and  C_3
REMARK    3  A    between atoms: C_6  and  O_7
REMARK    4  A    between atoms: O_7  and  C_8
REMARK    5  A    between atoms: C_8  and  C_9
REMARK    6  A    between atoms: C_9  and  O_10
REMARK    7  A    between atoms: C_9  and  C_11
REMARK    8  A    between atoms: C_11  and  N_12
REMARK    9  A    between atoms: C_15  and  O_16
REMARK   10  A    between atoms: C_19  and  C_20
REMARK   11  A    between atoms: C_20  and  N_21
REMARK   12  A    between atoms: N_21  and  C_22
REMARK   13  A    between atoms: C_22  and  C_23
REMARK   14  A    between atoms: C_23  and  C_24
REMARK                            x       y       z     vdW  Elec       q    Type
REMARK                         _______ _______ _______ _____ _____    ______ ____
ROOT
ATOM      1  C   UNL     1       1.989   9.355  18.410  0.00  0.00    +0.000 A 
ATOM      2  C   UNL     1       2.360   8.097  17.959  0.00  0.00    +0.000 A 
ATOM      3  C   UNL     1       2.295   6.996  18.804  0.00  0.00    +0.000 A 
ATOM      4  C   UNL     1       1.846   7.117  20.130  0.00  0.00    +0.000 A 
ATOM      5  C   UNL     1       1.456   8.383  20.598  0.00  0.00    +0.000 A 
ATOM      6  C   UNL     1       1.550   9.498  19.726  0.00  0.00    +0.000 A 
ENDROOT
BRANCH   1   8
ATOM      7  C   UNL     1       2.313  11.660  17.935  0.00  0.00    +0.000 C 
ATOM      8  O   UNL     1       2.106  10.336  17.469  0.00  0.00    +0.000 OA
ENDBRANCH   1   8
BRANCH   4   9
ATOM      9  O   UNL     1       1.786   6.050  21.005  0.00  0.00    +0.000 OA
BRANCH   9  10
ATOM     10  C   UNL     1       1.576   4.787  20.363  0.00  0.00    +0.000 C 
BRANCH  10  11
ATOM     11  C   UNL     1       2.297   3.611  21.031  0.00  0.00    +0.000 C 
BRANCH  11  12
ATOM     12  O   UNL     1       1.348   2.651  21.505  0.00  0.00    +0.000 OA
ATOM     13  H   UNL     1       1.814   1.811  21.652  0.00  0.00    +0.000 HD
ENDBRANCH  11  12
BRANCH  11  14
ATOM     14  C   UNL     1       3.240   2.988  19.955  0.00  0.00    +0.000 C 
BRANCH  14  15
ATOM     15  N   UNL     1       3.806   3.918  18.964  0.00  0.00    +0.000 NA
ATOM     16  C   UNL     1       3.930   3.286  17.644  0.00  0.00    +0.000 C 
ATOM     17  C   UNL     1       4.449   4.278  16.605  0.00  0.00    +0.000 C 
ATOM     18  C   UNL     1       5.762   4.924  17.031  0.00  0.00    +0.000 C 
ATOM     19  C   UNL     1       5.674   5.466  18.454  0.00  0.00    +0.000 C 
ATOM     20  C   UNL     1       5.108   4.432  19.428  0.00  0.00    +0.000 C 
BRANCH  18  21
ATOM     21  O   UNL     1       6.840   3.993  16.918  0.00  0.00    +0.000 OA
ATOM     22  H   UNL     1       7.679   4.473  17.004  0.00  0.00    +0.000 HD
ENDBRANCH  18  21
ENDBRANCH  14  15
ENDBRANCH  11  14
ENDBRANCH  10  11
ENDBRANCH   9  10
ENDBRANCH   4   9
BRANCH   5  23
ATOM     23  C   UNL     1       1.021   8.630  22.028  0.00  0.00    +0.000 C 
BRANCH  23  24
ATOM     24  N   UNL     1       0.806  10.063  22.299  0.00  0.00    +0.000 NA
ATOM     25  H   UNL     1       1.239  10.584  21.534  0.00  0.00    +0.000 HD
BRANCH  24  26
ATOM     26  C   UNL     1      -0.620  10.414  22.356  0.00  0.00    +0.000 C 
BRANCH  26  27
ATOM     27  C   UNL     1      -0.859  11.914  22.589  0.00  0.00    +0.000 C 
BRANCH  27  28
ATOM     28  C   UNL     1      -2.308  12.301  22.489  0.00  0.00    +0.000 A 
ATOM     29  C   UNL     1      -3.135  12.277  23.616  0.00  0.00    +0.000 A 
ATOM     30  C   UNL     1      -4.460  12.687  23.501  0.00  0.00    +0.000 A 
ATOM     31  C   UNL     1      -4.913  13.095  22.265  0.00  0.00    +0.000 A 
ATOM     32  N   UNL     1      -4.150  13.115  21.149  0.00  0.00    +0.000 NA
ATOM     33  C   UNL     1      -2.869  12.713  21.288  0.00  0.00    +0.000 A 
ENDBRANCH  27  28
ENDBRANCH  26  27
ENDBRANCH  24  26
ENDBRANCH  23  24
ENDBRANCH   5  23
TORSDOF 13
ENDMDL
MODEL 6
REMARK VINA RESULT:      -6.5      1.052      1.376
REMARK  Name = 
REMARK  14 active torsions:
REMARK  status: ('A' for Active; 'I' for Inactive)
REMARK    1  A    between atoms: C_1  and  O_2
REMARK    2  A    between atoms: O_2  and  C_3
REMARK    3  A    between atoms: C_6  and  O_7
REMARK    4  A    between atoms: O_7  and  C_8
REMARK    5  A    between atoms: C_8  and  C_9
REMARK    6  A    between atoms: C_9  and  O_10
REMARK    7  A    between atoms: C_9  and  C_11
REMARK    8  A    between atoms: C_11  and  N_12
REMARK    9  A    between atoms: C_15  and  O_16
REMARK   10  A    between atoms: C_19  and  C_20
REMARK   11  A    between atoms: C_20  and  N_21
REMARK   12  A    between atoms: N_21  and  C_22
REMARK   13  A    between atoms: C_22  and  C_23
REMARK   14  A    between atoms: C_23  and  C_24
REMARK                            x       y       z     vdW  Elec       q    Type
REMARK                         _______ _______ _______ _____ _____    ______ ____
ROOT
ATOM      1  C   UNL     1       6.559   4.596  14.649  0.00  0.00    +0.000 A 
ATOM      2  C   UNL     1       5.184   4.756  14.739  0.00  0.00    +0.000 A 
ATOM      3  C   UNL     1       4.631   5.582  15.711  0.00  0.00    +0.000 A 
ATOM      4  C   UNL     1       5.439   6.283  16.621  0.00  0.00    +0.000 A 
ATOM      5  C   UNL     1       6.834   6.140  16.535  0.00  0.00    +0.000 A 
ATOM      6  C   UNL     1       7.378   5.277  15.549  0.00  0.00    +0.000 A 
ENDROOT
BRANCH   1   8
ATOM      7  C   UNL     1       6.017   3.499  12.613  0.00  0.00    +0.000 C 
ATOM      8  O   UNL     1       6.953   3.757  13.648  0.00  0.00    +0.000 OA
ENDBRANCH   1   8
BRANCH   4   9
ATOM      9  O   UNL     1       4.926   7.098  17.611  0.00  0.00    +0.000 OA
BRANCH   9  10
ATOM     10  C   UNL     1       3.539   7.410  17.442  0.00  0.00    +0.000 C 
BRANCH  10  11
ATOM     11  C   UNL     1       2.680   7.171  18.690  0.00  0.00    +0.000 C 
BRANCH  11  12
ATOM     12  O   UNL     1       1.813   8.285  18.916  0.00  0.00    +0.000 OA
ATOM     13  H   UNL     1       2.348   9.096  18.891  0.00  0.00    +0.000 HD
ENDBRANCH  11  12
BRANCH  11  14
ATOM     14  C   UNL     1       1.866   5.865  18.434  0.00  0.00    +0.000 C 
BRANCH  14  15
ATOM     15  N   UNL     1       2.274   4.678  19.205  0.00  0.00    +0.000 NA
ATOM     16  C   UNL     1       1.427   3.518  18.893  0.00  0.00    +0.000 C 
ATOM     17  C   UNL     1       1.901   2.274  19.640  0.00  0.00    +0.000 C 
ATOM     18  C   UNL     1       1.987   2.504  21.144  0.00  0.00    +0.000 C 
ATOM     19  C   UNL     1       2.758   3.781  21.465  0.00  0.00    +0.000 C 
ATOM     20  C   UNL     1       2.254   4.972  20.649  0.00  0.00    +0.000 C 
BRANCH  18  21
ATOM     21  O   UNL     1       0.681   2.550  21.721  0.00  0.00    +0.000 OA
ATOM     22  H   UNL     1       0.756   2.401  22.677  0.00  0.00    +0.000 HD
ENDBRANCH  18  21
ENDBRANCH  14  15
ENDBRANCH  11  14
ENDBRANCH  10  11
ENDBRANCH   9  10
ENDBRANCH   4   9
BRANCH   5  23
ATOM     23  C   UNL     1       7.788   6.801  17.509  0.00  0.00    +0.000 C 
BRANCH  23  24
ATOM     24  N   UNL     1       7.557   8.253  17.607  0.00  0.00    +0.000 NA
ATOM     25  H   UNL     1       6.690   8.387  18.130  0.00  0.00    +0.000 HD
BRANCH  24  26
ATOM     26  C   UNL     1       8.643   8.947  18.315  0.00  0.00    +0.000 C 
BRANCH  26  27
ATOM     27  C   UNL     1       8.601  10.471  18.131  0.00  0.00    +0.000 C 
BRANCH  27  28
ATOM     28  C   UNL     1       9.830  11.161  18.651  0.00  0.00    +0.000 A 
ATOM     29  C   UNL     1      10.018  11.351  20.024  0.00  0.00    +0.000 A 
ATOM     30  C   UNL     1      11.188  11.950  20.478  0.00  0.00    +0.000 A 
ATOM     31  C   UNL     1      12.122  12.350  19.546  0.00  0.00    +0.000 A 
ATOM     32  N   UNL     1      11.969  12.201  18.211  0.00  0.00    +0.000 NA
ATOM     33  C   UNL     1      10.826  11.616  17.797  0.00  0.00    +0.000 A 
ENDBRANCH  27  28
ENDBRANCH  26  27
ENDBRANCH  24  26
ENDBRANCH  23  24
ENDBRANCH   5  23
TORSDOF 13
ENDMDL
MODEL 7
REMARK VINA RESULT:      -6.5      7.496     10.276
REMARK  Name = 
REMARK  14 active torsions:
REMARK  status: ('A' for Active; 'I' for Inactive)
REMARK    1  A    between atoms: C_1  and  O_2
REMARK    2  A    between atoms: O_2  and  C_3
REMARK    3  A    between atoms: C_6  and  O_7
REMARK    4  A    between atoms: O_7  and  C_8
REMARK    5  A    between atoms: C_8  and  C_9
REMARK    6  A    between atoms: C_9  and  O_10
REMARK    7  A    between atoms: C_9  and  C_11
REMARK    8  A    between atoms: C_11  and  N_12
REMARK    9  A    between atoms: C_15  and  O_16
REMARK   10  A    between atoms: C_19  and  C_20
REMARK   11  A    between atoms: C_20  and  N_21
REMARK   12  A    between atoms: N_21  and  C_22
REMARK   13  A    between atoms: C_22  and  C_23
REMARK   14  A    between atoms: C_23  and  C_24
REMARK                            x       y       z     vdW  Elec       q    Type
REMARK                         _______ _______ _______ _____ _____    ______ ____
ROOT
ATOM      1  C   UNL     1       2.348   7.121  19.589  0.00  0.00    +0.000 A 
ATOM      2  C   UNL     1       2.204   7.504  18.264  0.00  0.00    +0.000 A 
ATOM      3  C   UNL     1       1.528   8.674  17.937  0.00  0.00    +0.000 A 
ATOM      4  C   UNL     1       0.980   9.504  18.929  0.00  0.00    +0.000 A 
ATOM      5  C   UNL     1       1.128   9.135  20.276  0.00  0.00    +0.000 A 
ATOM      6  C   UNL     1       1.804   7.927  20.588  0.00  0.00    +0.000 A 
ENDROOT
BRANCH   1   8
ATOM      7  C   UNL     1       4.145   5.728  18.902  0.00  0.00    +0.000 C 
ATOM      8  O   UNL     1       3.034   5.953  19.755  0.00  0.00    +0.000 OA
ENDBRANCH   1   8
BRANCH   4   9
ATOM      9  O   UNL     1       0.286  10.663  18.641  0.00  0.00    +0.000 OA
BRANCH   9  10
ATOM     10  C   UNL     1      -1.030  10.436  18.124  0.00  0.00    +0.000 C 
BRANCH  10  11
ATOM     11  C   UNL     1      -1.921  11.684  18.096  0.00  0.00    +0.000 C 
BRANCH  11  12
ATOM     12  O   UNL     1      -1.436  12.619  17.129  0.00  0.00    +0.000 OA
ATOM     13  H   UNL     1      -0.540  12.889  17.392  0.00  0.00    +0.000 HD
ENDBRANCH  11  12
BRANCH  11  14
ATOM     14  C   UNL     1      -3.362  11.202  17.741  0.00  0.00    +0.000 C 
BRANCH  14  15
ATOM     15  N   UNL     1      -4.471  11.919  18.392  0.00  0.00    +0.000 NA
ATOM     16  C   UNL     1      -4.023  12.608  19.610  0.00  0.00    +0.000 C 
ATOM     17  C   UNL     1      -5.161  13.410  20.239  0.00  0.00    +0.000 C 
ATOM     18  C   UNL     1      -6.388  12.549  20.513  0.00  0.00    +0.000 C 
ATOM     19  C   UNL     1      -6.776  11.733  19.284  0.00  0.00    +0.000 C 
ATOM     20  C   UNL     1      -5.579  10.993  18.687  0.00  0.00    +0.000 C 
BRANCH  18  21
ATOM     21  O   UNL     1      -6.159  11.690  21.631  0.00  0.00    +0.000 OA
ATOM     22  H   UNL     1      -6.883  11.045  21.684  0.00  0.00    +0.000 HD
ENDBRANCH  18  21
ENDBRANCH  14  15
ENDBRANCH  11  14
ENDBRANCH  10  11
ENDBRANCH   9  10
ENDBRANCH   4   9
BRANCH   5  23
ATOM     23  C   UNL     1       0.520   9.927  21.415  0.00  0.00    +0.000 C 
BRANCH  23  24
ATOM     24  N   UNL     1       1.020  11.312  21.452  0.00  0.00    +0.000 NA
ATOM     25  H   UNL     1       1.256  11.575  20.493  0.00  0.00    +0.000 HD
BRANCH  24  26
ATOM     26  C   UNL     1       0.015  12.257  21.962  0.00  0.00    +0.000 C 
BRANCH  26  27
ATOM     27  C   UNL     1      -1.311  11.578  22.336  0.00  0.00    +0.000 C 
BRANCH  27  28
ATOM     28  C   UNL     1      -2.328  12.536  22.888  0.00  0.00    +0.000 A 
ATOM     29  C   UNL     1      -2.195  13.914  22.693  0.00  0.00    +0.000 A 
ATOM     30  C   UNL     1      -3.178  14.772  23.175  0.00  0.00    +0.000 A 
ATOM     31  C   UNL     1      -4.252  14.225  23.845  0.00  0.00    +0.000 A 
ATOM     32  N   UNL     1      -4.406  12.901  24.071  0.00  0.00    +0.000 NA
ATOM     33  C   UNL     1      -3.440  12.091  23.591  0.00  0.00    +0.000 A 
ENDBRANCH  27  28
ENDBRANCH  26  27
ENDBRANCH  24  26
ENDBRANCH  23  24
ENDBRANCH   5  23
TORSDOF 13
ENDMDL
MODEL 8
REMARK VINA RESULT:      -6.5      3.900      7.092
REMARK  Name = 
REMARK  14 active torsions:
REMARK  status: ('A' for Active; 'I' for Inactive)
REMARK    1  A    between atoms: C_1  and  O_2
REMARK    2  A    between atoms: O_2  and  C_3
REMARK    3  A    between atoms: C_6  and  O_7
REMARK    4  A    between atoms: O_7  and  C_8
REMARK    5  A    between atoms: C_8  and  C_9
REMARK    6  A    between atoms: C_9  and  O_10
REMARK    7  A    between atoms: C_9  and  C_11
REMARK    8  A    between atoms: C_11  and  N_12
REMARK    9  A    between atoms: C_15  and  O_16
REMARK   10  A    between atoms: C_19  and  C_20
REMARK   11  A    between atoms: C_20  and  N_21
REMARK   12  A    between atoms: N_21  and  C_22
REMARK   13  A    between atoms: C_22  and  C_23
REMARK   14  A    between atoms: C_23  and  C_24
REMARK                            x       y       z     vdW  Elec       q    Type
REMARK                         _______ _______ _______ _____ _____    ______ ____
ROOT
ATOM      1  C   UNL     1       2.233   4.611  19.578  0.00  0.00    +0.000 A 
ATOM      2  C   UNL     1       1.707   5.176  20.730  0.00  0.00    +0.000 A 
ATOM      3  C   UNL     1       1.541   6.553  20.829  0.00  0.00    +0.000 A 
ATOM      4  C   UNL     1       1.889   7.410  19.772  0.00  0.00    +0.000 A 
ATOM      5  C   UNL     1       2.412   6.850  18.594  0.00  0.00    +0.000 A 
ATOM      6  C   UNL     1       2.593   5.445  18.520  0.00  0.00    +0.000 A 
ENDROOT
BRANCH   1   8
ATOM      7  C   UNL     1       1.872   2.609  20.805  0.00  0.00    +0.000 C 
ATOM      8  O   UNL     1       2.335   3.251  19.628  0.00  0.00    +0.000 OA
ENDBRANCH   1   8
BRANCH   4   9
ATOM      9  O   UNL     1       1.755   8.783  19.841  0.00  0.00    +0.000 OA
BRANCH   9  10
ATOM     10  C   UNL     1       1.178   9.247  21.066  0.00  0.00    +0.000 C 
BRANCH  10  11
ATOM     11  C   UNL     1      -0.279   9.706  20.944  0.00  0.00    +0.000 C 
BRANCH  11  12
ATOM     12  O   UNL     1      -0.673  10.425  22.116  0.00  0.00    +0.000 OA
ATOM     13  H   UNL     1      -0.456  11.363  21.984  0.00  0.00    +0.000 HD
ENDBRANCH  11  12
BRANCH  11  14
ATOM     14  C   UNL     1      -0.365  10.608  19.674  0.00  0.00    +0.000 C 
BRANCH  14  15
ATOM     15  N   UNL     1      -1.566  10.448  18.838  0.00  0.00    +0.000 NA
ATOM     16  C   UNL     1      -1.251   9.785  17.565  0.00  0.00    +0.000 C 
ATOM     17  C   UNL     1      -2.513   9.558  16.736  0.00  0.00    +0.000 C 
ATOM     18  C   UNL     1      -3.291  10.848  16.506  0.00  0.00    +0.000 C 
ATOM     19  C   UNL     1      -3.506  11.603  17.813  0.00  0.00    +0.000 C 
ATOM     20  C   UNL     1      -2.208  11.755  18.607  0.00  0.00    +0.000 C 
BRANCH  18  21
ATOM     21  O   UNL     1      -2.620  11.676  15.555  0.00  0.00    +0.000 OA
ATOM     22  H   UNL     1      -3.282  12.097  14.984  0.00  0.00    +0.000 HD
ENDBRANCH  18  21
ENDBRANCH  14  15
ENDBRANCH  11  14
ENDBRANCH  10  11
ENDBRANCH   9  10
ENDBRANCH   4   9
BRANCH   5  23
ATOM     23  C   UNL     1       2.877   7.692  17.423  0.00  0.00    +0.000 C 
BRANCH  23  24
ATOM     24  N   UNL     1       4.323   7.542  17.178  0.00  0.00    +0.000 NA
ATOM     25  H   UNL     1       4.688   6.912  17.894  0.00  0.00    +0.000 HD
BRANCH  24  26
ATOM     26  C   UNL     1       4.609   6.965  15.856  0.00  0.00    +0.000 C 
BRANCH  26  27
ATOM     27  C   UNL     1       5.649   5.836  15.908  0.00  0.00    +0.000 C 
BRANCH  27  28
ATOM     28  C   UNL     1       6.441   5.823  17.184  0.00  0.00    +0.000 A 
ATOM     29  C   UNL     1       7.418   6.792  17.431  0.00  0.00    +0.000 A 
ATOM     30  C   UNL     1       8.102   6.782  18.643  0.00  0.00    +0.000 A 
ATOM     31  C   UNL     1       7.795   5.799  19.559  0.00  0.00    +0.000 A 
ATOM     32  N   UNL     1       6.871   4.834  19.349  0.00  0.00    +0.000 NA
ATOM     33  C   UNL     1       6.221   4.867  18.167  0.00  0.00    +0.000 A 
ENDBRANCH  27  28
ENDBRANCH  26  27
ENDBRANCH  24  26
ENDBRANCH  23  24
ENDBRANCH   5  23
TORSDOF 13
ENDMDL
MODEL 9
REMARK VINA RESULT:      -6.4      5.560      8.927
REMARK  Name = 
REMARK  14 active torsions:
REMARK  status: ('A' for Active; 'I' for Inactive)
REMARK    1  A    between atoms: C_1  and  O_2
REMARK    2  A    between atoms: O_2  and  C_3
REMARK    3  A    between atoms: C_6  and  O_7
REMARK    4  A    between atoms: O_7  and  C_8
REMARK    5  A    between atoms: C_8  and  C_9
REMARK    6  A    between atoms: C_9  and  O_10
REMARK    7  A    between atoms: C_9  and  C_11
REMARK    8  A    between atoms: C_11  and  N_12
REMARK    9  A    between atoms: C_15  and  O_16
REMARK   10  A    between atoms: C_19  and  C_20
REMARK   11  A    between atoms: C_20  and  N_21
REMARK   12  A    between atoms: N_21  and  C_22
REMARK   13  A    between atoms: C_22  and  C_23
REMARK   14  A    between atoms: C_23  and  C_24
REMARK                            x       y       z     vdW  Elec       q    Type
REMARK                         _______ _______ _______ _____ _____    ______ ____
ROOT
ATOM      1  C   UNL     1       1.397  10.464  18.651  0.00  0.00    +0.000 A 
ATOM      2  C   UNL     1       1.967   9.457  17.887  0.00  0.00    +0.000 A 
ATOM      3  C   UNL     1       2.140   8.182  18.414  0.00  0.00    +0.000 A 
ATOM      4  C   UNL     1       1.739   7.872  19.724  0.00  0.00    +0.000 A 
ATOM      5  C   UNL     1       1.150   8.879  20.507  0.00  0.00    +0.000 A 
ATOM      6  C   UNL     1       1.001  10.178  19.958  0.00  0.00    +0.000 A 
ENDROOT
BRANCH   1   8
ATOM      7  C   UNL     1       1.089  12.815  18.797  0.00  0.00    +0.000 C 
ATOM      8  O   UNL     1       1.292  11.658  18.000  0.00  0.00    +0.000 OA
ENDBRANCH   1   8
BRANCH   4   9
ATOM      9  O   UNL     1       1.912   6.623  20.288  0.00  0.00    +0.000 OA
BRANCH   9  10
ATOM     10  C   UNL     1       3.059   5.920  19.798  0.00  0.00    +0.000 C 
BRANCH  10  11
ATOM     11  C   UNL     1       2.875   4.401  19.700  0.00  0.00    +0.000 C 
BRANCH  11  12
ATOM     12  O   UNL     1       1.676   4.091  18.986  0.00  0.00    +0.000 OA
ATOM     13  H   UNL     1       1.189   3.416  19.487  0.00  0.00    +0.000 HD
ENDBRANCH  11  12
BRANCH  11  14
ATOM     14  C   UNL     1       4.131   3.840  18.965  0.00  0.00    +0.000 C 
BRANCH  14  15
ATOM     15  N   UNL     1       4.894   4.798  18.147  0.00  0.00    +0.000 NA
ATOM     16  C   UNL     1       4.814   4.468  16.718  0.00  0.00    +0.000 C 
ATOM     17  C   UNL     1       5.545   5.507  15.871  0.00  0.00    +0.000 C 
ATOM     18  C   UNL     1       6.991   5.694  16.312  0.00  0.00    +0.000 C 
ATOM     19  C   UNL     1       7.086   5.909  17.820  0.00  0.00    +0.000 C 
ATOM     20  C   UNL     1       6.296   4.856  18.598  0.00  0.00    +0.000 C 
BRANCH  18  21
ATOM     21  O   UNL     1       7.786   4.575  15.916  0.00  0.00    +0.000 OA
ATOM     22  H   UNL     1       8.720   4.840  15.914  0.00  0.00    +0.000 HD
ENDBRANCH  18  21
ENDBRANCH  14  15
ENDBRANCH  11  14
ENDBRANCH  10  11
ENDBRANCH   9  10
ENDBRANCH   4   9
BRANCH   5  23
ATOM     23  C   UNL     1       0.744   8.664  21.950  0.00  0.00    +0.000 C 
BRANCH  23  24
ATOM     24  N   UNL     1      -0.618   9.158  22.219  0.00  0.00    +0.000 NA
ATOM     25  H   UNL     1      -1.145   8.385  22.628  0.00  0.00    +0.000 HD
BRANCH  24  26
ATOM     26  C   UNL     1      -0.628  10.285  23.164  0.00  0.00    +0.000 C 
BRANCH  26  27
ATOM     27  C   UNL     1      -0.838  11.642  22.476  0.00  0.00    +0.000 C 
BRANCH  27  28
ATOM     28  C   UNL     1      -1.797  12.534  23.213  0.00  0.00    +0.000 A 
ATOM     29  C   UNL     1      -3.065  12.075  23.581  0.00  0.00    +0.000 A 
ATOM     30  C   UNL     1      -3.912  12.908  24.305  0.00  0.00    +0.000 A 
ATOM     31  C   UNL     1      -3.468  14.173  24.624  0.00  0.00    +0.000 A 
ATOM     32  N   UNL     1      -2.257  14.661  24.270  0.00  0.00    +0.000 NA
ATOM     33  C   UNL     1      -1.455  13.832  23.570  0.00  0.00    +0.000 A 
ENDBRANCH  27  28
ENDBRANCH  26  27
ENDBRANCH  24  26
ENDBRANCH  23  24
ENDBRANCH   5  23
TORSDOF 13
ENDMDL
