MODEL 1
REMARK VINA RESULT:      -7.4      0.000      0.000
REMARK  Name = 
REMARK  4 active torsions:
REMARK  status: ('A' for Active; 'I' for Inactive)
REMARK    1  A    between atoms: C_5  and  C_6
REMARK    2  A    between atoms: N_10  and  N_11
REMARK    3  A    between atoms: C_12  and  C_13
REMARK    4  A    between atoms: C_16  and  N_17
REMARK                            x       y       z     vdW  Elec       q    Type
REMARK                         _______ _______ _______ _____ _____    ______ ____
ROOT
ATOM      1  C   UNL     1       3.027   6.890  18.313  0.00  0.00    +0.000 A 
ATOM      2  C   UNL     1       2.669   6.467  19.576  0.00  0.00    +0.000 A 
ATOM      3  S   UNL     1       1.679   7.638  20.327  0.00  0.00    +0.000 S 
ATOM      4  C   UNL     1       1.810   8.651  18.929  0.00  0.00    +0.000 A 
ATOM      5  N   UNL     1       1.193   9.860  18.841  0.00  0.00    +0.000 N 
ATOM      6  N   UNL     1       2.550   8.148  17.962  0.00  0.00    +0.000 NA
ATOM      7  H   UNL     1       1.335  10.365  17.970  0.00  0.00    +0.000 HD
ENDROOT
BRANCH   1  12
ATOM      8 CL   UNL     1       6.434   3.774  14.501  0.00  0.00    +0.000 Cl
ATOM      9  C   UNL     1       5.458   4.663  15.604  0.00  0.00    +0.000 A 
ATOM     10  C   UNL     1       4.664   3.987  16.526  0.00  0.00    +0.000 A 
ATOM     11  C   UNL     1       3.866   4.709  17.419  0.00  0.00    +0.000 A 
ATOM     12  C   UNL     1       3.858   6.113  17.397  0.00  0.00    +0.000 A 
ATOM     13  C   UNL     1       4.660   6.777  16.459  0.00  0.00    +0.000 A 
ATOM     14  C   UNL     1       5.461   6.056  15.567  0.00  0.00    +0.000 A 
ENDBRANCH   1  12
BRANCH   5  15
ATOM     15  N   UNL     1       0.399  10.361  19.821  0.00  0.00    +0.000 NA
ATOM     16  C   UNL     1      -0.520  11.204  19.475  0.00  0.00    +0.000 C 
BRANCH  16  17
ATOM     17  C   UNL     1      -1.415  11.777  20.505  0.00  0.00    +0.000 A 
ATOM     18  C   UNL     1      -1.219  11.453  21.849  0.00  0.00    +0.000 A 
ATOM     19  C   UNL     1      -2.051  11.992  22.833  0.00  0.00    +0.000 A 
ATOM     20  C   UNL     1      -3.090  12.870  22.503  0.00  0.00    +0.000 A 
ATOM     21  C   UNL     1      -3.283  13.166  21.142  0.00  0.00    +0.000 A 
ATOM     22  C   UNL     1      -2.452  12.634  20.144  0.00  0.00    +0.000 A 
BRANCH  20  23
ATOM     23  N   UNL     1      -3.940  13.443  23.451  0.00  0.00    +0.000 N 
ATOM     24  C   UNL     1      -4.557  12.609  24.494  0.00  0.00    +0.000 C 
ATOM     25  C   UNL     1      -6.055  12.735  24.258  0.00  0.00    +0.000 C 
ATOM     26  C   UNL     1      -6.189  14.161  23.755  0.00  0.00    +0.000 C 
ATOM     27  C   UNL     1      -4.961  14.331  22.862  0.00  0.00    +0.000 C 
ENDBRANCH  20  23
ENDBRANCH  16  17
ENDBRANCH   5  15
TORSDOF 4
ENDMDL
MODEL 2
REMARK VINA RESULT:      -7.3      3.989     11.605
REMARK  Name = 
REMARK  4 active torsions:
REMARK  status: ('A' for Active; 'I' for Inactive)
REMARK    1  A    between atoms: C_5  and  C_6
REMARK    2  A    between atoms: N_10  and  N_11
REMARK    3  A    between atoms: C_12  and  C_13
REMARK    4  A    between atoms: C_16  and  N_17
REMARK                            x       y       z     vdW  Elec       q    Type
REMARK                         _______ _______ _______ _____ _____    ______ ____
ROOT
ATOM      1  C   UNL     1      -0.785  11.138  20.817  0.00  0.00    +0.000 A 
ATOM      2  C   UNL     1      -0.215  11.556  19.632  0.00  0.00    +0.000 A 
ATOM      3  S   UNL     1       0.944  10.419  19.106  0.00  0.00    +0.000 S 
ATOM      4  C   UNL     1       0.633   9.448  20.505  0.00  0.00    +0.000 A 
ATOM      5  N   UNL     1       1.274   8.270  20.737  0.00  0.00    +0.000 N 
ATOM      6  N   UNL     1      -0.278   9.944  21.318  0.00  0.00    +0.000 NA
ATOM      7  H   UNL     1       1.006   7.782  21.587  0.00  0.00    +0.000 HD
ENDROOT
BRANCH   1  12
ATOM      8 CL   UNL     1      -5.055  14.098  23.791  0.00  0.00    +0.000 Cl
ATOM      9  C   UNL     1      -3.825  13.256  22.931  0.00  0.00    +0.000 A 
ATOM     10  C   UNL     1      -3.702  13.428  21.556  0.00  0.00    +0.000 A 
ATOM     11  C   UNL     1      -2.707  12.740  20.855  0.00  0.00    +0.000 A 
ATOM     12  C   UNL     1      -1.827  11.875  21.527  0.00  0.00    +0.000 A 
ATOM     13  C   UNL     1      -1.969  11.710  22.911  0.00  0.00    +0.000 A 
ATOM     14  C   UNL     1      -2.963  12.400  23.614  0.00  0.00    +0.000 A 
ENDBRANCH   1  12
BRANCH   5  15
ATOM     15  N   UNL     1       2.183   7.739  19.881  0.00  0.00    +0.000 NA
ATOM     16  C   UNL     1       1.975   6.536  19.456  0.00  0.00    +0.000 C 
BRANCH  16  17
ATOM     17  C   UNL     1       2.935   5.912  18.518  0.00  0.00    +0.000 A 
ATOM     18  C   UNL     1       3.811   6.719  17.789  0.00  0.00    +0.000 A 
ATOM     19  C   UNL     1       4.729   6.144  16.906  0.00  0.00    +0.000 A 
ATOM     20  C   UNL     1       4.798   4.756  16.733  0.00  0.00    +0.000 A 
ATOM     21  C   UNL     1       3.891   3.965  17.461  0.00  0.00    +0.000 A 
ATOM     22  C   UNL     1       2.968   4.529  18.354  0.00  0.00    +0.000 A 
BRANCH  20  23
ATOM     23  N   UNL     1       5.704   4.135  15.871  0.00  0.00    +0.000 N 
ATOM     24  C   UNL     1       7.090   4.618  15.779  0.00  0.00    +0.000 C 
ATOM     25  C   UNL     1       7.253   5.059  14.331  0.00  0.00    +0.000 C 
ATOM     26  C   UNL     1       6.371   4.073  13.588  0.00  0.00    +0.000 C 
ATOM     27  C   UNL     1       5.166   3.916  14.515  0.00  0.00    +0.000 C 
ENDBRANCH  20  23
ENDBRANCH  16  17
ENDBRANCH   5  15
TORSDOF 4
ENDMDL
MODEL 3
REMARK VINA RESULT:      -7.3      0.690      1.505
REMARK  Name = 
REMARK  4 active torsions:
REMARK  status: ('A' for Active; 'I' for Inactive)
REMARK    1  A    between atoms: C_5  and  C_6
REMARK    2  A    between atoms: N_10  and  N_11
REMARK    3  A    between atoms: C_12  and  C_13
REMARK    4  A    between atoms: C_16  and  N_17
REMARK                            x       y       z     vdW  Elec       q    Type
REMARK                         _______ _______ _______ _____ _____    ______ ____
ROOT
ATOM      1  C   UNL     1       2.588   7.165  18.752  0.00  0.00    +0.000 A 
ATOM      2  C   UNL     1       2.158   6.754  19.997  0.00  0.00    +0.000 A 
ATOM      3  S   UNL     1       1.190   7.965  20.713  0.00  0.00    +0.000 S 
ATOM      4  C   UNL     1       1.424   8.976  19.327  0.00  0.00    +0.000 A 
ATOM      5  N   UNL     1       0.865  10.212  19.220  0.00  0.00    +0.000 N 
ATOM      6  N   UNL     1       2.181   8.445  18.389  0.00  0.00    +0.000 NA
ATOM      7  H   UNL     1       1.065  10.713  18.359  0.00  0.00    +0.000 HD
ENDROOT
BRANCH   1  12
ATOM      8 CL   UNL     1       5.996   3.776  15.184  0.00  0.00    +0.000 Cl
ATOM      9  C   UNL     1       5.014   4.756  16.202  0.00  0.00    +0.000 A 
ATOM     10  C   UNL     1       5.173   6.139  16.191  0.00  0.00    +0.000 A 
ATOM     11  C   UNL     1       4.381   6.936  17.023  0.00  0.00    +0.000 A 
ATOM     12  C   UNL     1       3.421   6.356  17.869  0.00  0.00    +0.000 A 
ATOM     13  C   UNL     1       3.279   4.962  17.869  0.00  0.00    +0.000 A 
ATOM     14  C   UNL     1       4.070   4.162  17.037  0.00  0.00    +0.000 A 
ENDBRANCH   1  12
BRANCH   5  15
ATOM     15  N   UNL     1       0.053  10.744  20.168  0.00  0.00    +0.000 NA
ATOM     16  C   UNL     1      -1.020  11.346  19.770  0.00  0.00    +0.000 C 
BRANCH  16  17
ATOM     17  C   UNL     1      -1.941  11.941  20.763  0.00  0.00    +0.000 A 
ATOM     18  C   UNL     1      -3.064  12.647  20.328  0.00  0.00    +0.000 A 
ATOM     19  C   UNL     1      -3.947  13.207  21.255  0.00  0.00    +0.000 A 
ATOM     20  C   UNL     1      -3.736  13.072  22.631  0.00  0.00    +0.000 A 
ATOM     21  C   UNL     1      -2.588  12.375  23.047  0.00  0.00    +0.000 A 
ATOM     22  C   UNL     1      -1.695  11.805  22.128  0.00  0.00    +0.000 A 
BRANCH  20  23
ATOM     23  N   UNL     1      -4.595  13.604  23.595  0.00  0.00    +0.000 N 
ATOM     24  C   UNL     1      -5.432  12.713  24.414  0.00  0.00    +0.000 C 
ATOM     25  C   UNL     1      -6.864  13.111  24.083  0.00  0.00    +0.000 C 
ATOM     26  C   UNL     1      -6.741  14.604  23.839  0.00  0.00    +0.000 C 
ATOM     27  C   UNL     1      -5.412  14.727  23.096  0.00  0.00    +0.000 C 
ENDBRANCH  20  23
ENDBRANCH  16  17
ENDBRANCH   5  15
TORSDOF 4
ENDMDL
MODEL 4
REMARK VINA RESULT:      -7.2      1.560      1.884
REMARK  Name = 
REMARK  4 active torsions:
REMARK  status: ('A' for Active; 'I' for Inactive)
REMARK    1  A    between atoms: C_5  and  C_6
REMARK    2  A    between atoms: N_10  and  N_11
REMARK    3  A    between atoms: C_12  and  C_13
REMARK    4  A    between atoms: C_16  and  N_17
REMARK                            x       y       z     vdW  Elec       q    Type
REMARK                         _______ _______ _______ _____ _____    ______ ____
ROOT
ATOM      1  C   UNL     1       2.892   6.992  18.456  0.00  0.00    +0.000 A 
ATOM      2  C   UNL     1       2.525   6.627  19.735  0.00  0.00    +0.000 A 
ATOM      3  S   UNL     1       1.562   7.848  20.439  0.00  0.00    +0.000 S 
ATOM      4  C   UNL     1       1.713   8.802  19.003  0.00  0.00    +0.000 A 
ATOM      5  N   UNL     1       1.122  10.020  18.867  0.00  0.00    +0.000 N 
ATOM      6  N   UNL     1       2.441   8.246  18.056  0.00  0.00    +0.000 NA
ATOM      7  H   UNL     1       1.274  10.487  17.977  0.00  0.00    +0.000 HD
ENDROOT
BRANCH   1  12
ATOM      8 CL   UNL     1       6.235   3.660  14.774  0.00  0.00    +0.000 Cl
ATOM      9  C   UNL     1       5.276   4.611  15.840  0.00  0.00    +0.000 A 
ATOM     10  C   UNL     1       4.351   3.993  16.675  0.00  0.00    +0.000 A 
ATOM     11  C   UNL     1       3.566   4.765  17.537  0.00  0.00    +0.000 A 
ATOM     12  C   UNL     1       3.704   6.162  17.571  0.00  0.00    +0.000 A 
ATOM     13  C   UNL     1       4.638   6.768  16.720  0.00  0.00    +0.000 A 
ATOM     14  C   UNL     1       5.425   5.997  15.858  0.00  0.00    +0.000 A 
ENDBRANCH   1  12
BRANCH   5  15
ATOM     15  N   UNL     1       0.340  10.576  19.827  0.00  0.00    +0.000 NA
ATOM     16  C   UNL     1       0.752  11.673  20.374  0.00  0.00    +0.000 C 
BRANCH  16  17
ATOM     17  C   UNL     1      -0.065  12.323  21.423  0.00  0.00    +0.000 A 
ATOM     18  C   UNL     1       0.176  13.656  21.759  0.00  0.00    +0.000 A 
ATOM     19  C   UNL     1      -0.593  14.286  22.742  0.00  0.00    +0.000 A 
ATOM     20  C   UNL     1      -1.620  13.605  23.406  0.00  0.00    +0.000 A 
ATOM     21  C   UNL     1      -1.831  12.256  23.067  0.00  0.00    +0.000 A 
ATOM     22  C   UNL     1      -1.069  11.614  22.080  0.00  0.00    +0.000 A 
BRANCH  20  23
ATOM     23  N   UNL     1      -2.421  14.193  24.386  0.00  0.00    +0.000 N 
ATOM     24  C   UNL     1      -3.852  14.425  24.134  0.00  0.00    +0.000 C 
ATOM     25  C   UNL     1      -4.024  15.934  24.231  0.00  0.00    +0.000 C 
ATOM     26  C   UNL     1      -3.011  16.312  25.296  0.00  0.00    +0.000 C 
ATOM     27  C   UNL     1      -1.823  15.403  24.984  0.00  0.00    +0.000 C 
ENDBRANCH  20  23
ENDBRANCH  16  17
ENDBRANCH   5  15
TORSDOF 4
ENDMDL
MODEL 5
REMARK VINA RESULT:      -7.2      3.958     11.911
REMARK  Name = 
REMARK  4 active torsions:
REMARK  status: ('A' for Active; 'I' for Inactive)
REMARK    1  A    between atoms: C_5  and  C_6
REMARK    2  A    between atoms: N_10  and  N_11
REMARK    3  A    between atoms: C_12  and  C_13
REMARK    4  A    between atoms: C_16  and  N_17
REMARK                            x       y       z     vdW  Elec       q    Type
REMARK                         _______ _______ _______ _____ _____    ______ ____
ROOT
ATOM      1  C   UNL     1       0.186  10.465  20.111  0.00  0.00    +0.000 A 
ATOM      2  C   UNL     1       0.582  11.005  18.904  0.00  0.00    +0.000 A 
ATOM      3  S   UNL     1       1.567   9.894  18.061  0.00  0.00    +0.000 S 
ATOM      4  C   UNL     1       1.426   8.769  19.369  0.00  0.00    +0.000 A 
ATOM      5  N   UNL     1       2.021   7.545  19.350  0.00  0.00    +0.000 N 
ATOM      6  N   UNL     1       0.692   9.197  20.376  0.00  0.00    +0.000 NA
ATOM      7  H   UNL     1       1.864   6.966  20.171  0.00  0.00    +0.000 HD
ENDROOT
BRANCH   1  12
ATOM      8 CL   UNL     1      -3.365  13.202  24.078  0.00  0.00    +0.000 Cl
ATOM      9  C   UNL     1      -2.340  12.424  22.935  0.00  0.00    +0.000 A 
ATOM     10  C   UNL     1      -2.237  12.931  21.643  0.00  0.00    +0.000 A 
ATOM     11  C   UNL     1      -1.409  12.296  20.711  0.00  0.00    +0.000 A 
ATOM     12  C   UNL     1      -0.677  11.152  21.067  0.00  0.00    +0.000 A 
ATOM     13  C   UNL     1      -0.798  10.653  22.371  0.00  0.00    +0.000 A 
ATOM     14  C   UNL     1      -1.624  11.288  23.305  0.00  0.00    +0.000 A 
ENDBRANCH   1  12
BRANCH   5  15
ATOM     15  N   UNL     1       2.744   7.088  18.297  0.00  0.00    +0.000 NA
ATOM     16  C   UNL     1       3.644   6.190  18.533  0.00  0.00    +0.000 C 
BRANCH  16  17
ATOM     17  C   UNL     1       4.459   5.656  17.419  0.00  0.00    +0.000 A 
ATOM     18  C   UNL     1       4.796   4.301  17.398  0.00  0.00    +0.000 A 
ATOM     19  C   UNL     1       5.557   3.780  16.349  0.00  0.00    +0.000 A 
ATOM     20  C   UNL     1       5.994   4.593  15.297  0.00  0.00    +0.000 A 
ATOM     21  C   UNL     1       5.661   5.958  15.349  0.00  0.00    +0.000 A 
ATOM     22  C   UNL     1       4.894   6.493  16.394  0.00  0.00    +0.000 A 
BRANCH  20  23
ATOM     23  N   UNL     1       6.746   4.116  14.221  0.00  0.00    +0.000 N 
ATOM     24  C   UNL     1       7.820   4.941  13.645  0.00  0.00    +0.000 C 
ATOM     25  C   UNL     1       7.397   5.176  12.202  0.00  0.00    +0.000 C 
ATOM     26  C   UNL     1       6.685   3.882  11.854  0.00  0.00    +0.000 C 
ATOM     27  C   UNL     1       5.924   3.548  13.136  0.00  0.00    +0.000 C 
ENDBRANCH  20  23
ENDBRANCH  16  17
ENDBRANCH   5  15
TORSDOF 4
ENDMDL
MODEL 6
REMARK VINA RESULT:      -7.2      4.260     11.437
REMARK  Name = 
REMARK  4 active torsions:
REMARK  status: ('A' for Active; 'I' for Inactive)
REMARK    1  A    between atoms: C_5  and  C_6
REMARK    2  A    between atoms: N_10  and  N_11
REMARK    3  A    between atoms: C_12  and  C_13
REMARK    4  A    between atoms: C_16  and  N_17
REMARK                            x       y       z     vdW  Elec       q    Type
REMARK                         _______ _______ _______ _____ _____    ______ ____
ROOT
ATOM      1  C   UNL     1      -1.790  11.900  22.314  0.00  0.00    +0.000 A 
ATOM      2  C   UNL     1      -1.227  10.931  23.118  0.00  0.00    +0.000 A 
ATOM      3  S   UNL     1      -0.013  10.090  22.260  0.00  0.00    +0.000 S 
ATOM      4  C   UNL     1      -0.330  11.056  20.858  0.00  0.00    +0.000 A 
ATOM      5  N   UNL     1       0.359  10.904  19.694  0.00  0.00    +0.000 N 
ATOM      6  N   UNL     1      -1.286  11.948  21.018  0.00  0.00    +0.000 NA
ATOM      7  H   UNL     1       0.092  11.530  18.940  0.00  0.00    +0.000 HD
ENDROOT
BRANCH   1  12
ATOM      8 CL   UNL     1      -6.164  15.615  24.016  0.00  0.00    +0.000 Cl
ATOM      9  C   UNL     1      -4.905  14.546  23.537  0.00  0.00    +0.000 A 
ATOM     10  C   UNL     1      -3.667  14.608  24.169  0.00  0.00    +0.000 A 
ATOM     11  C   UNL     1      -2.641  13.743  23.776  0.00  0.00    +0.000 A 
ATOM     12  C   UNL     1      -2.847  12.808  22.749  0.00  0.00    +0.000 A 
ATOM     13  C   UNL     1      -4.099  12.763  22.120  0.00  0.00    +0.000 A 
ATOM     14  C   UNL     1      -5.127  13.626  22.513  0.00  0.00    +0.000 A 
ENDBRANCH   1  12
BRANCH   5  15
ATOM     15  N   UNL     1       1.369  10.012  19.541  0.00  0.00    +0.000 NA
ATOM     16  C   UNL     1       1.098   8.895  18.948  0.00  0.00    +0.000 C 
BRANCH  16  17
ATOM     17  C   UNL     1       2.165   7.889  18.752  0.00  0.00    +0.000 A 
ATOM     18  C   UNL     1       3.004   7.980  17.640  0.00  0.00    +0.000 A 
ATOM     19  C   UNL     1       4.022   7.043  17.445  0.00  0.00    +0.000 A 
ATOM     20  C   UNL     1       4.230   5.999  18.355  0.00  0.00    +0.000 A 
ATOM     21  C   UNL     1       3.360   5.914  19.456  0.00  0.00    +0.000 A 
ATOM     22  C   UNL     1       2.337   6.851  19.665  0.00  0.00    +0.000 A 
BRANCH  20  23
ATOM     23  N   UNL     1       5.239   5.045  18.209  0.00  0.00    +0.000 N 
ATOM     24  C   UNL     1       6.431   5.090  19.071  0.00  0.00    +0.000 C 
ATOM     25  C   UNL     1       7.596   5.293  18.112  0.00  0.00    +0.000 C 
ATOM     26  C   UNL     1       7.145   4.527  16.882  0.00  0.00    +0.000 C 
ATOM     27  C   UNL     1       5.651   4.836  16.808  0.00  0.00    +0.000 C 
ENDBRANCH  20  23
ENDBRANCH  16  17
ENDBRANCH   5  15
TORSDOF 4
ENDMDL
MODEL 7
REMARK VINA RESULT:      -7.2      4.292     11.452
REMARK  Name = 
REMARK  4 active torsions:
REMARK  status: ('A' for Active; 'I' for Inactive)
REMARK    1  A    between atoms: C_5  and  C_6
REMARK    2  A    between atoms: N_10  and  N_11
REMARK    3  A    between atoms: C_12  and  C_13
REMARK    4  A    between atoms: C_16  and  N_17
REMARK                            x       y       z     vdW  Elec       q    Type
REMARK                         _______ _______ _______ _____ _____    ______ ____
ROOT
ATOM      1  C   UNL     1      -1.901  11.996  22.428  0.00  0.00    +0.000 A 
ATOM      2  C   UNL     1      -1.412  11.000  23.249  0.00  0.00    +0.000 A 
ATOM      3  S   UNL     1      -0.214  10.101  22.429  0.00  0.00    +0.000 S 
ATOM      4  C   UNL     1      -0.437  11.081  21.020  0.00  0.00    +0.000 A 
ATOM      5  N   UNL     1       0.280  10.895  19.878  0.00  0.00    +0.000 N 
ATOM      6  N   UNL     1      -1.353  12.019  21.150  0.00  0.00    +0.000 NA
ATOM      7  H   UNL     1       0.068  11.534  19.116  0.00  0.00    +0.000 HD
ENDROOT
BRANCH   1  12
ATOM      8 CL   UNL     1      -6.058  15.943  24.152  0.00  0.00    +0.000 Cl
ATOM      9  C   UNL     1      -4.866  14.809  23.647  0.00  0.00    +0.000 A 
ATOM     10  C   UNL     1      -5.218  13.774  22.787  0.00  0.00    +0.000 A 
ATOM     11  C   UNL     1      -4.252  12.848  22.380  0.00  0.00    +0.000 A 
ATOM     12  C   UNL     1      -2.926  12.954  22.830  0.00  0.00    +0.000 A 
ATOM     13  C   UNL     1      -2.591  14.000  23.700  0.00  0.00    +0.000 A 
ATOM     14  C   UNL     1      -3.556  14.929  24.106  0.00  0.00    +0.000 A 
ENDBRANCH   1  12
BRANCH   5  15
ATOM     15  N   UNL     1       1.250   9.955  19.756  0.00  0.00    +0.000 NA
ATOM     16  C   UNL     1       1.145   9.107  18.785  0.00  0.00    +0.000 C 
BRANCH  16  17
ATOM     17  C   UNL     1       2.178   8.063  18.605  0.00  0.00    +0.000 A 
ATOM     18  C   UNL     1       2.275   7.022  19.529  0.00  0.00    +0.000 A 
ATOM     19  C   UNL     1       3.241   6.024  19.369  0.00  0.00    +0.000 A 
ATOM     20  C   UNL     1       4.125   6.039  18.284  0.00  0.00    +0.000 A 
ATOM     21  C   UNL     1       4.023   7.109  17.377  0.00  0.00    +0.000 A 
ATOM     22  C   UNL     1       3.056   8.114  17.524  0.00  0.00    +0.000 A 
BRANCH  20  23
ATOM     23  N   UNL     1       5.098   5.060  18.074  0.00  0.00    +0.000 N 
ATOM     24  C   UNL     1       6.251   4.955  18.982  0.00  0.00    +0.000 C 
ATOM     25  C   UNL     1       7.465   5.205  18.098  0.00  0.00    +0.000 C 
ATOM     26  C   UNL     1       7.038   4.599  16.774  0.00  0.00    +0.000 C 
ATOM     27  C   UNL     1       5.562   4.985  16.676  0.00  0.00    +0.000 C 
ENDBRANCH  20  23
ENDBRANCH  16  17
ENDBRANCH   5  15
TORSDOF 4
ENDMDL
MODEL 8
REMARK VINA RESULT:      -7.2      1.032      1.189
REMARK  Name = 
REMARK  4 active torsions:
REMARK  status: ('A' for Active; 'I' for Inactive)
REMARK    1  A    between atoms: C_5  and  C_6
REMARK    2  A    between atoms: N_10  and  N_11
REMARK    3  A    between atoms: C_12  and  C_13
REMARK    4  A    between atoms: C_16  and  N_17
REMARK                            x       y       z     vdW  Elec       q    Type
REMARK                         _______ _______ _______ _____ _____    ______ ____
ROOT
ATOM      1  C   UNL     1       2.736   7.464  18.217  0.00  0.00    +0.000 A 
ATOM      2  C   UNL     1       2.337   7.312  19.529  0.00  0.00    +0.000 A 
ATOM      3  S   UNL     1       1.344   8.620  19.994  0.00  0.00    +0.000 S 
ATOM      4  C   UNL     1       1.528   9.324  18.423  0.00  0.00    +0.000 A 
ATOM      5  N   UNL     1       0.931  10.495  18.071  0.00  0.00    +0.000 N 
ATOM      6  N   UNL     1       2.288   8.628  17.602  0.00  0.00    +0.000 NA
ATOM      7  H   UNL     1       1.105  10.810  17.120  0.00  0.00    +0.000 HD
ENDROOT
BRANCH   1  12
ATOM      8 CL   UNL     1       6.217   3.611  15.238  0.00  0.00    +0.000 Cl
ATOM      9  C   UNL     1       5.218   4.713  16.103  0.00  0.00    +0.000 A 
ATOM     10  C   UNL     1       4.214   4.228  16.935  0.00  0.00    +0.000 A 
ATOM     11  C   UNL     1       3.397   5.122  17.634  0.00  0.00    +0.000 A 
ATOM     12  C   UNL     1       3.581   6.509  17.506  0.00  0.00    +0.000 A 
ATOM     13  C   UNL     1       4.594   6.979  16.659  0.00  0.00    +0.000 A 
ATOM     14  C   UNL     1       5.413   6.085  15.960  0.00  0.00    +0.000 A 
ENDBRANCH   1  12
BRANCH   5  15
ATOM     15  N   UNL     1       0.118  11.193  18.903  0.00  0.00    +0.000 NA
ATOM     16  C   UNL     1      -1.151  11.177  18.653  0.00  0.00    +0.000 C 
BRANCH  16  17
ATOM     17  C   UNL     1      -2.082  11.919  19.532  0.00  0.00    +0.000 A 
ATOM     18  C   UNL     1      -1.597  12.538  20.685  0.00  0.00    +0.000 A 
ATOM     19  C   UNL     1      -2.463  13.249  21.521  0.00  0.00    +0.000 A 
ATOM     20  C   UNL     1      -3.826  13.364  21.224  0.00  0.00    +0.000 A 
ATOM     21  C   UNL     1      -4.296  12.715  20.069  0.00  0.00    +0.000 A 
ATOM     22  C   UNL     1      -3.437  12.001  19.219  0.00  0.00    +0.000 A 
BRANCH  20  23
ATOM     23  N   UNL     1      -4.727  14.072  22.021  0.00  0.00    +0.000 N 
ATOM     24  C   UNL     1      -4.983  13.649  23.407  0.00  0.00    +0.000 C 
ATOM     25  C   UNL     1      -6.466  13.307  23.441  0.00  0.00    +0.000 C 
ATOM     26  C   UNL     1      -7.055  14.303  22.460  0.00  0.00    +0.000 C 
ATOM     27  C   UNL     1      -6.009  14.355  21.347  0.00  0.00    +0.000 C 
ENDBRANCH  20  23
ENDBRANCH  16  17
ENDBRANCH   5  15
TORSDOF 4
ENDMDL
MODEL 9
REMARK VINA RESULT:      -7.1      0.882      1.085
REMARK  Name = 
REMARK  4 active torsions:
REMARK  status: ('A' for Active; 'I' for Inactive)
REMARK    1  A    between atoms: C_5  and  C_6
REMARK    2  A    between atoms: N_10  and  N_11
REMARK    3  A    between atoms: C_12  and  C_13
REMARK    4  A    between atoms: C_16  and  N_17
REMARK                            x       y       z     vdW  Elec       q    Type
REMARK                         _______ _______ _______ _____ _____    ______ ____
ROOT
ATOM      1  C   UNL     1       2.971   6.803  18.438  0.00  0.00    +0.000 A 
ATOM      2  C   UNL     1       2.671   6.399  19.722  0.00  0.00    +0.000 A 
ATOM      3  S   UNL     1       1.694   7.568  20.492  0.00  0.00    +0.000 S 
ATOM      4  C   UNL     1       1.750   8.556  19.071  0.00  0.00    +0.000 A 
ATOM      5  N   UNL     1       1.110   9.753  18.985  0.00  0.00    +0.000 N 
ATOM      6  N   UNL     1       2.458   8.046  18.083  0.00  0.00    +0.000 NA
ATOM      7  H   UNL     1       1.207  10.243  18.100  0.00  0.00    +0.000 HD
ENDROOT
BRANCH   1  12
ATOM      8 CL   UNL     1       6.279   3.672  14.553  0.00  0.00    +0.000 Cl
ATOM      9  C   UNL     1       5.331   4.565  15.677  0.00  0.00    +0.000 A 
ATOM     10  C   UNL     1       4.476   3.895  16.547  0.00  0.00    +0.000 A 
ATOM     11  C   UNL     1       3.701   4.620  17.457  0.00  0.00    +0.000 A 
ATOM     12  C   UNL     1       3.776   6.022  17.504  0.00  0.00    +0.000 A 
ATOM     13  C   UNL     1       4.638   6.680  16.616  0.00  0.00    +0.000 A 
ATOM     14  C   UNL     1       5.417   5.956  15.707  0.00  0.00    +0.000 A 
ENDBRANCH   1  12
BRANCH   5  15
ATOM     15  N   UNL     1       0.348  10.261  19.987  0.00  0.00    +0.000 NA
ATOM     16  C   UNL     1      -0.228  11.400  19.784  0.00  0.00    +0.000 C 
BRANCH  16  17
ATOM     17  C   UNL     1      -1.073  11.996  20.843  0.00  0.00    +0.000 A 
ATOM     18  C   UNL     1      -0.685  11.884  22.180  0.00  0.00    +0.000 A 
ATOM     19  C   UNL     1      -1.467  12.448  23.191  0.00  0.00    +0.000 A 
ATOM     20  C   UNL     1      -2.648  13.139  22.894  0.00  0.00    +0.000 A 
ATOM     21  C   UNL     1      -3.030  13.221  21.543  0.00  0.00    +0.000 A 
ATOM     22  C   UNL     1      -2.252  12.662  20.518  0.00  0.00    +0.000 A 
BRANCH  20  23
ATOM     23  N   UNL     1      -3.457  13.729  23.867  0.00  0.00    +0.000 N 
ATOM     24  C   UNL     1      -4.888  13.949  23.607  0.00  0.00    +0.000 C 
ATOM     25  C   UNL     1      -5.071  15.458  23.694  0.00  0.00    +0.000 C 
ATOM     26  C   UNL     1      -4.064  15.850  24.760  0.00  0.00    +0.000 C 
ATOM     27  C   UNL     1      -2.869  14.946  24.459  0.00  0.00    +0.000 C 
ENDBRANCH  20  23
ENDBRANCH  16  17
ENDBRANCH   5  15
TORSDOF 4
ENDMDL
