MODEL 1
REMARK VINA RESULT:      -7.2      0.000      0.000
REMARK  Name = 
REMARK  7 active torsions:
REMARK  status: ('A' for Active; 'I' for Inactive)
REMARK    1  A    between atoms: C_1  and  C_2
REMARK    2  A    between atoms: C_2  and  C_3
REMARK    3  A    between atoms: C_3  and  C_4
REMARK    4  A    between atoms: C_4  and  C_5
REMARK    5  A    between atoms: C_5  and  N_6
REMARK    6  A    between atoms: C_11  and  C_12
REMARK    7  A    between atoms: C_15  and  N_16
REMARK                            x       y       z     vdW  Elec       q    Type
REMARK                         _______ _______ _______ _____ _____    ______ ____
ROOT
ATOM      1  N   UNL     1       6.994   8.135  17.727  0.00  0.00    +0.000 N 
ATOM      2  C   UNL     1       6.920   6.762  17.907  0.00  0.00    +0.000 C 
ATOM      3  O   UNL     1       7.905   6.060  17.679  0.00  0.00    +0.000 OA
ATOM      4  N   UNL     1       5.656   6.290  18.301  0.00  0.00    +0.000 N 
ATOM      5  N   UNL     1       4.609   7.208  18.430  0.00  0.00    +0.000 NA
ATOM      6  C   UNL     1       3.387   6.791  18.625  0.00  0.00    +0.000 A 
ATOM      7  C   UNL     1       3.040   5.336  18.638  0.00  0.00    +0.000 A 
ATOM      8  C   UNL     1       1.729   4.828  18.624  0.00  0.00    +0.000 A 
ATOM      9  C   UNL     1       1.552   3.458  18.672  0.00  0.00    +0.000 A 
ATOM     10  C   UNL     1       2.608   2.587  18.679  0.00  0.00    +0.000 A 
ATOM     11  C   UNL     1       3.903   3.041  18.646  0.00  0.00    +0.000 A 
ATOM     12  C   UNL     1       4.110   4.434  18.623  0.00  0.00    +0.000 A 
ATOM     13  C   UNL     1       5.489   4.930  18.524  0.00  0.00    +0.000 A 
ATOM     14  O   UNL     1       6.384   4.094  18.663  0.00  0.00    +0.000 OA
ATOM     15  O   UNL     1       2.217   1.287  18.692  0.00  0.00    +0.000 OA
ATOM     16  C   UNL     1       0.784   1.435  18.657  0.00  0.00    +0.000 C 
ATOM     17  O   UNL     1       0.354   2.814  18.702  0.00  0.00    +0.000 OA
ATOM     18  H   UNL     1       6.302   8.647  18.259  0.00  0.00    +0.000 HD
ENDROOT
BRANCH   6  19
ATOM     19  C   UNL     1       2.333   7.853  18.816  0.00  0.00    +0.000 A 
ATOM     20  C   UNL     1       1.819   8.070  20.102  0.00  0.00    +0.000 A 
ATOM     21  C   UNL     1       0.845   9.052  20.327  0.00  0.00    +0.000 A 
ATOM     22  C   UNL     1       0.341   9.820  19.274  0.00  0.00    +0.000 A 
ATOM     23  C   UNL     1       0.889   9.639  18.005  0.00  0.00    +0.000 A 
ATOM     24  C   UNL     1       1.823   8.623  17.764  0.00  0.00    +0.000 A 
BRANCH  22  25
ATOM     25  N   UNL     1      -0.528  10.887  19.518  0.00  0.00    +0.000 N 
ATOM     26  H   UNL     1      -0.778  11.410  18.681  0.00  0.00    +0.000 HD
ATOM     27  H   UNL     1      -0.233  11.498  20.270  0.00  0.00    +0.000 HD
ENDBRANCH  22  25
ENDBRANCH   6  19
BRANCH   1  28
ATOM     28  C   UNL     1       8.283   8.714  17.396  0.00  0.00    +0.000 C 
BRANCH  28  29
ATOM     29  C   UNL     1       8.884   9.582  18.492  0.00  0.00    +0.000 C 
BRANCH  29  30
ATOM     30  C   UNL     1       8.947  11.057  18.094  0.00  0.00    +0.000 C 
BRANCH  30  32
ATOM     31  C   UNL     1      11.177  11.522  19.152  0.00  0.00    +0.000 C 
ATOM     32  C   UNL     1      10.386  11.506  17.854  0.00  0.00    +0.000 C 
ENDBRANCH  30  32
ENDBRANCH  29  30
ENDBRANCH  28  29
ENDBRANCH   1  28
TORSDOF 6
ENDMDL
MODEL 2
REMARK VINA RESULT:      -7.0      8.442     12.894
REMARK  Name = 
REMARK  7 active torsions:
REMARK  status: ('A' for Active; 'I' for Inactive)
REMARK    1  A    between atoms: C_1  and  C_2
REMARK    2  A    between atoms: C_2  and  C_3
REMARK    3  A    between atoms: C_3  and  C_4
REMARK    4  A    between atoms: C_4  and  C_5
REMARK    5  A    between atoms: C_5  and  N_6
REMARK    6  A    between atoms: C_11  and  C_12
REMARK    7  A    between atoms: C_15  and  N_16
REMARK                            x       y       z     vdW  Elec       q    Type
REMARK                         _______ _______ _______ _____ _____    ______ ____
ROOT
ATOM      1  N   UNL     1      -5.963  11.835  20.451  0.00  0.00    +0.000 N 
ATOM      2  C   UNL     1      -6.081  12.865  21.372  0.00  0.00    +0.000 C 
ATOM      3  O   UNL     1      -7.107  13.544  21.401  0.00  0.00    +0.000 OA
ATOM      4  N   UNL     1      -4.946  13.066  22.176  0.00  0.00    +0.000 N 
ATOM      5  N   UNL     1      -3.820  12.266  21.955  0.00  0.00    +0.000 NA
ATOM      6  C   UNL     1      -2.693  12.533  22.560  0.00  0.00    +0.000 A 
ATOM      7  C   UNL     1      -2.532  13.733  23.439  0.00  0.00    +0.000 A 
ATOM      8  C   UNL     1      -1.302  14.197  23.940  0.00  0.00    +0.000 A 
ATOM      9  C   UNL     1      -1.303  15.302  24.770  0.00  0.00    +0.000 A 
ATOM     10  C   UNL     1      -2.450  15.985  25.072  0.00  0.00    +0.000 A 
ATOM     11  C   UNL     1      -3.664  15.594  24.565  0.00  0.00    +0.000 A 
ATOM     12  C   UNL     1      -3.694  14.454  23.738  0.00  0.00    +0.000 A 
ATOM     13  C   UNL     1      -4.978  14.064  23.140  0.00  0.00    +0.000 A 
ATOM     14  O   UNL     1      -5.978  14.648  23.559  0.00  0.00    +0.000 OA
ATOM     15  O   UNL     1      -2.226  17.058  25.872  0.00  0.00    +0.000 OA
ATOM     16  C   UNL     1      -0.793  16.997  26.014  0.00  0.00    +0.000 C 
ATOM     17  O   UNL     1      -0.207  15.848  25.362  0.00  0.00    +0.000 OA
ATOM     18  H   UNL     1      -5.288  11.131  20.721  0.00  0.00    +0.000 HD
ENDROOT
BRANCH   6  19
ATOM     19  C   UNL     1      -1.551  11.580  22.313  0.00  0.00    +0.000 A 
ATOM     20  C   UNL     1      -1.252  10.617  23.287  0.00  0.00    +0.000 A 
ATOM     21  C   UNL     1      -0.205   9.706  23.095  0.00  0.00    +0.000 A 
ATOM     22  C   UNL     1       0.584   9.751  21.943  0.00  0.00    +0.000 A 
ATOM     23  C   UNL     1       0.254  10.675  20.952  0.00  0.00    +0.000 A 
ATOM     24  C   UNL     1      -0.755  11.622  21.162  0.00  0.00    +0.000 A 
BRANCH  22  25
ATOM     25  N   UNL     1       1.538   8.760  21.690  0.00  0.00    +0.000 N 
ATOM     26  H   UNL     1       1.497   7.977  22.339  0.00  0.00    +0.000 HD
ATOM     27  H   UNL     1       2.482   9.111  21.581  0.00  0.00    +0.000 HD
ENDBRANCH  22  25
ENDBRANCH   6  19
BRANCH   1  28
ATOM     28  C   UNL     1      -7.117  11.510  19.634  0.00  0.00    +0.000 C 
BRANCH  28  29
ATOM     29  C   UNL     1      -6.852  11.523  18.135  0.00  0.00    +0.000 C 
BRANCH  29  30
ATOM     30  C   UNL     1      -5.508  12.166  17.790  0.00  0.00    +0.000 C 
BRANCH  30  32
ATOM     31  C   UNL     1      -3.634  10.495  17.718  0.00  0.00    +0.000 C 
ATOM     32  C   UNL     1      -4.667  11.254  16.900  0.00  0.00    +0.000 C 
ENDBRANCH  30  32
ENDBRANCH  29  30
ENDBRANCH  28  29
ENDBRANCH   1  28
TORSDOF 6
ENDMDL
MODEL 3
REMARK VINA RESULT:      -6.9      5.784      9.662
REMARK  Name = 
REMARK  7 active torsions:
REMARK  status: ('A' for Active; 'I' for Inactive)
REMARK    1  A    between atoms: C_1  and  C_2
REMARK    2  A    between atoms: C_2  and  C_3
REMARK    3  A    between atoms: C_3  and  C_4
REMARK    4  A    between atoms: C_4  and  C_5
REMARK    5  A    between atoms: C_5  and  N_6
REMARK    6  A    between atoms: C_11  and  C_12
REMARK    7  A    between atoms: C_15  and  N_16
REMARK                            x       y       z     vdW  Elec       q    Type
REMARK                         _______ _______ _______ _____ _____    ______ ____
ROOT
ATOM      1  N   UNL     1       0.800   8.645  20.384  0.00  0.00    +0.000 N 
ATOM      2  C   UNL     1       0.577   9.677  21.283  0.00  0.00    +0.000 C 
ATOM      3  O   UNL     1       1.164   9.682  22.366  0.00  0.00    +0.000 OA
ATOM      4  N   UNL     1      -0.374  10.624  20.867  0.00  0.00    +0.000 N 
ATOM      5  N   UNL     1      -1.023  10.426  19.644  0.00  0.00    +0.000 NA
ATOM      6  C   UNL     1      -2.030  11.184  19.302  0.00  0.00    +0.000 A 
ATOM      7  C   UNL     1      -2.582  12.228  20.220  0.00  0.00    +0.000 A 
ATOM      8  C   UNL     1      -3.787  12.922  20.008  0.00  0.00    +0.000 A 
ATOM      9  C   UNL     1      -4.161  13.888  20.923  0.00  0.00    +0.000 A 
ATOM     10  C   UNL     1      -3.427  14.148  22.049  0.00  0.00    +0.000 A 
ATOM     11  C   UNL     1      -2.270  13.460  22.317  0.00  0.00    +0.000 A 
ATOM     12  C   UNL     1      -1.852  12.489  21.386  0.00  0.00    +0.000 A 
ATOM     13  C   UNL     1      -0.650  11.704  21.694  0.00  0.00    +0.000 A 
ATOM     14  O   UNL     1       0.021  12.082  22.655  0.00  0.00    +0.000 OA
ATOM     15  O   UNL     1      -3.987  15.106  22.831  0.00  0.00    +0.000 OA
ATOM     16  C   UNL     1      -5.186  15.398  22.086  0.00  0.00    +0.000 C 
ATOM     17  O   UNL     1      -5.273  14.668  20.842  0.00  0.00    +0.000 OA
ATOM     18  H   UNL     1       0.580   8.893  19.427  0.00  0.00    +0.000 HD
ENDROOT
BRANCH   6  19
ATOM     19  C   UNL     1      -2.628  10.941  17.938  0.00  0.00    +0.000 A 
ATOM     20  C   UNL     1      -1.956  10.089  17.050  0.00  0.00    +0.000 A 
ATOM     21  C   UNL     1      -2.479   9.828  15.776  0.00  0.00    +0.000 A 
ATOM     22  C   UNL     1      -3.665  10.429  15.349  0.00  0.00    +0.000 A 
ATOM     23  C   UNL     1      -4.359  11.236  16.251  0.00  0.00    +0.000 A 
ATOM     24  C   UNL     1      -3.814  11.543  17.504  0.00  0.00    +0.000 A 
BRANCH  22  25
ATOM     25  N   UNL     1      -4.256  10.065  14.135  0.00  0.00    +0.000 N 
ATOM     26  H   UNL     1      -3.649   9.511  13.535  0.00  0.00    +0.000 HD
ATOM     27  H   UNL     1      -4.682  10.835  13.634  0.00  0.00    +0.000 HD
ENDBRANCH  22  25
ENDBRANCH   6  19
BRANCH   1  28
ATOM     28  C   UNL     1       1.824   7.668  20.702  0.00  0.00    +0.000 C 
BRANCH  28  29
ATOM     29  C   UNL     1       2.492   7.038  19.488  0.00  0.00    +0.000 C 
BRANCH  29  30
ATOM     30  C   UNL     1       2.589   5.516  19.603  0.00  0.00    +0.000 C 
BRANCH  30  32
ATOM     31  C   UNL     1       0.961   3.752  20.341  0.00  0.00    +0.000 C 
ATOM     32  C   UNL     1       1.737   4.992  20.756  0.00  0.00    +0.000 C 
ENDBRANCH  30  32
ENDBRANCH  29  30
ENDBRANCH  28  29
ENDBRANCH   1  28
TORSDOF 6
ENDMDL
MODEL 4
REMARK VINA RESULT:      -6.8      8.360     12.457
REMARK  Name = 
REMARK  7 active torsions:
REMARK  status: ('A' for Active; 'I' for Inactive)
REMARK    1  A    between atoms: C_1  and  C_2
REMARK    2  A    between atoms: C_2  and  C_3
REMARK    3  A    between atoms: C_3  and  C_4
REMARK    4  A    between atoms: C_4  and  C_5
REMARK    5  A    between atoms: C_5  and  N_6
REMARK    6  A    between atoms: C_11  and  C_12
REMARK    7  A    between atoms: C_15  and  N_16
REMARK                            x       y       z     vdW  Elec       q    Type
REMARK                         _______ _______ _______ _____ _____    ______ ____
ROOT
ATOM      1  N   UNL     1      -4.877  12.514  19.138  0.00  0.00    +0.000 N 
ATOM      2  C   UNL     1      -5.163  13.494  20.076  0.00  0.00    +0.000 C 
ATOM      3  O   UNL     1      -6.100  14.269  19.884  0.00  0.00    +0.000 OA
ATOM      4  N   UNL     1      -4.284  13.533  21.172  0.00  0.00    +0.000 N 
ATOM      5  N   UNL     1      -3.209  12.639  21.198  0.00  0.00    +0.000 NA
ATOM      6  C   UNL     1      -2.277  12.756  22.106  0.00  0.00    +0.000 A 
ATOM      7  C   UNL     1      -2.271  13.880  23.093  0.00  0.00    +0.000 A 
ATOM      8  C   UNL     1      -1.196  14.188  23.946  0.00  0.00    +0.000 A 
ATOM      9  C   UNL     1      -1.338  15.236  24.835  0.00  0.00    +0.000 A 
ATOM     10  C   UNL     1      -2.466  16.011  24.872  0.00  0.00    +0.000 A 
ATOM     11  C   UNL     1      -3.519  15.774  24.024  0.00  0.00    +0.000 A 
ATOM     12  C   UNL     1      -3.409  14.694  23.126  0.00  0.00    +0.000 A 
ATOM     13  C   UNL     1      -4.503  14.470  22.172  0.00  0.00    +0.000 A 
ATOM     14  O   UNL     1      -5.531  15.125  22.352  0.00  0.00    +0.000 OA
ATOM     15  O   UNL     1      -2.388  17.007  25.790  0.00  0.00    +0.000 OA
ATOM     16  C   UNL     1      -1.061  16.795  26.310  0.00  0.00    +0.000 C 
ATOM     17  O   UNL     1      -0.410  15.634  25.746  0.00  0.00    +0.000 OA
ATOM     18  H   UNL     1      -4.361  11.731  19.521  0.00  0.00    +0.000 HD
ENDROOT
BRANCH   6  19
ATOM     19  C   UNL     1      -1.190  11.710  22.098  0.00  0.00    +0.000 A 
ATOM     20  C   UNL     1      -1.198  10.721  23.092  0.00  0.00    +0.000 A 
ATOM     21  C   UNL     1      -0.212   9.725  23.117  0.00  0.00    +0.000 A 
ATOM     22  C   UNL     1       0.816   9.707  22.172  0.00  0.00    +0.000 A 
ATOM     23  C   UNL     1       0.794  10.660  21.154  0.00  0.00    +0.000 A 
ATOM     24  C   UNL     1      -0.156  11.688  21.155  0.00  0.00    +0.000 A 
BRANCH  22  25
ATOM     25  N   UNL     1       1.718   8.640  22.115  0.00  0.00    +0.000 N 
ATOM     26  H   UNL     1       2.594   8.818  22.601  0.00  0.00    +0.000 HD
ATOM     27  H   UNL     1       1.871   8.276  21.183  0.00  0.00    +0.000 HD
ENDBRANCH  22  25
ENDBRANCH   6  19
BRANCH   1  28
ATOM     28  C   UNL     1      -5.781  12.355  18.014  0.00  0.00    +0.000 C 
BRANCH  28  29
ATOM     29  C   UNL     1      -5.131  11.793  16.758  0.00  0.00    +0.000 C 
BRANCH  29  30
ATOM     30  C   UNL     1      -3.657  11.448  16.972  0.00  0.00    +0.000 C 
BRANCH  30  32
ATOM     31  C   UNL     1      -2.940  10.153  14.943  0.00  0.00    +0.000 C 
ATOM     32  C   UNL     1      -3.322  10.068  16.412  0.00  0.00    +0.000 C 
ENDBRANCH  30  32
ENDBRANCH  29  30
ENDBRANCH  28  29
ENDBRANCH   1  28
TORSDOF 6
ENDMDL
MODEL 5
REMARK VINA RESULT:      -6.6      5.829      9.797
REMARK  Name = 
REMARK  7 active torsions:
REMARK  status: ('A' for Active; 'I' for Inactive)
REMARK    1  A    between atoms: C_1  and  C_2
REMARK    2  A    between atoms: C_2  and  C_3
REMARK    3  A    between atoms: C_3  and  C_4
REMARK    4  A    between atoms: C_4  and  C_5
REMARK    5  A    between atoms: C_5  and  N_6
REMARK    6  A    between atoms: C_11  and  C_12
REMARK    7  A    between atoms: C_15  and  N_16
REMARK                            x       y       z     vdW  Elec       q    Type
REMARK                         _______ _______ _______ _____ _____    ______ ____
ROOT
ATOM      1  N   UNL     1       0.792   8.736  20.631  0.00  0.00    +0.000 N 
ATOM      2  C   UNL     1       0.520   9.799  21.479  0.00  0.00    +0.000 C 
ATOM      3  O   UNL     1       1.067   9.859  22.580  0.00  0.00    +0.000 OA
ATOM      4  N   UNL     1      -0.433  10.710  20.990  0.00  0.00    +0.000 N 
ATOM      5  N   UNL     1      -1.034  10.450  19.755  0.00  0.00    +0.000 NA
ATOM      6  C   UNL     1      -2.042  11.175  19.347  0.00  0.00    +0.000 A 
ATOM      7  C   UNL     1      -2.643  12.245  20.202  0.00  0.00    +0.000 A 
ATOM      8  C   UNL     1      -3.852  12.908  19.919  0.00  0.00    +0.000 A 
ATOM      9  C   UNL     1      -4.275  13.903  20.780  0.00  0.00    +0.000 A 
ATOM     10  C   UNL     1      -3.586  14.222  21.919  0.00  0.00    +0.000 A 
ATOM     11  C   UNL     1      -2.427  13.567  22.256  0.00  0.00    +0.000 A 
ATOM     12  C   UNL     1      -1.960  12.567  21.380  0.00  0.00    +0.000 A 
ATOM     13  C   UNL     1      -0.756  11.817  21.762  0.00  0.00    +0.000 A 
ATOM     14  O   UNL     1      -0.127  12.247  22.730  0.00  0.00    +0.000 OA
ATOM     15  O   UNL     1      -4.190  15.200  22.641  0.00  0.00    +0.000 OA
ATOM     16  C   UNL     1      -5.366  15.439  21.843  0.00  0.00    +0.000 C 
ATOM     17  O   UNL     1      -5.396  14.657  20.628  0.00  0.00    +0.000 OA
ATOM     18  H   UNL     1       0.602   8.940  19.658  0.00  0.00    +0.000 HD
ENDROOT
BRANCH   6  19
ATOM     19  C   UNL     1      -2.585  10.866  17.974  0.00  0.00    +0.000 A 
ATOM     20  C   UNL     1      -3.804  11.440  17.586  0.00  0.00    +0.000 A 
ATOM     21  C   UNL     1      -4.342  11.187  16.317  0.00  0.00    +0.000 A 
ATOM     22  C   UNL     1      -3.694  10.335  15.419  0.00  0.00    +0.000 A 
ATOM     23  C   UNL     1      -2.457   9.806  15.786  0.00  0.00    +0.000 A 
ATOM     24  C   UNL     1      -1.942  10.012  17.071  0.00  0.00    +0.000 A 
BRANCH  22  25
ATOM     25  N   UNL     1      -4.159  10.190  14.108  0.00  0.00    +0.000 N 
ATOM     26  H   UNL     1      -5.032  10.681  13.927  0.00  0.00    +0.000 HD
ATOM     27  H   UNL     1      -4.191   9.232  13.783  0.00  0.00    +0.000 HD
ENDBRANCH  22  25
ENDBRANCH   6  19
BRANCH   1  28
ATOM     28  C   UNL     1       1.820   7.791  21.024  0.00  0.00    +0.000 C 
BRANCH  28  29
ATOM     29  C   UNL     1       2.090   6.693  20.006  0.00  0.00    +0.000 C 
BRANCH  29  30
ATOM     30  C   UNL     1       1.787   5.300  20.561  0.00  0.00    +0.000 C 
BRANCH  30  32
ATOM     31  C   UNL     1       0.881   3.049  19.913  0.00  0.00    +0.000 C 
ATOM     32  C   UNL     1       1.646   4.274  19.439  0.00  0.00    +0.000 C 
ENDBRANCH  30  32
ENDBRANCH  29  30
ENDBRANCH  28  29
ENDBRANCH   1  28
TORSDOF 6
ENDMDL
MODEL 6
REMARK VINA RESULT:      -6.6      5.892      9.851
REMARK  Name = 
REMARK  7 active torsions:
REMARK  status: ('A' for Active; 'I' for Inactive)
REMARK    1  A    between atoms: C_1  and  C_2
REMARK    2  A    between atoms: C_2  and  C_3
REMARK    3  A    between atoms: C_3  and  C_4
REMARK    4  A    between atoms: C_4  and  C_5
REMARK    5  A    between atoms: C_5  and  N_6
REMARK    6  A    between atoms: C_11  and  C_12
REMARK    7  A    between atoms: C_15  and  N_16
REMARK                            x       y       z     vdW  Elec       q    Type
REMARK                         _______ _______ _______ _____ _____    ______ ____
ROOT
ATOM      1  N   UNL     1       1.152   8.487  20.959  0.00  0.00    +0.000 N 
ATOM      2  C   UNL     1       0.160   9.021  21.768  0.00  0.00    +0.000 C 
ATOM      3  O   UNL     1      -0.621   8.272  22.354  0.00  0.00    +0.000 OA
ATOM      4  N   UNL     1       0.118  10.426  21.794  0.00  0.00    +0.000 N 
ATOM      5  N   UNL     1       1.021  11.137  20.996  0.00  0.00    +0.000 NA
ATOM      6  C   UNL     1       0.903  12.431  20.860  0.00  0.00    +0.000 A 
ATOM      7  C   UNL     1      -0.230  13.190  21.474  0.00  0.00    +0.000 A 
ATOM      8  C   UNL     1      -0.537  14.533  21.191  0.00  0.00    +0.000 A 
ATOM      9  C   UNL     1      -1.595  15.123  21.857  0.00  0.00    +0.000 A 
ATOM     10  C   UNL     1      -2.380  14.427  22.736  0.00  0.00    +0.000 A 
ATOM     11  C   UNL     1      -2.143  13.102  23.005  0.00  0.00    +0.000 A 
ATOM     12  C   UNL     1      -1.054  12.485  22.359  0.00  0.00    +0.000 A 
ATOM     13  C   UNL     1      -0.830  11.052  22.590  0.00  0.00    +0.000 A 
ATOM     14  O   UNL     1      -1.496  10.531  23.487  0.00  0.00    +0.000 OA
ATOM     15  O   UNL     1      -3.384  15.181  23.252  0.00  0.00    +0.000 OA
ATOM     16  C   UNL     1      -3.165  16.430  22.568  0.00  0.00    +0.000 C 
ATOM     17  O   UNL     1      -1.994  16.416  21.722  0.00  0.00    +0.000 OA
ATOM     18  H   UNL     1       1.935   9.112  20.818  0.00  0.00    +0.000 HD
ENDROOT
BRANCH   6  19
ATOM     19  C   UNL     1       1.958  13.122  20.034  0.00  0.00    +0.000 A 
ATOM     20  C   UNL     1       1.933  12.967  18.640  0.00  0.00    +0.000 A 
ATOM     21  C   UNL     1       2.888  13.599  17.833  0.00  0.00    +0.000 A 
ATOM     22  C   UNL     1       3.905  14.375  18.395  0.00  0.00    +0.000 A 
ATOM     23  C   UNL     1       3.899  14.570  19.776  0.00  0.00    +0.000 A 
ATOM     24  C   UNL     1       2.981  13.899  20.592  0.00  0.00    +0.000 A 
BRANCH  22  25
ATOM     25  N   UNL     1       4.774  15.112  17.586  0.00  0.00    +0.000 N 
ATOM     26  H   UNL     1       5.137  15.951  18.033  0.00  0.00    +0.000 HD
ATOM     27  H   UNL     1       4.414  15.305  16.659  0.00  0.00    +0.000 HD
ENDBRANCH  22  25
ENDBRANCH   6  19
BRANCH   1  28
ATOM     28  C   UNL     1       1.314   7.045  20.936  0.00  0.00    +0.000 C 
BRANCH  28  29
ATOM     29  C   UNL     1       2.275   6.536  19.871  0.00  0.00    +0.000 C 
BRANCH  29  30
ATOM     30  C   UNL     1       2.360   5.009  19.848  0.00  0.00    +0.000 C 
BRANCH  30  32
ATOM     31  C   UNL     1       1.485   3.083  21.202  0.00  0.00    +0.000 C 
ATOM     32  C   UNL     1       1.127   4.375  20.486  0.00  0.00    +0.000 C 
ENDBRANCH  30  32
ENDBRANCH  29  30
ENDBRANCH  28  29
ENDBRANCH   1  28
TORSDOF 6
ENDMDL
MODEL 7
REMARK VINA RESULT:      -6.5      3.586      7.030
REMARK  Name = 
REMARK  7 active torsions:
REMARK  status: ('A' for Active; 'I' for Inactive)
REMARK    1  A    between atoms: C_1  and  C_2
REMARK    2  A    between atoms: C_2  and  C_3
REMARK    3  A    between atoms: C_3  and  C_4
REMARK    4  A    between atoms: C_4  and  C_5
REMARK    5  A    between atoms: C_5  and  N_6
REMARK    6  A    between atoms: C_11  and  C_12
REMARK    7  A    between atoms: C_15  and  N_16
REMARK                            x       y       z     vdW  Elec       q    Type
REMARK                         _______ _______ _______ _____ _____    ______ ____
ROOT
ATOM      1  N   UNL     1       0.475   9.325  19.526  0.00  0.00    +0.000 N 
ATOM      2  C   UNL     1       1.517   9.427  18.616  0.00  0.00    +0.000 C 
ATOM      3  O   UNL     1       1.669  10.466  17.975  0.00  0.00    +0.000 OA
ATOM      4  N   UNL     1       2.293   8.262  18.480  0.00  0.00    +0.000 N 
ATOM      5  N   UNL     1       1.933   7.129  19.216  0.00  0.00    +0.000 NA
ATOM      6  C   UNL     1       2.519   5.984  18.991  0.00  0.00    +0.000 A 
ATOM      7  C   UNL     1       3.527   5.812  17.899  0.00  0.00    +0.000 A 
ATOM      8  C   UNL     1       4.030   4.573  17.464  0.00  0.00    +0.000 A 
ATOM      9  C   UNL     1       4.986   4.563  16.466  0.00  0.00    +0.000 A 
ATOM     10  C   UNL     1       5.414   5.711  15.856  0.00  0.00    +0.000 A 
ATOM     11  C   UNL     1       4.914   6.937  16.218  0.00  0.00    +0.000 A 
ATOM     12  C   UNL     1       3.958   6.976  17.252  0.00  0.00    +0.000 A 
ATOM     13  C   UNL     1       3.370   8.275  17.605  0.00  0.00    +0.000 A 
ATOM     14  O   UNL     1       3.896   9.270  17.103  0.00  0.00    +0.000 OA
ATOM     15  O   UNL     1       6.327   5.477  14.879  0.00  0.00    +0.000 OA
ATOM     16  C   UNL     1       6.402   4.038  14.916  0.00  0.00    +0.000 C 
ATOM     17  O   UNL     1       5.594   3.455  15.962  0.00  0.00    +0.000 OA
ATOM     18  H   UNL     1       0.632   8.622  20.238  0.00  0.00    +0.000 HD
ENDROOT
BRANCH   6  19
ATOM     19  C   UNL     1       2.113   4.831  19.875  0.00  0.00    +0.000 A 
ATOM     20  C   UNL     1       2.761   4.665  21.107  0.00  0.00    +0.000 A 
ATOM     21  C   UNL     1       2.410   3.613  21.965  0.00  0.00    +0.000 A 
ATOM     22  C   UNL     1       1.427   2.689  21.603  0.00  0.00    +0.000 A 
ATOM     23  C   UNL     1       0.747   2.885  20.401  0.00  0.00    +0.000 A 
ATOM     24  C   UNL     1       1.131   3.901  19.517  0.00  0.00    +0.000 A 
BRANCH  22  25
ATOM     25  N   UNL     1       0.983   1.724  22.511  0.00  0.00    +0.000 N 
ATOM     26  H   UNL     1       1.731   1.301  23.057  0.00  0.00    +0.000 HD
ATOM     27  H   UNL     1       0.370   1.026  22.108  0.00  0.00    +0.000 HD
ENDBRANCH  22  25
ENDBRANCH   6  19
BRANCH   1  28
ATOM     28  C   UNL     1      -0.327  10.506  19.784  0.00  0.00    +0.000 C 
BRANCH  28  29
ATOM     29  C   UNL     1      -1.702  10.488  19.132  0.00  0.00    +0.000 C 
BRANCH  29  30
ATOM     30  C   UNL     1      -1.640  10.077  17.660  0.00  0.00    +0.000 C 
BRANCH  30  32
ATOM     31  C   UNL     1      -2.949   9.938  15.521  0.00  0.00    +0.000 C 
ATOM     32  C   UNL     1      -3.032  10.038  17.035  0.00  0.00    +0.000 C 
ENDBRANCH  30  32
ENDBRANCH  29  30
ENDBRANCH  28  29
ENDBRANCH   1  28
TORSDOF 6
ENDMDL
MODEL 8
REMARK VINA RESULT:      -6.4      8.128     11.742
REMARK  Name = 
REMARK  7 active torsions:
REMARK  status: ('A' for Active; 'I' for Inactive)
REMARK    1  A    between atoms: C_1  and  C_2
REMARK    2  A    between atoms: C_2  and  C_3
REMARK    3  A    between atoms: C_3  and  C_4
REMARK    4  A    between atoms: C_4  and  C_5
REMARK    5  A    between atoms: C_5  and  N_6
REMARK    6  A    between atoms: C_11  and  C_12
REMARK    7  A    between atoms: C_15  and  N_16
REMARK                            x       y       z     vdW  Elec       q    Type
REMARK                         _______ _______ _______ _____ _____    ______ ____
ROOT
ATOM      1  N   UNL     1      -3.947  12.302  18.466  0.00  0.00    +0.000 N 
ATOM      2  C   UNL     1      -4.315  12.402  19.799  0.00  0.00    +0.000 C 
ATOM      3  O   UNL     1      -5.470  12.140  20.136  0.00  0.00    +0.000 OA
ATOM      4  N   UNL     1      -3.299  12.861  20.655  0.00  0.00    +0.000 N 
ATOM      5  N   UNL     1      -2.063  13.205  20.101  0.00  0.00    +0.000 NA
ATOM      6  C   UNL     1      -1.154  13.794  20.832  0.00  0.00    +0.000 A 
ATOM      7  C   UNL     1      -1.417  14.195  22.249  0.00  0.00    +0.000 A 
ATOM      8  C   UNL     1      -0.573  15.018  23.016  0.00  0.00    +0.000 A 
ATOM      9  C   UNL     1      -0.922  15.283  24.327  0.00  0.00    +0.000 A 
ATOM     10  C   UNL     1      -2.084  14.815  24.879  0.00  0.00    +0.000 A 
ATOM     11  C   UNL     1      -2.959  14.048  24.151  0.00  0.00    +0.000 A 
ATOM     12  C   UNL     1      -2.612  13.742  22.820  0.00  0.00    +0.000 A 
ATOM     13  C   UNL     1      -3.570  12.976  22.012  0.00  0.00    +0.000 A 
ATOM     14  O   UNL     1      -4.527  12.486  22.614  0.00  0.00    +0.000 OA
ATOM     15  O   UNL     1      -2.253  15.218  26.164  0.00  0.00    +0.000 OA
ATOM     16  C   UNL     1      -1.076  16.028  26.352  0.00  0.00    +0.000 C 
ATOM     17  O   UNL     1      -0.197  16.026  25.206  0.00  0.00    +0.000 OA
ATOM     18  H   UNL     1      -2.950  12.180  18.333  0.00  0.00    +0.000 HD
ENDROOT
BRANCH   6  19
ATOM     19  C   UNL     1       0.172  14.071  20.169  0.00  0.00    +0.000 A 
ATOM     20  C   UNL     1       0.310  15.231  19.394  0.00  0.00    +0.000 A 
ATOM     21  C   UNL     1       1.527  15.532  18.768  0.00  0.00    +0.000 A 
ATOM     22  C   UNL     1       2.623  14.672  18.875  0.00  0.00    +0.000 A 
ATOM     23  C   UNL     1       2.501  13.545  19.688  0.00  0.00    +0.000 A 
ATOM     24  C   UNL     1       1.273  13.212  20.272  0.00  0.00    +0.000 A 
BRANCH  22  25
ATOM     25  N   UNL     1       3.872  15.037  18.365  0.00  0.00    +0.000 N 
ATOM     26  H   UNL     1       3.985  16.041  18.239  0.00  0.00    +0.000 HD
ATOM     27  H   UNL     1       4.151  14.519  17.541  0.00  0.00    +0.000 HD
ENDBRANCH  22  25
ENDBRANCH   6  19
BRANCH   1  28
ATOM     28  C   UNL     1      -4.912  11.762  17.526  0.00  0.00    +0.000 C 
BRANCH  28  29
ATOM     29  C   UNL     1      -4.325  10.801  16.503  0.00  0.00    +0.000 C 
BRANCH  29  30
ATOM     30  C   UNL     1      -3.426   9.745  17.148  0.00  0.00    +0.000 C 
BRANCH  30  32
ATOM     31  C   UNL     1      -1.096  10.213  17.960  0.00  0.00    +0.000 C 
ATOM     32  C   UNL     1      -1.966   9.937  16.745  0.00  0.00    +0.000 C 
ENDBRANCH  30  32
ENDBRANCH  29  30
ENDBRANCH  28  29
ENDBRANCH   1  28
TORSDOF 6
ENDMDL
MODEL 9
REMARK VINA RESULT:      -6.4      8.346     13.233
REMARK  Name = 
REMARK  7 active torsions:
REMARK  status: ('A' for Active; 'I' for Inactive)
REMARK    1  A    between atoms: C_1  and  C_2
REMARK    2  A    between atoms: C_2  and  C_3
REMARK    3  A    between atoms: C_3  and  C_4
REMARK    4  A    between atoms: C_4  and  C_5
REMARK    5  A    between atoms: C_5  and  N_6
REMARK    6  A    between atoms: C_11  and  C_12
REMARK    7  A    between atoms: C_15  and  N_16
REMARK                            x       y       z     vdW  Elec       q    Type
REMARK                         _______ _______ _______ _____ _____    ______ ____
ROOT
ATOM      1  N   UNL     1      -6.321  11.954  21.919  0.00  0.00    +0.000 N 
ATOM      2  C   UNL     1      -6.077  13.160  22.559  0.00  0.00    +0.000 C 
ATOM      3  O   UNL     1      -7.005  13.942  22.764  0.00  0.00    +0.000 OA
ATOM      4  N   UNL     1      -4.728  13.394  22.875  0.00  0.00    +0.000 N 
ATOM      5  N   UNL     1      -3.777  12.443  22.492  0.00  0.00    +0.000 NA
ATOM      6  C   UNL     1      -2.501  12.700  22.613  0.00  0.00    +0.000 A 
ATOM      7  C   UNL     1      -2.004  14.031  23.083  0.00  0.00    +0.000 A 
ATOM      8  C   UNL     1      -0.661  14.445  23.030  0.00  0.00    +0.000 A 
ATOM      9  C   UNL     1      -0.336  15.692  23.531  0.00  0.00    +0.000 A 
ATOM     10  C   UNL     1      -1.283  16.549  24.024  0.00  0.00    +0.000 A 
ATOM     11  C   UNL     1      -2.610  16.201  24.050  0.00  0.00    +0.000 A 
ATOM     12  C   UNL     1      -2.965  14.925  23.569  0.00  0.00    +0.000 A 
ATOM     13  C   UNL     1      -4.389  14.567  23.535  0.00  0.00    +0.000 A 
ATOM     14  O   UNL     1      -5.162  15.336  24.110  0.00  0.00    +0.000 OA
ATOM     15  O   UNL     1      -0.758  17.732  24.431  0.00  0.00    +0.000 OA
ATOM     16  C   UNL     1       0.633  17.539  24.105  0.00  0.00    +0.000 C 
ATOM     17  O   UNL     1       0.916  16.221  23.585  0.00  0.00    +0.000 OA
ATOM     18  H   UNL     1      -5.619  11.250  22.109  0.00  0.00    +0.000 HD
ENDROOT
BRANCH   6  19
ATOM     19  C   UNL     1      -1.549  11.593  22.235  0.00  0.00    +0.000 A 
ATOM     20  C   UNL     1      -1.146  10.683  23.223  0.00  0.00    +0.000 A 
ATOM     21  C   UNL     1      -0.270   9.634  22.914  0.00  0.00    +0.000 A 
ATOM     22  C   UNL     1       0.246   9.484  21.624  0.00  0.00    +0.000 A 
ATOM     23  C   UNL     1      -0.196  10.359  20.631  0.00  0.00    +0.000 A 
ATOM     24  C   UNL     1      -1.028  11.440  20.945  0.00  0.00    +0.000 A 
BRANCH  22  25
ATOM     25  N   UNL     1       1.009   8.364  21.284  0.00  0.00    +0.000 N 
ATOM     26  H   UNL     1       0.474   7.626  20.831  0.00  0.00    +0.000 HD
ATOM     27  H   UNL     1       1.580   8.006  22.040  0.00  0.00    +0.000 HD
ENDBRANCH  22  25
ENDBRANCH   6  19
BRANCH   1  28
ATOM     28  C   UNL     1      -7.697  11.600  21.626  0.00  0.00    +0.000 C 
BRANCH  28  29
ATOM     29  C   UNL     1      -7.863  10.619  20.474  0.00  0.00    +0.000 C 
BRANCH  29  30
ATOM     30  C   UNL     1      -6.648  10.603  19.545  0.00  0.00    +0.000 C 
BRANCH  30  32
ATOM     31  C   UNL     1      -6.505  12.772  18.286  0.00  0.00    +0.000 C 
ATOM     32  C   UNL     1      -6.945  11.319  18.230  0.00  0.00    +0.000 C 
ENDBRANCH  30  32
ENDBRANCH  29  30
ENDBRANCH  28  29
ENDBRANCH   1  28
TORSDOF 6
ENDMDL
