MODEL 1
REMARK VINA RESULT:      -7.8      0.000      0.000
REMARK  Name = 
REMARK  2 active torsions:
REMARK  status: ('A' for Active; 'I' for Inactive)
REMARK    1  A    between atoms: C_8  and  C_9
REMARK    2  A    between atoms: C_9  and  C_10
REMARK                            x       y       z     vdW  Elec       q    Type
REMARK                         _______ _______ _______ _____ _____    ______ ____
ROOT
ATOM      1  O   UNL     1       0.074   2.181  18.895  0.00  0.00    +0.000 OA
ATOM      2  C   UNL     1       0.929   2.885  19.418  0.00  0.00    +0.000 C 
ATOM      3  N   UNL     1       0.804   3.306  20.723  0.00  0.00    +0.000 N 
ATOM      4  C   UNL     1       1.922   3.868  21.443  0.00  0.00    +0.000 C 
ATOM      5  C   UNL     1       2.665   4.896  20.593  0.00  0.00    +0.000 C 
ATOM      6  C   UNL     1       2.994   4.305  19.247  0.00  0.00    +0.000 A 
ATOM      7  C   UNL     1       4.101   4.757  18.515  0.00  0.00    +0.000 A 
ATOM      8  C   UNL     1       4.381   4.236  17.242  0.00  0.00    +0.000 A 
ATOM      9  C   UNL     1       3.545   3.239  16.713  0.00  0.00    +0.000 A 
ATOM     10  C   UNL     1       2.426   2.799  17.424  0.00  0.00    +0.000 A 
ATOM     11  C   UNL     1       2.144   3.337  18.683  0.00  0.00    +0.000 A 
ATOM     12  H   UNL     1       0.030   2.887  21.226  0.00  0.00    +0.000 HD
ENDROOT
BRANCH   8  13
ATOM     13  C   UNL     1       5.544   4.768  16.434  0.00  0.00    +0.000 C 
BRANCH  13  14
ATOM     14  C   UNL     1       6.524   5.625  17.197  0.00  0.00    +0.000 A 
ATOM     15  C   UNL     1       6.674   6.986  16.886  0.00  0.00    +0.000 A 
ATOM     16  C   UNL     1       7.529   7.795  17.637  0.00  0.00    +0.000 A 
ATOM     17  C   UNL     1       8.250   7.254  18.699  0.00  0.00    +0.000 A 
ATOM     18  C   UNL     1       8.128   5.900  19.004  0.00  0.00    +0.000 A 
ATOM     19  C   UNL     1       7.273   5.088  18.255  0.00  0.00    +0.000 A 
ENDBRANCH  13  14
ENDBRANCH   8  13
TORSDOF 2
ENDMDL
MODEL 2
REMARK VINA RESULT:      -7.7      0.688      1.310
REMARK  Name = 
REMARK  2 active torsions:
REMARK  status: ('A' for Active; 'I' for Inactive)
REMARK    1  A    between atoms: C_8  and  C_9
REMARK    2  A    between atoms: C_9  and  C_10
REMARK                            x       y       z     vdW  Elec       q    Type
REMARK                         _______ _______ _______ _____ _____    ______ ____
ROOT
ATOM      1  O   UNL     1       0.461   1.692  18.668  0.00  0.00    +0.000 OA
ATOM      2  C   UNL     1       0.995   2.637  19.234  0.00  0.00    +0.000 C 
ATOM      3  N   UNL     1       0.644   2.987  20.520  0.00  0.00    +0.000 N 
ATOM      4  C   UNL     1       1.459   3.885  21.304  0.00  0.00    +0.000 C 
ATOM      5  C   UNL     1       1.878   5.105  20.487  0.00  0.00    +0.000 C 
ATOM      6  C   UNL     1       2.479   4.664  19.179  0.00  0.00    +0.000 A 
ATOM      7  C   UNL     1       3.423   5.460  18.517  0.00  0.00    +0.000 A 
ATOM      8  C   UNL     1       3.950   5.068  17.276  0.00  0.00    +0.000 A 
ATOM      9  C   UNL     1       3.532   3.853  16.710  0.00  0.00    +0.000 A 
ATOM     10  C   UNL     1       2.574   3.063  17.350  0.00  0.00    +0.000 A 
ATOM     11  C   UNL     1       2.041   3.471  18.576  0.00  0.00    +0.000 A 
ATOM     12  H   UNL     1       0.020   2.332  20.975  0.00  0.00    +0.000 HD
ENDROOT
BRANCH   8  13
ATOM     13  C   UNL     1       4.925   5.960  16.540  0.00  0.00    +0.000 C 
BRANCH  13  14
ATOM     14  C   UNL     1       6.114   6.424  17.346  0.00  0.00    +0.000 A 
ATOM     15  C   UNL     1       6.653   5.610  18.355  0.00  0.00    +0.000 A 
ATOM     16  C   UNL     1       7.795   6.008  19.053  0.00  0.00    +0.000 A 
ATOM     17  C   UNL     1       8.404   7.225  18.759  0.00  0.00    +0.000 A 
ATOM     18  C   UNL     1       7.867   8.053  17.777  0.00  0.00    +0.000 A 
ATOM     19  C   UNL     1       6.725   7.658  17.076  0.00  0.00    +0.000 A 
ENDBRANCH  13  14
ENDBRANCH   8  13
TORSDOF 2
ENDMDL
MODEL 3
REMARK VINA RESULT:      -7.5      4.146      6.998
REMARK  Name = 
REMARK  2 active torsions:
REMARK  status: ('A' for Active; 'I' for Inactive)
REMARK    1  A    between atoms: C_8  and  C_9
REMARK    2  A    between atoms: C_9  and  C_10
REMARK                            x       y       z     vdW  Elec       q    Type
REMARK                         _______ _______ _______ _____ _____    ______ ____
ROOT
ATOM      1  O   UNL     1       8.614   5.921  13.073  0.00  0.00    +0.000 OA
ATOM      2  C   UNL     1       7.681   5.140  13.209  0.00  0.00    +0.000 C 
ATOM      3  N   UNL     1       7.139   4.482  12.127  0.00  0.00    +0.000 N 
ATOM      4  C   UNL     1       6.261   3.349  12.298  0.00  0.00    +0.000 C 
ATOM      5  C   UNL     1       5.209   3.624  13.369  0.00  0.00    +0.000 C 
ATOM      6  C   UNL     1       5.874   4.121  14.626  0.00  0.00    +0.000 A 
ATOM      7  C   UNL     1       5.284   3.915  15.881  0.00  0.00    +0.000 A 
ATOM      8  C   UNL     1       5.884   4.417  17.047  0.00  0.00    +0.000 A 
ATOM      9  C   UNL     1       7.098   5.116  16.944  0.00  0.00    +0.000 A 
ATOM     10  C   UNL     1       7.681   5.347  15.696  0.00  0.00    +0.000 A 
ATOM     11  C   UNL     1       7.067   4.860  14.539  0.00  0.00    +0.000 A 
ATOM     12  H   UNL     1       7.653   4.606  11.263  0.00  0.00    +0.000 HD
ENDROOT
BRANCH   8  13
ATOM     13  C   UNL     1       5.214   4.240  18.391  0.00  0.00    +0.000 C 
BRANCH  13  14
ATOM     14  C   UNL     1       3.791   3.740  18.345  0.00  0.00    +0.000 A 
ATOM     15  C   UNL     1       3.480   2.436  18.761  0.00  0.00    +0.000 A 
ATOM     16  C   UNL     1       2.155   1.996  18.785  0.00  0.00    +0.000 A 
ATOM     17  C   UNL     1       1.128   2.849  18.385  0.00  0.00    +0.000 A 
ATOM     18  C   UNL     1       1.425   4.137  17.947  0.00  0.00    +0.000 A 
ATOM     19  C   UNL     1       2.750   4.581  17.923  0.00  0.00    +0.000 A 
ENDBRANCH  13  14
ENDBRANCH   8  13
TORSDOF 2
ENDMDL
MODEL 4
REMARK VINA RESULT:      -7.5      4.361      6.102
REMARK  Name = 
REMARK  2 active torsions:
REMARK  status: ('A' for Active; 'I' for Inactive)
REMARK    1  A    between atoms: C_8  and  C_9
REMARK    2  A    between atoms: C_9  and  C_10
REMARK                            x       y       z     vdW  Elec       q    Type
REMARK                         _______ _______ _______ _____ _____    ______ ____
ROOT
ATOM      1  O   UNL     1       0.112  11.646  19.208  0.00  0.00    +0.000 OA
ATOM      2  C   UNL     1       0.293  10.666  19.919  0.00  0.00    +0.000 C 
ATOM      3  N   UNL     1      -0.191  10.621  21.208  0.00  0.00    +0.000 N 
ATOM      4  C   UNL     1      -0.256   9.381  21.946  0.00  0.00    +0.000 C 
ATOM      5  C   UNL     1       1.043   8.591  21.809  0.00  0.00    +0.000 C 
ATOM      6  C   UNL     1       1.412   8.459  20.354  0.00  0.00    +0.000 A 
ATOM      7  C   UNL     1       2.171   7.371  19.901  0.00  0.00    +0.000 A 
ATOM      8  C   UNL     1       2.551   7.273  18.554  0.00  0.00    +0.000 A 
ATOM      9  C   UNL     1       2.145   8.272  17.655  0.00  0.00    +0.000 A 
ATOM     10  C   UNL     1       1.408   9.372  18.101  0.00  0.00    +0.000 A 
ATOM     11  C   UNL     1       1.051   9.472  19.448  0.00  0.00    +0.000 A 
ATOM     12  H   UNL     1      -0.797  11.395  21.454  0.00  0.00    +0.000 HD
ENDROOT
BRANCH   8  13
ATOM     13  C   UNL     1       3.418   6.126  18.083  0.00  0.00    +0.000 C 
BRANCH  13  14
ATOM     14  C   UNL     1       2.925   4.748  18.450  0.00  0.00    +0.000 A 
ATOM     15  C   UNL     1       3.679   3.924  19.300  0.00  0.00    +0.000 A 
ATOM     16  C   UNL     1       3.190   2.677  19.696  0.00  0.00    +0.000 A 
ATOM     17  C   UNL     1       1.950   2.236  19.240  0.00  0.00    +0.000 A 
ATOM     18  C   UNL     1       1.203   3.033  18.376  0.00  0.00    +0.000 A 
ATOM     19  C   UNL     1       1.688   4.281  17.979  0.00  0.00    +0.000 A 
ENDBRANCH  13  14
ENDBRANCH   8  13
TORSDOF 2
ENDMDL
MODEL 5
REMARK VINA RESULT:      -7.4      4.301      6.525
REMARK  Name = 
REMARK  2 active torsions:
REMARK  status: ('A' for Active; 'I' for Inactive)
REMARK    1  A    between atoms: C_8  and  C_9
REMARK    2  A    between atoms: C_9  and  C_10
REMARK                            x       y       z     vdW  Elec       q    Type
REMARK                         _______ _______ _______ _____ _____    ______ ____
ROOT
ATOM      1  O   UNL     1       8.744   5.873  13.303  0.00  0.00    +0.000 OA
ATOM      2  C   UNL     1       7.766   5.135  13.308  0.00  0.00    +0.000 C 
ATOM      3  N   UNL     1       7.347   4.501  12.160  0.00  0.00    +0.000 N 
ATOM      4  C   UNL     1       6.404   3.408  12.204  0.00  0.00    +0.000 C 
ATOM      5  C   UNL     1       5.230   3.732  13.125  0.00  0.00    +0.000 C 
ATOM      6  C   UNL     1       5.741   4.199  14.462  0.00  0.00    +0.000 A 
ATOM      7  C   UNL     1       4.978   4.021  15.625  0.00  0.00    +0.000 A 
ATOM      8  C   UNL     1       5.436   4.497  16.864  0.00  0.00    +0.000 A 
ATOM      9  C   UNL     1       6.683   5.140  16.929  0.00  0.00    +0.000 A 
ATOM     10  C   UNL     1       7.440   5.343  15.773  0.00  0.00    +0.000 A 
ATOM     11  C   UNL     1       6.967   4.884  14.541  0.00  0.00    +0.000 A 
ATOM     12  H   UNL     1       7.978   4.601  11.373  0.00  0.00    +0.000 HD
ENDROOT
BRANCH   8  13
ATOM     13  C   UNL     1       4.583   4.352  18.104  0.00  0.00    +0.000 C 
BRANCH  13  14
ATOM     14  C   UNL     1       3.771   5.568  18.477  0.00  0.00    +0.000 A 
ATOM     15  C   UNL     1       3.709   6.676  17.616  0.00  0.00    +0.000 A 
ATOM     16  C   UNL     1       2.902   7.772  17.928  0.00  0.00    +0.000 A 
ATOM     17  C   UNL     1       2.158   7.779  19.105  0.00  0.00    +0.000 A 
ATOM     18  C   UNL     1       2.228   6.697  19.980  0.00  0.00    +0.000 A 
ATOM     19  C   UNL     1       3.034   5.598  19.670  0.00  0.00    +0.000 A 
ENDBRANCH  13  14
ENDBRANCH   8  13
TORSDOF 2
ENDMDL
MODEL 6
REMARK VINA RESULT:      -7.4      4.279      6.592
REMARK  Name = 
REMARK  2 active torsions:
REMARK  status: ('A' for Active; 'I' for Inactive)
REMARK    1  A    between atoms: C_8  and  C_9
REMARK    2  A    between atoms: C_9  and  C_10
REMARK                            x       y       z     vdW  Elec       q    Type
REMARK                         _______ _______ _______ _____ _____    ______ ____
ROOT
ATOM      1  O   UNL     1       8.645   5.876  13.244  0.00  0.00    +0.000 OA
ATOM      2  C   UNL     1       7.684   5.116  13.259  0.00  0.00    +0.000 C 
ATOM      3  N   UNL     1       7.263   4.478  12.114  0.00  0.00    +0.000 N 
ATOM      4  C   UNL     1       6.345   3.364  12.167  0.00  0.00    +0.000 C 
ATOM      5  C   UNL     1       5.178   3.657  13.105  0.00  0.00    +0.000 C 
ATOM      6  C   UNL     1       5.697   4.130  14.438  0.00  0.00    +0.000 A 
ATOM      7  C   UNL     1       4.955   3.930  15.611  0.00  0.00    +0.000 A 
ATOM      8  C   UNL     1       5.421   4.410  16.845  0.00  0.00    +0.000 A 
ATOM      9  C   UNL     1       6.653   5.081  16.895  0.00  0.00    +0.000 A 
ATOM     10  C   UNL     1       7.388   5.306  15.729  0.00  0.00    +0.000 A 
ATOM     11  C   UNL     1       6.908   4.842  14.502  0.00  0.00    +0.000 A 
ATOM     12  H   UNL     1       7.880   4.595  11.319  0.00  0.00    +0.000 HD
ENDROOT
BRANCH   8  13
ATOM     13  C   UNL     1       4.589   4.241  18.096  0.00  0.00    +0.000 C 
BRANCH  13  14
ATOM     14  C   UNL     1       3.717   5.419  18.459  0.00  0.00    +0.000 A 
ATOM     15  C   UNL     1       2.933   5.394  19.623  0.00  0.00    +0.000 A 
ATOM     16  C   UNL     1       2.181   6.510  19.996  0.00  0.00    +0.000 A 
ATOM     17  C   UNL     1       2.195   7.657  19.206  0.00  0.00    +0.000 A 
ATOM     18  C   UNL     1       2.949   7.687  18.035  0.00  0.00    +0.000 A 
ATOM     19  C   UNL     1       3.704   6.573  17.660  0.00  0.00    +0.000 A 
ENDBRANCH  13  14
ENDBRANCH   8  13
TORSDOF 2
ENDMDL
MODEL 7
REMARK VINA RESULT:      -7.3      4.721      6.624
REMARK  Name = 
REMARK  2 active torsions:
REMARK  status: ('A' for Active; 'I' for Inactive)
REMARK    1  A    between atoms: C_8  and  C_9
REMARK    2  A    between atoms: C_9  and  C_10
REMARK                            x       y       z     vdW  Elec       q    Type
REMARK                         _______ _______ _______ _____ _____    ______ ____
ROOT
ATOM      1  O   UNL     1       0.126  11.962  18.601  0.00  0.00    +0.000 OA
ATOM      2  C   UNL     1       0.183  11.170  19.533  0.00  0.00    +0.000 C 
ATOM      3  N   UNL     1      -0.407  11.453  20.745  0.00  0.00    +0.000 N 
ATOM      4  C   UNL     1      -0.615  10.426  21.739  0.00  0.00    +0.000 C 
ATOM      5  C   UNL     1       0.635   9.568  21.913  0.00  0.00    +0.000 C 
ATOM      6  C   UNL     1       1.113   9.079  20.571  0.00  0.00    +0.000 A 
ATOM      7  C   UNL     1       1.833   7.882  20.456  0.00  0.00    +0.000 A 
ATOM      8  C   UNL     1       2.315   7.451  19.210  0.00  0.00    +0.000 A 
ATOM      9  C   UNL     1       2.051   8.228  18.070  0.00  0.00    +0.000 A 
ATOM     10  C   UNL     1       1.355   9.434  18.177  0.00  0.00    +0.000 A 
ATOM     11  C   UNL     1       0.896   9.865  19.425  0.00  0.00    +0.000 A 
ATOM     12  H   UNL     1      -0.979  12.290  20.746  0.00  0.00    +0.000 HD
ENDROOT
BRANCH   8  13
ATOM     13  C   UNL     1       3.140   6.188  19.102  0.00  0.00    +0.000 C 
BRANCH  13  14
ATOM     14  C   UNL     1       2.352   4.903  19.041  0.00  0.00    +0.000 A 
ATOM     15  C   UNL     1       2.461   4.050  17.932  0.00  0.00    +0.000 A 
ATOM     16  C   UNL     1       1.787   2.828  17.906  0.00  0.00    +0.000 A 
ATOM     17  C   UNL     1       0.989   2.449  18.983  0.00  0.00    +0.000 A 
ATOM     18  C   UNL     1       0.852   3.295  20.080  0.00  0.00    +0.000 A 
ATOM     19  C   UNL     1       1.526   4.518  20.109  0.00  0.00    +0.000 A 
ENDBRANCH  13  14
ENDBRANCH   8  13
TORSDOF 2
ENDMDL
MODEL 8
REMARK VINA RESULT:      -7.3      4.226      5.516
REMARK  Name = 
REMARK  2 active torsions:
REMARK  status: ('A' for Active; 'I' for Inactive)
REMARK    1  A    between atoms: C_8  and  C_9
REMARK    2  A    between atoms: C_9  and  C_10
REMARK                            x       y       z     vdW  Elec       q    Type
REMARK                         _______ _______ _______ _____ _____    ______ ____
ROOT
ATOM      1  O   UNL     1       1.988   3.462  21.957  0.00  0.00    +0.000 OA
ATOM      2  C   UNL     1       1.877   3.501  20.738  0.00  0.00    +0.000 C 
ATOM      3  N   UNL     1       1.653   2.355  20.007  0.00  0.00    +0.000 N 
ATOM      4  C   UNL     1       1.221   2.413  18.630  0.00  0.00    +0.000 C 
ATOM      5  C   UNL     1       2.039   3.431  17.839  0.00  0.00    +0.000 C 
ATOM      6  C   UNL     1       2.058   4.750  18.566  0.00  0.00    +0.000 A 
ATOM      7  C   UNL     1       2.215   5.954  17.866  0.00  0.00    +0.000 A 
ATOM      8  C   UNL     1       2.276   7.179  18.549  0.00  0.00    +0.000 A 
ATOM      9  C   UNL     1       2.159   7.186  19.948  0.00  0.00    +0.000 A 
ATOM     10  C   UNL     1       2.026   5.990  20.657  0.00  0.00    +0.000 A 
ATOM     11  C   UNL     1       1.986   4.774  19.970  0.00  0.00    +0.000 A 
ATOM     12  H   UNL     1       1.469   1.531  20.567  0.00  0.00    +0.000 HD
ENDROOT
BRANCH   8  13
ATOM     13  C   UNL     1       2.503   8.468  17.792  0.00  0.00    +0.000 C 
BRANCH  13  14
ATOM     14  C   UNL     1       1.494   9.560  18.056  0.00  0.00    +0.000 A 
ATOM     15  C   UNL     1       0.124   9.328  17.857  0.00  0.00    +0.000 A 
ATOM     16  C   UNL     1      -0.815  10.314  18.168  0.00  0.00    +0.000 A 
ATOM     17  C   UNL     1      -0.396  11.544  18.670  0.00  0.00    +0.000 A 
ATOM     18  C   UNL     1       0.962  11.796  18.850  0.00  0.00    +0.000 A 
ATOM     19  C   UNL     1       1.904  10.811  18.542  0.00  0.00    +0.000 A 
ENDBRANCH  13  14
ENDBRANCH   8  13
TORSDOF 2
ENDMDL
MODEL 9
REMARK VINA RESULT:      -7.3      4.989      6.874
REMARK  Name = 
REMARK  2 active torsions:
REMARK  status: ('A' for Active; 'I' for Inactive)
REMARK    1  A    between atoms: C_8  and  C_9
REMARK    2  A    between atoms: C_9  and  C_10
REMARK                            x       y       z     vdW  Elec       q    Type
REMARK                         _______ _______ _______ _____ _____    ______ ____
ROOT
ATOM      1  O   UNL     1      -0.319  12.140  18.447  0.00  0.00    +0.000 OA
ATOM      2  C   UNL     1      -0.180  11.415  19.425  0.00  0.00    +0.000 C 
ATOM      3  N   UNL     1      -0.728  11.750  20.643  0.00  0.00    +0.000 N 
ATOM      4  C   UNL     1      -0.839  10.784  21.711  0.00  0.00    +0.000 C 
ATOM      5  C   UNL     1       0.459   9.998  21.878  0.00  0.00    +0.000 C 
ATOM      6  C   UNL     1       0.898   9.444  20.548  0.00  0.00    +0.000 A 
ATOM      7  C   UNL     1       1.670   8.276  20.475  0.00  0.00    +0.000 A 
ATOM      8  C   UNL     1       2.115   7.785  19.238  0.00  0.00    +0.000 A 
ATOM      9  C   UNL     1       1.761   8.471  18.065  0.00  0.00    +0.000 A 
ATOM     10  C   UNL     1       1.012   9.649  18.128  0.00  0.00    +0.000 A 
ATOM     11  C   UNL     1       0.590  10.140  19.366  0.00  0.00    +0.000 A 
ATOM     12  H   UNL     1      -1.339  12.558  20.618  0.00  0.00    +0.000 HD
ENDROOT
BRANCH   8  13
ATOM     13  C   UNL     1       2.995   6.557  19.171  0.00  0.00    +0.000 C 
BRANCH  13  14
ATOM     14  C   UNL     1       2.273   5.236  19.275  0.00  0.00    +0.000 A 
ATOM     15  C   UNL     1       1.929   4.708  20.529  0.00  0.00    +0.000 A 
ATOM     16  C   UNL     1       1.199   3.522  20.623  0.00  0.00    +0.000 A 
ATOM     17  C   UNL     1       0.814   2.845  19.468  0.00  0.00    +0.000 A 
ATOM     18  C   UNL     1       1.169   3.345  18.218  0.00  0.00    +0.000 A 
ATOM     19  C   UNL     1       1.898   4.532  18.120  0.00  0.00    +0.000 A 
ENDBRANCH  13  14
ENDBRANCH   8  13
TORSDOF 2
ENDMDL
