MODEL 1
REMARK VINA RESULT:      -7.5      0.000      0.000
REMARK  Name = 
REMARK  3 active torsions:
REMARK  status: ('A' for Active; 'I' for Inactive)
REMARK    1  A    between atoms: C_7  and  C_8
REMARK    2  A    between atoms: N_13  and  C_14
REMARK    3  A    between atoms: C_14  and  C_15
REMARK                            x       y       z     vdW  Elec       q    Type
REMARK                         _______ _______ _______ _____ _____    ______ ____
ROOT
ATOM      1  C   UNL     1       1.287   9.623  18.882  0.00  0.00    +0.000 A 
ATOM      2  C   UNL     1       2.036   8.869  17.946  0.00  0.00    +0.000 A 
ATOM      3  C   UNL     1       2.264   7.647  18.525  0.00  0.00    +0.000 A 
ATOM      4  N   UNL     1       2.887   6.528  18.058  0.00  0.00    +0.000 NA
ATOM      5  C   UNL     1       2.976   5.499  18.866  0.00  0.00    +0.000 A 
ATOM      6  N   UNL     1       3.611   4.359  18.437  0.00  0.00    +0.000 N 
ATOM      7  C   UNL     1       2.408   5.515  20.263  0.00  0.00    +0.000 A 
ATOM      8  C   UNL     1       1.797   6.640  20.658  0.00  0.00    +0.000 A 
ATOM      9  N   UNL     1       1.713   7.725  19.797  0.00  0.00    +0.000 N 
ATOM     10  N   UNL     1       1.134   8.930  20.026  0.00  0.00    +0.000 NA
ATOM     11  H   UNL     1       3.571   3.539  19.031  0.00  0.00    +0.000 HD
ENDROOT
BRANCH   1  18
ATOM     12 CL   UNL     1      -1.848  10.072  18.393  0.00  0.00    +0.000 Cl
ATOM     13  C   UNL     1      -0.602  11.272  18.480  0.00  0.00    +0.000 A 
ATOM     14  C   UNL     1      -1.033  12.599  18.324  0.00  0.00    +0.000 A 
ATOM     15  C   UNL     1      -0.131  13.652  18.445  0.00  0.00    +0.000 A 
ATOM     16  C   UNL     1       1.201  13.392  18.723  0.00  0.00    +0.000 A 
ATOM     17  C   UNL     1       1.641  12.071  18.868  0.00  0.00    +0.000 A 
ATOM     18  C   UNL     1       0.752  10.986  18.739  0.00  0.00    +0.000 A 
ENDBRANCH   1  18
BRANCH   6  19
ATOM     19  C   UNL     1       3.682   4.013  17.025  0.00  0.00    +0.000 C 
BRANCH  19  20
ATOM     20  C   UNL     1       5.041   4.208  16.442  0.00  0.00    +0.000 A 
ATOM     21  C   UNL     1       5.507   4.360  15.153  0.00  0.00    +0.000 A 
ATOM     22  C   UNL     1       6.911   4.522  15.253  0.00  0.00    +0.000 A 
ATOM     23  C   UNL     1       7.210   4.454  16.593  0.00  0.00    +0.000 A 
ATOM     24  O   UNL     1       6.082   4.266  17.324  0.00  0.00    +0.000 OA
ENDBRANCH  19  20
ENDBRANCH   6  19
TORSDOF 3
ENDMDL
MODEL 2
REMARK VINA RESULT:      -7.5      2.271      3.625
REMARK  Name = 
REMARK  3 active torsions:
REMARK  status: ('A' for Active; 'I' for Inactive)
REMARK    1  A    between atoms: C_7  and  C_8
REMARK    2  A    between atoms: N_13  and  C_14
REMARK    3  A    between atoms: C_14  and  C_15
REMARK                            x       y       z     vdW  Elec       q    Type
REMARK                         _______ _______ _______ _____ _____    ______ ____
ROOT
ATOM      1  C   UNL     1       2.423   7.016  19.259  0.00  0.00    +0.000 A 
ATOM      2  C   UNL     1       3.602   7.147  18.483  0.00  0.00    +0.000 A 
ATOM      3  C   UNL     1       3.933   5.883  18.067  0.00  0.00    +0.000 A 
ATOM      4  N   UNL     1       4.937   5.430  17.263  0.00  0.00    +0.000 NA
ATOM      5  C   UNL     1       5.019   4.137  17.063  0.00  0.00    +0.000 A 
ATOM      6  N   UNL     1       6.028   3.642  16.272  0.00  0.00    +0.000 N 
ATOM      7  C   UNL     1       4.046   3.159  17.670  0.00  0.00    +0.000 A 
ATOM      8  C   UNL     1       3.074   3.668  18.440  0.00  0.00    +0.000 A 
ATOM      9  N   UNL     1       3.000   5.037  18.652  0.00  0.00    +0.000 N 
ATOM     10  N   UNL     1       2.090   5.719  19.392  0.00  0.00    +0.000 NA
ATOM     11  H   UNL     1       6.008   2.656  16.036  0.00  0.00    +0.000 HD
ENDROOT
BRANCH   1  18
ATOM     12 CL   UNL     1       1.659   9.669  17.631  0.00  0.00    +0.000 Cl
ATOM     13  C   UNL     1       1.291   9.290  19.281  0.00  0.00    +0.000 A 
ATOM     14  C   UNL     1       0.562  10.269  19.974  0.00  0.00    +0.000 A 
ATOM     15  C   UNL     1       0.150  10.044  21.284  0.00  0.00    +0.000 A 
ATOM     16  C   UNL     1       0.457   8.846  21.910  0.00  0.00    +0.000 A 
ATOM     17  C   UNL     1       1.194   7.870  21.229  0.00  0.00    +0.000 A 
ATOM     18  C   UNL     1       1.634   8.077  19.907  0.00  0.00    +0.000 A 
ENDBRANCH   1  18
BRANCH   6  19
ATOM     19  C   UNL     1       6.637   4.446  15.223  0.00  0.00    +0.000 C 
BRANCH  19  20
ATOM     20  C   UNL     1       6.263   4.000  13.851  0.00  0.00    +0.000 A 
ATOM     21  C   UNL     1       5.090   3.540  13.289  0.00  0.00    +0.000 A 
ATOM     22  C   UNL     1       5.371   3.292  11.924  0.00  0.00    +0.000 A 
ATOM     23  C   UNL     1       6.696   3.612  11.741  0.00  0.00    +0.000 A 
ATOM     24  O   UNL     1       7.246   4.046  12.903  0.00  0.00    +0.000 OA
ENDBRANCH  19  20
ENDBRANCH   6  19
TORSDOF 3
ENDMDL
MODEL 3
REMARK VINA RESULT:      -7.5      3.738      8.300
REMARK  Name = 
REMARK  3 active torsions:
REMARK  status: ('A' for Active; 'I' for Inactive)
REMARK    1  A    between atoms: C_7  and  C_8
REMARK    2  A    between atoms: N_13  and  C_14
REMARK    3  A    between atoms: C_14  and  C_15
REMARK                            x       y       z     vdW  Elec       q    Type
REMARK                         _______ _______ _______ _____ _____    ______ ____
ROOT
ATOM      1  C   UNL     1       4.346   5.528  17.336  0.00  0.00    +0.000 A 
ATOM      2  C   UNL     1       3.805   6.800  17.648  0.00  0.00    +0.000 A 
ATOM      3  C   UNL     1       3.023   6.626  18.760  0.00  0.00    +0.000 A 
ATOM      4  N   UNL     1       2.310   7.513  19.512  0.00  0.00    +0.000 NA
ATOM      5  C   UNL     1       1.622   7.039  20.522  0.00  0.00    +0.000 A 
ATOM      6  N   UNL     1       0.878   7.900  21.292  0.00  0.00    +0.000 N 
ATOM      7  C   UNL     1       1.610   5.574  20.879  0.00  0.00    +0.000 A 
ATOM      8  C   UNL     1       2.341   4.755  20.109  0.00  0.00    +0.000 A 
ATOM      9  N   UNL     1       3.061   5.266  19.038  0.00  0.00    +0.000 N 
ATOM     10  N   UNL     1       3.849   4.591  18.164  0.00  0.00    +0.000 NA
ATOM     11  H   UNL     1       0.447   7.534  22.134  0.00  0.00    +0.000 HD
ENDROOT
BRANCH   1  18
ATOM     12 CL   UNL     1       7.431   6.369  17.545  0.00  0.00    +0.000 Cl
ATOM     13  C   UNL     1       6.641   5.538  16.246  0.00  0.00    +0.000 A 
ATOM     14  C   UNL     1       7.464   5.190  15.165  0.00  0.00    +0.000 A 
ATOM     15  C   UNL     1       6.954   4.460  14.096  0.00  0.00    +0.000 A 
ATOM     16  C   UNL     1       5.624   4.070  14.098  0.00  0.00    +0.000 A 
ATOM     17  C   UNL     1       4.793   4.423  15.168  0.00  0.00    +0.000 A 
ATOM     18  C   UNL     1       5.281   5.173  16.256  0.00  0.00    +0.000 A 
ENDBRANCH   1  18
BRANCH   6  19
ATOM     19  C   UNL     1       1.233   9.306  21.421  0.00  0.00    +0.000 C 
BRANCH  19  20
ATOM     20  C   UNL     1       0.135  10.136  21.993  0.00  0.00    +0.000 A 
ATOM     21  C   UNL     1      -0.615  10.054  23.148  0.00  0.00    +0.000 A 
ATOM     22  C   UNL     1      -1.500  11.160  23.129  0.00  0.00    +0.000 A 
ATOM     23  C   UNL     1      -1.237  11.841  21.964  0.00  0.00    +0.000 A 
ATOM     24  O   UNL     1      -0.245  11.230  21.268  0.00  0.00    +0.000 OA
ENDBRANCH  19  20
ENDBRANCH   6  19
TORSDOF 3
ENDMDL
MODEL 4
REMARK VINA RESULT:      -7.3      7.933      8.736
REMARK  Name = 
REMARK  3 active torsions:
REMARK  status: ('A' for Active; 'I' for Inactive)
REMARK    1  A    between atoms: C_7  and  C_8
REMARK    2  A    between atoms: N_13  and  C_14
REMARK    3  A    between atoms: C_14  and  C_15
REMARK                            x       y       z     vdW  Elec       q    Type
REMARK                         _______ _______ _______ _____ _____    ______ ____
ROOT
ATOM      1  C   UNL     1       9.885  14.521  18.472  0.00  0.00    +0.000 A 
ATOM      2  C   UNL     1       9.511  13.452  17.620  0.00  0.00    +0.000 A 
ATOM      3  C   UNL     1       9.433  12.335  18.411  0.00  0.00    +0.000 A 
ATOM      4  N   UNL     1       9.073  11.051  18.128  0.00  0.00    +0.000 NA
ATOM      5  C   UNL     1       9.122  10.176  19.103  0.00  0.00    +0.000 A 
ATOM      6  N   UNL     1       8.782   8.869  18.852  0.00  0.00    +0.000 N 
ATOM      7  C   UNL     1       9.541  10.547  20.504  0.00  0.00    +0.000 A 
ATOM      8  C   UNL     1       9.870  11.828  20.721  0.00  0.00    +0.000 A 
ATOM      9  N   UNL     1       9.822  12.744  19.680  0.00  0.00    +0.000 N 
ATOM     10  N   UNL     1      10.115  14.068  19.718  0.00  0.00    +0.000 NA
ATOM     11  H   UNL     1       8.715   8.234  19.640  0.00  0.00    +0.000 HD
ENDROOT
BRANCH   1  18
ATOM     12 CL   UNL     1       7.453  16.580  18.813  0.00  0.00    +0.000 Cl
ATOM     13  C   UNL     1       9.044  16.903  18.209  0.00  0.00    +0.000 A 
ATOM     14  C   UNL     1       9.287  18.234  17.836  0.00  0.00    +0.000 A 
ATOM     15  C   UNL     1      10.550  18.626  17.403  0.00  0.00    +0.000 A 
ATOM     16  C   UNL     1      11.578  17.698  17.341  0.00  0.00    +0.000 A 
ATOM     17  C   UNL     1      11.341  16.366  17.700  0.00  0.00    +0.000 A 
ATOM     18  C   UNL     1      10.069  15.940  18.130  0.00  0.00    +0.000 A 
ENDBRANCH   1  18
BRANCH   6  19
ATOM     19  C   UNL     1       7.864   8.513  17.780  0.00  0.00    +0.000 C 
BRANCH  19  20
ATOM     20  C   UNL     1       7.628   7.045  17.675  0.00  0.00    +0.000 A 
ATOM     21  C   UNL     1       7.474   6.039  18.606  0.00  0.00    +0.000 A 
ATOM     22  C   UNL     1       7.260   4.846  17.874  0.00  0.00    +0.000 A 
ATOM     23  C   UNL     1       7.300   5.199  16.546  0.00  0.00    +0.000 A 
ATOM     24  O   UNL     1       7.521   6.532  16.413  0.00  0.00    +0.000 OA
ENDBRANCH  19  20
ENDBRANCH   6  19
TORSDOF 3
ENDMDL
MODEL 5
REMARK VINA RESULT:      -7.3      2.435      3.625
REMARK  Name = 
REMARK  3 active torsions:
REMARK  status: ('A' for Active; 'I' for Inactive)
REMARK    1  A    between atoms: C_7  and  C_8
REMARK    2  A    between atoms: N_13  and  C_14
REMARK    3  A    between atoms: C_14  and  C_15
REMARK                            x       y       z     vdW  Elec       q    Type
REMARK                         _______ _______ _______ _____ _____    ______ ____
ROOT
ATOM      1  C   UNL     1       2.641   7.466  18.292  0.00  0.00    +0.000 A 
ATOM      2  C   UNL     1       3.783   7.459  17.453  0.00  0.00    +0.000 A 
ATOM      3  C   UNL     1       4.083   6.142  17.219  0.00  0.00    +0.000 A 
ATOM      4  N   UNL     1       5.045   5.557  16.448  0.00  0.00    +0.000 NA
ATOM      5  C   UNL     1       5.106   4.248  16.441  0.00  0.00    +0.000 A 
ATOM      6  N   UNL     1       6.072   3.624  15.690  0.00  0.00    +0.000 N 
ATOM      7  C   UNL     1       4.152   3.388  17.232  0.00  0.00    +0.000 A 
ATOM      8  C   UNL     1       3.222   4.022  17.959  0.00  0.00    +0.000 A 
ATOM      9  N   UNL     1       3.170   5.408  17.965  0.00  0.00    +0.000 N 
ATOM     10  N   UNL     1       2.302   6.209  18.633  0.00  0.00    +0.000 NA
ATOM     11  H   UNL     1       6.032   2.614  15.607  0.00  0.00    +0.000 HD
ENDROOT
BRANCH   1  18
ATOM     12 CL   UNL     1       1.352   7.368  21.225  0.00  0.00    +0.000 Cl
ATOM     13  C   UNL     1       1.259   8.650  20.064  0.00  0.00    +0.000 A 
ATOM     14  C   UNL     1       0.535   9.781  20.473  0.00  0.00    +0.000 A 
ATOM     15  C   UNL     1       0.451  10.900  19.651  0.00  0.00    +0.000 A 
ATOM     16  C   UNL     1       1.088  10.903  18.420  0.00  0.00    +0.000 A 
ATOM     17  C   UNL     1       1.802   9.775  17.999  0.00  0.00    +0.000 A 
ATOM     18  C   UNL     1       1.892   8.624  18.806  0.00  0.00    +0.000 A 
ENDBRANCH   1  18
BRANCH   6  19
ATOM     19  C   UNL     1       6.640   4.252  14.506  0.00  0.00    +0.000 C 
BRANCH  19  20
ATOM     20  C   UNL     1       6.117   3.679  13.233  0.00  0.00    +0.000 A 
ATOM     21  C   UNL     1       6.701   2.983  12.195  0.00  0.00    +0.000 A 
ATOM     22  C   UNL     1       5.665   2.699  11.272  0.00  0.00    +0.000 A 
ATOM     23  C   UNL     1       4.519   3.243  11.802  0.00  0.00    +0.000 A 
ATOM     24  O   UNL     1       4.781   3.839  12.993  0.00  0.00    +0.000 OA
ENDBRANCH  19  20
ENDBRANCH   6  19
TORSDOF 3
ENDMDL
MODEL 6
REMARK VINA RESULT:      -7.3      4.194      9.039
REMARK  Name = 
REMARK  3 active torsions:
REMARK  status: ('A' for Active; 'I' for Inactive)
REMARK    1  A    between atoms: C_7  and  C_8
REMARK    2  A    between atoms: N_13  and  C_14
REMARK    3  A    between atoms: C_14  and  C_15
REMARK                            x       y       z     vdW  Elec       q    Type
REMARK                         _______ _______ _______ _____ _____    ______ ____
ROOT
ATOM      1  C   UNL     1       2.359   6.306  19.006  0.00  0.00    +0.000 A 
ATOM      2  C   UNL     1       1.896   6.746  20.270  0.00  0.00    +0.000 A 
ATOM      3  C   UNL     1       1.551   8.064  20.119  0.00  0.00    +0.000 A 
ATOM      4  N   UNL     1       1.008   8.962  20.991  0.00  0.00    +0.000 NA
ATOM      5  C   UNL     1       0.810  10.184  20.560  0.00  0.00    +0.000 A 
ATOM      6  N   UNL     1       0.280  11.120  21.414  0.00  0.00    +0.000 N 
ATOM      7  C   UNL     1       1.144  10.612  19.153  0.00  0.00    +0.000 A 
ATOM      8  C   UNL     1       1.663   9.680  18.342  0.00  0.00    +0.000 A 
ATOM      9  N   UNL     1       1.875   8.391  18.809  0.00  0.00    +0.000 N 
ATOM     10  N   UNL     1       2.384   7.330  18.133  0.00  0.00    +0.000 NA
ATOM     11  H   UNL     1       0.028  12.025  21.032  0.00  0.00    +0.000 HD
ENDROOT
BRANCH   1  18
ATOM     12 CL   UNL     1       5.438   5.489  19.362  0.00  0.00    +0.000 Cl
ATOM     13  C   UNL     1       4.154   4.534  18.699  0.00  0.00    +0.000 A 
ATOM     14  C   UNL     1       4.517   3.245  18.278  0.00  0.00    +0.000 A 
ATOM     15  C   UNL     1       3.556   2.364  17.794  0.00  0.00    +0.000 A 
ATOM     16  C   UNL     1       2.228   2.758  17.726  0.00  0.00    +0.000 A 
ATOM     17  C   UNL     1       1.859   4.046  18.133  0.00  0.00    +0.000 A 
ATOM     18  C   UNL     1       2.814   4.962  18.616  0.00  0.00    +0.000 A 
ENDBRANCH   1  18
BRANCH   6  19
ATOM     19  C   UNL     1      -0.574  10.737  22.529  0.00  0.00    +0.000 C 
BRANCH  19  20
ATOM     20  C   UNL     1      -1.458  11.843  22.997  0.00  0.00    +0.000 A 
ATOM     21  C   UNL     1      -1.302  13.211  23.082  0.00  0.00    +0.000 A 
ATOM     22  C   UNL     1      -2.518  13.720  23.600  0.00  0.00    +0.000 A 
ATOM     23  C   UNL     1      -3.334  12.632  23.801  0.00  0.00    +0.000 A 
ATOM     24  O   UNL     1      -2.702  11.487  23.436  0.00  0.00    +0.000 OA
ENDBRANCH  19  20
ENDBRANCH   6  19
TORSDOF 3
ENDMDL
MODEL 7
REMARK VINA RESULT:      -7.3      2.233      3.263
REMARK  Name = 
REMARK  3 active torsions:
REMARK  status: ('A' for Active; 'I' for Inactive)
REMARK    1  A    between atoms: C_7  and  C_8
REMARK    2  A    between atoms: N_13  and  C_14
REMARK    3  A    between atoms: C_14  and  C_15
REMARK                            x       y       z     vdW  Elec       q    Type
REMARK                         _______ _______ _______ _____ _____    ______ ____
ROOT
ATOM      1  C   UNL     1       2.205   7.646  18.473  0.00  0.00    +0.000 A 
ATOM      2  C   UNL     1       3.543   7.705  18.010  0.00  0.00    +0.000 A 
ATOM      3  C   UNL     1       3.902   6.420  17.698  0.00  0.00    +0.000 A 
ATOM      4  N   UNL     1       5.049   5.905  17.169  0.00  0.00    +0.000 NA
ATOM      5  C   UNL     1       5.113   4.606  17.003  0.00  0.00    +0.000 A 
ATOM      6  N   UNL     1       6.258   4.049  16.489  0.00  0.00    +0.000 N 
ATOM      7  C   UNL     1       3.972   3.686  17.360  0.00  0.00    +0.000 A 
ATOM      8  C   UNL     1       2.868   4.255  17.863  0.00  0.00    +0.000 A 
ATOM      9  N   UNL     1       2.813   5.630  18.040  0.00  0.00    +0.000 N 
ATOM     10  N   UNL     1       1.785   6.368  18.529  0.00  0.00    +0.000 NA
ATOM     11  H   UNL     1       6.248   3.061  16.262  0.00  0.00    +0.000 HD
ENDROOT
BRANCH   1  18
ATOM     12 CL   UNL     1       1.608   8.110  21.588  0.00  0.00    +0.000 Cl
ATOM     13  C   UNL     1       0.987   9.004  20.240  0.00  0.00    +0.000 A 
ATOM     14  C   UNL     1       0.125  10.063  20.567  0.00  0.00    +0.000 A 
ATOM     15  C   UNL     1      -0.380  10.894  19.572  0.00  0.00    +0.000 A 
ATOM     16  C   UNL     1      -0.030  10.679  18.248  0.00  0.00    +0.000 A 
ATOM     17  C   UNL     1       0.820   9.618  17.913  0.00  0.00    +0.000 A 
ATOM     18  C   UNL     1       1.335   8.754  18.899  0.00  0.00    +0.000 A 
ENDBRANCH   1  18
BRANCH   6  19
ATOM     19  C   UNL     1       7.146   4.804  15.617  0.00  0.00    +0.000 C 
BRANCH  19  20
ATOM     20  C   UNL     1       6.952   4.492  14.172  0.00  0.00    +0.000 A 
ATOM     21  C   UNL     1       6.146   3.602  13.493  0.00  0.00    +0.000 A 
ATOM     22  C   UNL     1       6.410   3.795  12.115  0.00  0.00    +0.000 A 
ATOM     23  C   UNL     1       7.361   4.785  12.042  0.00  0.00    +0.000 A 
ATOM     24  O   UNL     1       7.696   5.217  13.284  0.00  0.00    +0.000 OA
ENDBRANCH  19  20
ENDBRANCH   6  19
TORSDOF 3
ENDMDL
MODEL 8
REMARK VINA RESULT:      -7.2      2.954      7.635
REMARK  Name = 
REMARK  3 active torsions:
REMARK  status: ('A' for Active; 'I' for Inactive)
REMARK    1  A    between atoms: C_7  and  C_8
REMARK    2  A    between atoms: N_13  and  C_14
REMARK    3  A    between atoms: C_14  and  C_15
REMARK                            x       y       z     vdW  Elec       q    Type
REMARK                         _______ _______ _______ _____ _____    ______ ____
ROOT
ATOM      1  C   UNL     1       2.720   7.081  18.410  0.00  0.00    +0.000 A 
ATOM      2  C   UNL     1       2.134   8.224  17.812  0.00  0.00    +0.000 A 
ATOM      3  C   UNL     1       1.544   8.932  18.827  0.00  0.00    +0.000 A 
ATOM      4  N   UNL     1       0.884  10.126  18.831  0.00  0.00    +0.000 NA
ATOM      5  C   UNL     1       0.397  10.547  19.973  0.00  0.00    +0.000 A 
ATOM      6  N   UNL     1      -0.289  11.737  20.013  0.00  0.00    +0.000 N 
ATOM      7  C   UNL     1       0.557   9.773  21.257  0.00  0.00    +0.000 A 
ATOM      8  C   UNL     1       1.226   8.615  21.189  0.00  0.00    +0.000 A 
ATOM      9  N   UNL     1       1.732   8.174  19.975  0.00  0.00    +0.000 N 
ATOM     10  N   UNL     1       2.431   7.039  19.724  0.00  0.00    +0.000 NA
ATOM     11  H   UNL     1      -0.557  12.102  20.921  0.00  0.00    +0.000 HD
ENDROOT
BRANCH   1  18
ATOM     12 CL   UNL     1       1.454   4.163  18.022  0.00  0.00    +0.000 Cl
ATOM     13  C   UNL     1       3.045   4.697  17.596  0.00  0.00    +0.000 A 
ATOM     14  C   UNL     1       3.867   3.726  17.002  0.00  0.00    +0.000 A 
ATOM     15  C   UNL     1       5.141   4.059  16.554  0.00  0.00    +0.000 A 
ATOM     16  C   UNL     1       5.606   5.358  16.693  0.00  0.00    +0.000 A 
ATOM     17  C   UNL     1       4.797   6.329  17.295  0.00  0.00    +0.000 A 
ATOM     18  C   UNL     1       3.507   6.016  17.768  0.00  0.00    +0.000 A 
ENDBRANCH   1  18
BRANCH   6  19
ATOM     19  C   UNL     1      -0.032  12.797  19.049  0.00  0.00    +0.000 C 
BRANCH  19  20
ATOM     20  C   UNL     1       1.313  13.419  19.207  0.00  0.00    +0.000 A 
ATOM     21  C   UNL     1       1.974  13.992  20.274  0.00  0.00    +0.000 A 
ATOM     22  C   UNL     1       3.244  14.390  19.789  0.00  0.00    +0.000 A 
ATOM     23  C   UNL     1       3.275  14.040  18.460  0.00  0.00    +0.000 A 
ATOM     24  O   UNL     1       2.108  13.448  18.096  0.00  0.00    +0.000 OA
ENDBRANCH  19  20
ENDBRANCH   6  19
TORSDOF 3
ENDMDL
MODEL 9
REMARK VINA RESULT:      -7.2      3.509      8.001
REMARK  Name = 
REMARK  3 active torsions:
REMARK  status: ('A' for Active; 'I' for Inactive)
REMARK    1  A    between atoms: C_7  and  C_8
REMARK    2  A    between atoms: N_13  and  C_14
REMARK    3  A    between atoms: C_14  and  C_15
REMARK                            x       y       z     vdW  Elec       q    Type
REMARK                         _______ _______ _______ _____ _____    ______ ____
ROOT
ATOM      1  C   UNL     1       2.840   7.093  18.360  0.00  0.00    +0.000 A 
ATOM      2  C   UNL     1       1.910   8.018  17.824  0.00  0.00    +0.000 A 
ATOM      3  C   UNL     1       1.303   8.621  18.896  0.00  0.00    +0.000 A 
ATOM      4  N   UNL     1       0.371   9.615  18.965  0.00  0.00    +0.000 NA
ATOM      5  C   UNL     1      -0.049   9.973  20.154  0.00  0.00    +0.000 A 
ATOM      6  N   UNL     1      -0.999  10.958  20.263  0.00  0.00    +0.000 N 
ATOM      7  C   UNL     1       0.471   9.341  21.421  0.00  0.00    +0.000 A 
ATOM      8  C   UNL     1       1.395   8.380  21.287  0.00  0.00    +0.000 A 
ATOM      9  N   UNL     1       1.828   8.003  20.023  0.00  0.00    +0.000 N 
ATOM     10  N   UNL     1       2.749   7.061  19.703  0.00  0.00    +0.000 NA
ATOM     11  H   UNL     1      -1.227  11.301  21.190  0.00  0.00    +0.000 HD
ENDROOT
BRANCH   1  18
ATOM     12 CL   UNL     1       2.042   4.048  17.755  0.00  0.00    +0.000 Cl
ATOM     13  C   UNL     1       3.524   4.857  17.368  0.00  0.00    +0.000 A 
ATOM     14  C   UNL     1       4.480   4.075  16.701  0.00  0.00    +0.000 A 
ATOM     15  C   UNL     1       5.680   4.637  16.278  0.00  0.00    +0.000 A 
ATOM     16  C   UNL     1       5.936   5.979  16.513  0.00  0.00    +0.000 A 
ATOM     17  C   UNL     1       4.993   6.763  17.188  0.00  0.00    +0.000 A 
ATOM     18  C   UNL     1       3.775   6.216  17.638  0.00  0.00    +0.000 A 
ENDBRANCH   1  18
BRANCH   6  19
ATOM     19  C   UNL     1      -1.149  11.988  19.245  0.00  0.00    +0.000 C 
BRANCH  19  20
ATOM     20  C   UNL     1      -2.283  11.729  18.312  0.00  0.00    +0.000 A 
ATOM     21  C   UNL     1      -2.355  11.312  16.999  0.00  0.00    +0.000 A 
ATOM     22  C   UNL     1      -3.733  11.240  16.679  0.00  0.00    +0.000 A 
ATOM     23  C   UNL     1      -4.411  11.620  17.813  0.00  0.00    +0.000 A 
ATOM     24  O   UNL     1      -3.540  11.917  18.812  0.00  0.00    +0.000 OA
ENDBRANCH  19  20
ENDBRANCH   6  19
TORSDOF 3
ENDMDL
