MODEL 1
REMARK VINA RESULT:      -8.5      0.000      0.000
REMARK  Name = 
REMARK  6 active torsions:
REMARK  status: ('A' for Active; 'I' for Inactive)
REMARK    1  A    between atoms: C_2  and  C_3
REMARK    2  A    between atoms: C_3  and  O_4
REMARK    3  A    between atoms: O_4  and  C_5
REMARK    4  A    between atoms: N_7  and  C_8
REMARK    5  A    between atoms: C_13  and  C_14
REMARK    6  A    between atoms: C_18  and  O_19
REMARK                            x       y       z     vdW  Elec       q    Type
REMARK                         _______ _______ _______ _____ _____    ______ ____
ROOT
ATOM      1  C   UNL     1       6.297   4.081  14.986  0.00  0.00    +0.000 A 
ATOM      2  C   UNL     1       7.369   4.916  15.304  0.00  0.00    +0.000 A 
ATOM      3  C   UNL     1       7.531   5.414  16.592  0.00  0.00    +0.000 A 
ATOM      4  C   UNL     1       6.613   5.095  17.592  0.00  0.00    +0.000 A 
ATOM      5 CL   UNL     1       6.989   5.707  19.170  0.00  0.00    +0.000 Cl
ATOM      6  C   UNL     1       5.492   4.294  17.304  0.00  0.00    +0.000 A 
ATOM      7  C   UNL     1       5.342   3.804  15.981  0.00  0.00    +0.000 A 
ENDROOT
BRANCH   6   8
ATOM      8  C   UNL     1       4.512   3.962  18.347  0.00  0.00    +0.000 A 
ATOM      9  N   UNL     1       4.692   3.326  19.491  0.00  0.00    +0.000 NA
ATOM     10  C   UNL     1       3.436   3.210  20.021  0.00  0.00    +0.000 A 
ATOM     11  C   UNL     1       2.993   2.604  21.205  0.00  0.00    +0.000 A 
ATOM     12  C   UNL     1       1.623   2.660  21.480  0.00  0.00    +0.000 A 
ATOM     13  C   UNL     1       0.721   3.286  20.616  0.00  0.00    +0.000 A 
ATOM     14  C   UNL     1       1.154   3.889  19.427  0.00  0.00    +0.000 A 
ATOM     15  C   UNL     1       2.520   3.822  19.181  0.00  0.00    +0.000 A 
ATOM     16  O   UNL     1       3.204   4.319  18.105  0.00  0.00    +0.000 OA
BRANCH  12  17
ATOM     17  O   UNL     1       1.113   2.102  22.619  0.00  0.00    +0.000 OA
ATOM     18  H   UNL     1       1.543   2.508  23.391  0.00  0.00    +0.000 HD
ENDBRANCH  12  17
ENDBRANCH   6   8
BRANCH   1  21
ATOM     19  C   UNL     1       6.777   3.999  12.557  0.00  0.00    +0.000 C 
ATOM     20  O   UNL     1       7.599   4.905  12.501  0.00  0.00    +0.000 OA
ATOM     21  N   UNL     1       6.163   3.519  13.695  0.00  0.00    +0.000 N 
ATOM     22  H   UNL     1       5.677   2.641  13.584  0.00  0.00    +0.000 HD
BRANCH  19  23
ATOM     23  O   UNL     1       6.385   3.283  11.469  0.00  0.00    +0.000 OA
BRANCH  23  24
ATOM     24  C   UNL     1       5.106   2.639  11.632  0.00  0.00    +0.000 C 
BRANCH  24  26
ATOM     25  C   UNL     1       3.188   3.818  10.190  0.00  0.00    +0.000 C 
ATOM     26  C   UNL     1       4.064   3.288  10.817  0.00  0.00    +0.000 C 
ENDBRANCH  24  26
ENDBRANCH  23  24
ENDBRANCH  19  23
ENDBRANCH   1  21
TORSDOF 6
ENDMDL
MODEL 2
REMARK VINA RESULT:      -8.4      1.096      1.281
REMARK  Name = 
REMARK  6 active torsions:
REMARK  status: ('A' for Active; 'I' for Inactive)
REMARK    1  A    between atoms: C_2  and  C_3
REMARK    2  A    between atoms: C_3  and  O_4
REMARK    3  A    between atoms: O_4  and  C_5
REMARK    4  A    between atoms: N_7  and  C_8
REMARK    5  A    between atoms: C_13  and  C_14
REMARK    6  A    between atoms: C_18  and  O_19
REMARK                            x       y       z     vdW  Elec       q    Type
REMARK                         _______ _______ _______ _____ _____    ______ ____
ROOT
ATOM      1  C   UNL     1       5.629   4.226  14.108  0.00  0.00    +0.000 A 
ATOM      2  C   UNL     1       6.926   4.723  14.239  0.00  0.00    +0.000 A 
ATOM      3  C   UNL     1       7.469   4.984  15.492  0.00  0.00    +0.000 A 
ATOM      4  C   UNL     1       6.718   4.765  16.646  0.00  0.00    +0.000 A 
ATOM      5 CL   UNL     1       7.550   5.043  18.141  0.00  0.00    +0.000 Cl
ATOM      6  C   UNL     1       5.389   4.310  16.557  0.00  0.00    +0.000 A 
ATOM      7  C   UNL     1       4.852   4.058  15.268  0.00  0.00    +0.000 A 
ENDROOT
BRANCH   6   8
ATOM      8  C   UNL     1       4.584   4.088  17.766  0.00  0.00    +0.000 A 
ATOM      9  N   UNL     1       4.618   3.080  18.620  0.00  0.00    +0.000 NA
ATOM     10  C   UNL     1       3.598   3.336  19.494  0.00  0.00    +0.000 A 
ATOM     11  C   UNL     1       3.130   2.606  20.597  0.00  0.00    +0.000 A 
ATOM     12  C   UNL     1       2.056   3.143  21.312  0.00  0.00    +0.000 A 
ATOM     13  C   UNL     1       1.458   4.353  20.950  0.00  0.00    +0.000 A 
ATOM     14  C   UNL     1       1.914   5.086  19.845  0.00  0.00    +0.000 A 
ATOM     15  C   UNL     1       2.986   4.531  19.156  0.00  0.00    +0.000 A 
ATOM     16  O   UNL     1       3.620   5.030  18.050  0.00  0.00    +0.000 OA
BRANCH  12  17
ATOM     17  O   UNL     1       1.548   2.498  22.405  0.00  0.00    +0.000 OA
ATOM     18  H   UNL     1       2.034   1.666  22.536  0.00  0.00    +0.000 HD
ENDBRANCH  12  17
ENDBRANCH   6   8
BRANCH   1  21
ATOM     19  C   UNL     1       5.684   3.043  11.932  0.00  0.00    +0.000 C 
ATOM     20  O   UNL     1       6.688   2.366  12.116  0.00  0.00    +0.000 OA
ATOM     21  N   UNL     1       5.095   3.898  12.840  0.00  0.00    +0.000 N 
ATOM     22  H   UNL     1       4.166   4.211  12.596  0.00  0.00    +0.000 HD
BRANCH  19  23
ATOM     23  O   UNL     1       4.958   2.999  10.782  0.00  0.00    +0.000 OA
BRANCH  23  24
ATOM     24  C   UNL     1       3.552   3.246  10.977  0.00  0.00    +0.000 C 
BRANCH  24  26
ATOM     25  C   UNL     1       2.547   4.743   9.003  0.00  0.00    +0.000 C 
ATOM     26  C   UNL     1       2.986   4.052   9.881  0.00  0.00    +0.000 C 
ENDBRANCH  24  26
ENDBRANCH  23  24
ENDBRANCH  19  23
ENDBRANCH   1  21
TORSDOF 6
ENDMDL
MODEL 3
REMARK VINA RESULT:      -8.4      1.439      1.910
REMARK  Name = 
REMARK  6 active torsions:
REMARK  status: ('A' for Active; 'I' for Inactive)
REMARK    1  A    between atoms: C_2  and  C_3
REMARK    2  A    between atoms: C_3  and  O_4
REMARK    3  A    between atoms: O_4  and  C_5
REMARK    4  A    between atoms: N_7  and  C_8
REMARK    5  A    between atoms: C_13  and  C_14
REMARK    6  A    between atoms: C_18  and  O_19
REMARK                            x       y       z     vdW  Elec       q    Type
REMARK                         _______ _______ _______ _____ _____    ______ ____
ROOT
ATOM      1  C   UNL     1       6.254   3.886  14.131  0.00  0.00    +0.000 A 
ATOM      2  C   UNL     1       7.164   4.937  14.254  0.00  0.00    +0.000 A 
ATOM      3  C   UNL     1       7.246   5.681  15.426  0.00  0.00    +0.000 A 
ATOM      4  C   UNL     1       6.406   5.396  16.501  0.00  0.00    +0.000 A 
ATOM      5 CL   UNL     1       6.679   6.339  17.930  0.00  0.00    +0.000 Cl
ATOM      6  C   UNL     1       5.441   4.376  16.403  0.00  0.00    +0.000 A 
ATOM      7  C   UNL     1       5.369   3.635  15.196  0.00  0.00    +0.000 A 
ENDROOT
BRANCH   6   8
ATOM      8  C   UNL     1       4.542   4.076  17.527  0.00  0.00    +0.000 A 
ATOM      9  N   UNL     1       4.830   3.593  18.722  0.00  0.00    +0.000 NA
ATOM     10  C   UNL     1       3.615   3.423  19.326  0.00  0.00    +0.000 A 
ATOM     11  C   UNL     1       3.282   2.916  20.591  0.00  0.00    +0.000 A 
ATOM     12  C   UNL     1       1.926   2.877  20.929  0.00  0.00    +0.000 A 
ATOM     13  C   UNL     1       0.932   3.313  20.050  0.00  0.00    +0.000 A 
ATOM     14  C   UNL     1       1.254   3.814  18.780  0.00  0.00    +0.000 A 
ATOM     15  C   UNL     1       2.609   3.847  18.473  0.00  0.00    +0.000 A 
ATOM     16  O   UNL     1       3.196   4.279  17.315  0.00  0.00    +0.000 OA
BRANCH  12  17
ATOM     17  O   UNL     1       1.520   2.407  22.147  0.00  0.00    +0.000 OA
ATOM     18  H   UNL     1       2.026   2.858  22.844  0.00  0.00    +0.000 HD
ENDBRANCH  12  17
ENDBRANCH   6   8
BRANCH   1  21
ATOM     19  C   UNL     1       5.194   3.096  12.036  0.00  0.00    +0.000 C 
ATOM     20  O   UNL     1       4.235   3.857  12.016  0.00  0.00    +0.000 OA
ATOM     21  N   UNL     1       6.212   3.086  12.966  0.00  0.00    +0.000 N 
ATOM     22  H   UNL     1       7.021   2.534  12.714  0.00  0.00    +0.000 HD
BRANCH  19  23
ATOM     23  O   UNL     1       5.418   2.158  11.077  0.00  0.00    +0.000 OA
BRANCH  23  24
ATOM     24  C   UNL     1       6.560   1.320  11.344  0.00  0.00    +0.000 C 
BRANCH  24  26
ATOM     25  C   UNL     1       5.881  -1.265  11.309  0.00  0.00    +0.000 C 
ATOM     26  C   UNL     1       6.204  -0.109  11.310  0.00  0.00    +0.000 C 
ENDBRANCH  24  26
ENDBRANCH  23  24
ENDBRANCH  19  23
ENDBRANCH   1  21
TORSDOF 6
ENDMDL
MODEL 4
REMARK VINA RESULT:      -8.1      4.180      5.283
REMARK  Name = 
REMARK  6 active torsions:
REMARK  status: ('A' for Active; 'I' for Inactive)
REMARK    1  A    between atoms: C_2  and  C_3
REMARK    2  A    between atoms: C_3  and  O_4
REMARK    3  A    between atoms: O_4  and  C_5
REMARK    4  A    between atoms: N_7  and  C_8
REMARK    5  A    between atoms: C_13  and  C_14
REMARK    6  A    between atoms: C_18  and  O_19
REMARK                            x       y       z     vdW  Elec       q    Type
REMARK                         _______ _______ _______ _____ _____    ______ ____
ROOT
ATOM      1  C   UNL     1       4.291   4.221  17.494  0.00  0.00    +0.000 A 
ATOM      2  C   UNL     1       3.699   3.019  17.884  0.00  0.00    +0.000 A 
ATOM      3  C   UNL     1       2.638   3.001  18.782  0.00  0.00    +0.000 A 
ATOM      4  C   UNL     1       2.152   4.191  19.323  0.00  0.00    +0.000 A 
ATOM      5 CL   UNL     1       0.769   4.030  20.355  0.00  0.00    +0.000 Cl
ATOM      6  C   UNL     1       2.750   5.422  18.993  0.00  0.00    +0.000 A 
ATOM      7  C   UNL     1       3.837   5.416  18.081  0.00  0.00    +0.000 A 
ENDROOT
BRANCH   6   8
ATOM      8  C   UNL     1       2.254   6.681  19.567  0.00  0.00    +0.000 A 
ATOM      9  N   UNL     1       1.906   6.952  20.812  0.00  0.00    +0.000 NA
ATOM     10  C   UNL     1       1.432   8.234  20.765  0.00  0.00    +0.000 A 
ATOM     11  C   UNL     1       0.895   9.052  21.771  0.00  0.00    +0.000 A 
ATOM     12  C   UNL     1       0.501  10.342  21.405  0.00  0.00    +0.000 A 
ATOM     13  C   UNL     1       0.625  10.810  20.094  0.00  0.00    +0.000 A 
ATOM     14  C   UNL     1       1.153   9.998  19.081  0.00  0.00    +0.000 A 
ATOM     15  C   UNL     1       1.541   8.722  19.473  0.00  0.00    +0.000 A 
ATOM     16  O   UNL     1       2.080   7.733  18.695  0.00  0.00    +0.000 OA
BRANCH  12  17
ATOM     17  O   UNL     1      -0.022  11.203  22.329  0.00  0.00    +0.000 OA
ATOM     18  H   UNL     1      -0.705  11.749  21.902  0.00  0.00    +0.000 HD
ENDBRANCH  12  17
ENDBRANCH   6   8
BRANCH   1  21
ATOM     19  C   UNL     1       6.669   4.381  16.818  0.00  0.00    +0.000 C 
ATOM     20  O   UNL     1       7.177   4.388  17.932  0.00  0.00    +0.000 OA
ATOM     21  N   UNL     1       5.326   4.250  16.531  0.00  0.00    +0.000 N 
ATOM     22  H   UNL     1       5.109   4.055  15.563  0.00  0.00    +0.000 HD
BRANCH  19  23
ATOM     23  O   UNL     1       7.395   4.449  15.669  0.00  0.00    +0.000 OA
BRANCH  23  24
ATOM     24  C   UNL     1       6.694   5.081  14.580  0.00  0.00    +0.000 C 
BRANCH  24  26
ATOM     25  C   UNL     1       6.320   3.422  12.517  0.00  0.00    +0.000 C 
ATOM     26  C   UNL     1       6.510   4.159  13.445  0.00  0.00    +0.000 C 
ENDBRANCH  24  26
ENDBRANCH  23  24
ENDBRANCH  19  23
ENDBRANCH   1  21
TORSDOF 6
ENDMDL
MODEL 5
REMARK VINA RESULT:      -7.8      2.780      3.286
REMARK  Name = 
REMARK  6 active torsions:
REMARK  status: ('A' for Active; 'I' for Inactive)
REMARK    1  A    between atoms: C_2  and  C_3
REMARK    2  A    between atoms: C_3  and  O_4
REMARK    3  A    between atoms: O_4  and  C_5
REMARK    4  A    between atoms: N_7  and  C_8
REMARK    5  A    between atoms: C_13  and  C_14
REMARK    6  A    between atoms: C_18  and  O_19
REMARK                            x       y       z     vdW  Elec       q    Type
REMARK                         _______ _______ _______ _____ _____    ______ ____
ROOT
ATOM      1  C   UNL     1       5.992   4.204  15.212  0.00  0.00    +0.000 A 
ATOM      2  C   UNL     1       7.200   4.007  15.882  0.00  0.00    +0.000 A 
ATOM      3  C   UNL     1       7.400   4.513  17.161  0.00  0.00    +0.000 A 
ATOM      4  C   UNL     1       6.395   5.241  17.797  0.00  0.00    +0.000 A 
ATOM      5 CL   UNL     1       6.745   5.731  19.422  0.00  0.00    +0.000 Cl
ATOM      6  C   UNL     1       5.179   5.503  17.139  0.00  0.00    +0.000 A 
ATOM      7  C   UNL     1       4.999   4.985  15.831  0.00  0.00    +0.000 A 
ENDROOT
BRANCH   6   8
ATOM      8  C   UNL     1       4.118   6.281  17.795  0.00  0.00    +0.000 A 
ATOM      9  N   UNL     1       3.582   7.433  17.435  0.00  0.00    +0.000 NA
ATOM     10  C   UNL     1       2.717   7.741  18.449  0.00  0.00    +0.000 A 
ATOM     11  C   UNL     1       1.886   8.856  18.639  0.00  0.00    +0.000 A 
ATOM     12  C   UNL     1       1.097   8.877  19.792  0.00  0.00    +0.000 A 
ATOM     13  C   UNL     1       1.128   7.840  20.729  0.00  0.00    +0.000 A 
ATOM     14  C   UNL     1       1.960   6.726  20.551  0.00  0.00    +0.000 A 
ATOM     15  C   UNL     1       2.730   6.729  19.394  0.00  0.00    +0.000 A 
ATOM     16  O   UNL     1       3.622   5.778  18.977  0.00  0.00    +0.000 OA
BRANCH  12  17
ATOM     17  O   UNL     1       0.254   9.922  20.046  0.00  0.00    +0.000 OA
ATOM     18  H   UNL     1       0.573  10.709  19.572  0.00  0.00    +0.000 HD
ENDBRANCH  12  17
ENDBRANCH   6   8
BRANCH   1  21
ATOM     19  C   UNL     1       6.413   3.999  12.780  0.00  0.00    +0.000 C 
ATOM     20  O   UNL     1       7.352   4.780  12.689  0.00  0.00    +0.000 OA
ATOM     21  N   UNL     1       5.759   3.636  13.938  0.00  0.00    +0.000 N 
ATOM     22  H   UNL     1       5.154   2.831  13.857  0.00  0.00    +0.000 HD
BRANCH  19  23
ATOM     23  O   UNL     1       5.907   3.319  11.716  0.00  0.00    +0.000 OA
BRANCH  23  24
ATOM     24  C   UNL     1       4.494   3.055  11.819  0.00  0.00    +0.000 C 
BRANCH  24  26
ATOM     25  C   UNL     1       3.128   4.058   9.751  0.00  0.00    +0.000 C 
ATOM     26  C   UNL     1       3.750   3.630  10.684  0.00  0.00    +0.000 C 
ENDBRANCH  24  26
ENDBRANCH  23  24
ENDBRANCH  19  23
ENDBRANCH   1  21
TORSDOF 6
ENDMDL
MODEL 6
REMARK VINA RESULT:      -7.8      4.375      5.625
REMARK  Name = 
REMARK  6 active torsions:
REMARK  status: ('A' for Active; 'I' for Inactive)
REMARK    1  A    between atoms: C_2  and  C_3
REMARK    2  A    between atoms: C_3  and  O_4
REMARK    3  A    between atoms: O_4  and  C_5
REMARK    4  A    between atoms: N_7  and  C_8
REMARK    5  A    between atoms: C_13  and  C_14
REMARK    6  A    between atoms: C_18  and  O_19
REMARK                            x       y       z     vdW  Elec       q    Type
REMARK                         _______ _______ _______ _____ _____    ______ ____
ROOT
ATOM      1  C   UNL     1       4.610   4.513  17.714  0.00  0.00    +0.000 A 
ATOM      2  C   UNL     1       4.202   3.385  18.427  0.00  0.00    +0.000 A 
ATOM      3  C   UNL     1       3.165   3.458  19.351  0.00  0.00    +0.000 A 
ATOM      4  C   UNL     1       2.520   4.671  19.592  0.00  0.00    +0.000 A 
ATOM      5 CL   UNL     1       1.187   4.598  20.698  0.00  0.00    +0.000 Cl
ATOM      6  C   UNL     1       2.931   5.842  18.929  0.00  0.00    +0.000 A 
ATOM      7  C   UNL     1       3.996   5.746  17.997  0.00  0.00    +0.000 A 
ENDROOT
BRANCH   6   8
ATOM      8  C   UNL     1       2.266   7.128  19.185  0.00  0.00    +0.000 A 
ATOM      9  N   UNL     1       2.025   8.125  18.353  0.00  0.00    +0.000 NA
ATOM     10  C   UNL     1       1.474   9.101  19.136  0.00  0.00    +0.000 A 
ATOM     11  C   UNL     1       1.041  10.397  18.818  0.00  0.00    +0.000 A 
ATOM     12  C   UNL     1       0.504  11.166  19.855  0.00  0.00    +0.000 A 
ATOM     13  C   UNL     1       0.403  10.678  21.161  0.00  0.00    +0.000 A 
ATOM     14  C   UNL     1       0.840   9.387  21.489  0.00  0.00    +0.000 A 
ATOM     15  C   UNL     1       1.365   8.644  20.439  0.00  0.00    +0.000 A 
ATOM     16  O   UNL     1       1.862   7.369  20.480  0.00  0.00    +0.000 OA
BRANCH  12  17
ATOM     17  O   UNL     1       0.051  12.434  19.625  0.00  0.00    +0.000 OA
ATOM     18  H   UNL     1       0.762  13.066  19.827  0.00  0.00    +0.000 HD
ENDBRANCH  12  17
ENDBRANCH   6   8
BRANCH   1  21
ATOM     19  C   UNL     1       6.974   4.456  16.977  0.00  0.00    +0.000 C 
ATOM     20  O   UNL     1       7.510   4.450  18.078  0.00  0.00    +0.000 OA
ATOM     21  N   UNL     1       5.618   4.430  16.726  0.00  0.00    +0.000 N 
ATOM     22  H   UNL     1       5.361   4.229  15.770  0.00  0.00    +0.000 HD
BRANCH  19  23
ATOM     23  O   UNL     1       7.673   4.433  15.810  0.00  0.00    +0.000 OA
BRANCH  23  24
ATOM     24  C   UNL     1       7.032   5.153  14.739  0.00  0.00    +0.000 C 
BRANCH  24  26
ATOM     25  C   UNL     1       6.231   3.474  12.819  0.00  0.00    +0.000 C 
ATOM     26  C   UNL     1       6.578   4.246  13.670  0.00  0.00    +0.000 C 
ENDBRANCH  24  26
ENDBRANCH  23  24
ENDBRANCH  19  23
ENDBRANCH   1  21
TORSDOF 6
ENDMDL
MODEL 7
REMARK VINA RESULT:      -7.7      3.963      4.915
REMARK  Name = 
REMARK  6 active torsions:
REMARK  status: ('A' for Active; 'I' for Inactive)
REMARK    1  A    between atoms: C_2  and  C_3
REMARK    2  A    between atoms: C_3  and  O_4
REMARK    3  A    between atoms: O_4  and  C_5
REMARK    4  A    between atoms: N_7  and  C_8
REMARK    5  A    between atoms: C_13  and  C_14
REMARK    6  A    between atoms: C_18  and  O_19
REMARK                            x       y       z     vdW  Elec       q    Type
REMARK                         _______ _______ _______ _____ _____    ______ ____
ROOT
ATOM      1  C   UNL     1       4.810   4.004  17.236  0.00  0.00    +0.000 A 
ATOM      2  C   UNL     1       4.145   2.816  17.541  0.00  0.00    +0.000 A 
ATOM      3  C   UNL     1       2.971   2.823  18.285  0.00  0.00    +0.000 A 
ATOM      4  C   UNL     1       2.440   4.025  18.753  0.00  0.00    +0.000 A 
ATOM      5 CL   UNL     1       0.925   3.896  19.585  0.00  0.00    +0.000 Cl
ATOM      6  C   UNL     1       3.104   5.242  18.508  0.00  0.00    +0.000 A 
ATOM      7  C   UNL     1       4.305   5.210  17.754  0.00  0.00    +0.000 A 
ENDROOT
BRANCH   6   8
ATOM      8  C   UNL     1       2.560   6.513  19.007  0.00  0.00    +0.000 A 
ATOM      9  N   UNL     1       2.146   6.825  20.222  0.00  0.00    +0.000 NA
ATOM     10  C   UNL     1       1.655   8.096  20.102  0.00  0.00    +0.000 A 
ATOM     11  C   UNL     1       1.056   8.942  21.047  0.00  0.00    +0.000 A 
ATOM     12  C   UNL     1       0.660  10.210  20.613  0.00  0.00    +0.000 A 
ATOM     13  C   UNL     1       0.842  10.630  19.293  0.00  0.00    +0.000 A 
ATOM     14  C   UNL     1       1.433   9.789  18.339  0.00  0.00    +0.000 A 
ATOM     15  C   UNL     1       1.821   8.536  18.799  0.00  0.00    +0.000 A 
ATOM     16  O   UNL     1       2.413   7.528  18.088  0.00  0.00    +0.000 OA
BRANCH  12  17
ATOM     17  O   UNL     1       0.078  11.096  21.476  0.00  0.00    +0.000 OA
ATOM     18  H   UNL     1      -0.881  11.110  21.316  0.00  0.00    +0.000 HD
ENDBRANCH  12  17
ENDBRANCH   6   8
BRANCH   1  21
ATOM     19  C   UNL     1       6.286   4.984  15.503  0.00  0.00    +0.000 C 
ATOM     20  O   UNL     1       5.682   6.033  15.319  0.00  0.00    +0.000 OA
ATOM     21  N   UNL     1       5.969   4.008  16.424  0.00  0.00    +0.000 N 
ATOM     22  H   UNL     1       6.688   3.316  16.583  0.00  0.00    +0.000 HD
BRANCH  19  23
ATOM     23  O   UNL     1       7.424   4.655  14.836  0.00  0.00    +0.000 OA
BRANCH  23  24
ATOM     24  C   UNL     1       7.354   4.900  13.418  0.00  0.00    +0.000 C 
BRANCH  24  26
ATOM     25  C   UNL     1       5.808   3.095  12.193  0.00  0.00    +0.000 C 
ATOM     26  C   UNL     1       6.485   3.922  12.740  0.00  0.00    +0.000 C 
ENDBRANCH  24  26
ENDBRANCH  23  24
ENDBRANCH  19  23
ENDBRANCH   1  21
TORSDOF 6
ENDMDL
MODEL 8
REMARK VINA RESULT:      -7.7      5.878      9.446
REMARK  Name = 
REMARK  6 active torsions:
REMARK  status: ('A' for Active; 'I' for Inactive)
REMARK    1  A    between atoms: C_2  and  C_3
REMARK    2  A    between atoms: C_3  and  O_4
REMARK    3  A    between atoms: O_4  and  C_5
REMARK    4  A    between atoms: N_7  and  C_8
REMARK    5  A    between atoms: C_13  and  C_14
REMARK    6  A    between atoms: C_18  and  O_19
REMARK                            x       y       z     vdW  Elec       q    Type
REMARK                         _______ _______ _______ _____ _____    ______ ____
ROOT
ATOM      1  C   UNL     1       0.435   9.662  20.461  0.00  0.00    +0.000 A 
ATOM      2  C   UNL     1       0.724  10.373  19.296  0.00  0.00    +0.000 A 
ATOM      3  C   UNL     1       1.545   9.831  18.312  0.00  0.00    +0.000 A 
ATOM      4  C   UNL     1       2.107   8.566  18.480  0.00  0.00    +0.000 A 
ATOM      5 CL   UNL     1       3.031   7.978  17.138  0.00  0.00    +0.000 Cl
ATOM      6  C   UNL     1       1.879   7.836  19.662  0.00  0.00    +0.000 A 
ATOM      7  C   UNL     1       1.047   8.410  20.655  0.00  0.00    +0.000 A 
ENDROOT
BRANCH   6   8
ATOM      8  C   UNL     1       2.477   6.507  19.855  0.00  0.00    +0.000 A 
ATOM      9  N   UNL     1       3.553   5.985  19.294  0.00  0.00    +0.000 NA
ATOM     10  C   UNL     1       3.593   4.699  19.757  0.00  0.00    +0.000 A 
ATOM     11  C   UNL     1       4.489   3.653  19.487  0.00  0.00    +0.000 A 
ATOM     12  C   UNL     1       4.265   2.435  20.134  0.00  0.00    +0.000 A 
ATOM     13  C   UNL     1       3.193   2.249  21.011  0.00  0.00    +0.000 A 
ATOM     14  C   UNL     1       2.288   3.285  21.281  0.00  0.00    +0.000 A 
ATOM     15  C   UNL     1       2.537   4.487  20.628  0.00  0.00    +0.000 A 
ATOM     16  O   UNL     1       1.818   5.649  20.707  0.00  0.00    +0.000 OA
BRANCH  12  17
ATOM     17  O   UNL     1       5.099   1.370  19.933  0.00  0.00    +0.000 OA
ATOM     18  H   UNL     1       4.743   0.597  20.403  0.00  0.00    +0.000 HD
ENDBRANCH  12  17
ENDBRANCH   6   8
BRANCH   1  21
ATOM     19  C   UNL     1      -0.239  10.142  22.797  0.00  0.00    +0.000 C 
ATOM     20  O   UNL     1       0.775   9.756  23.364  0.00  0.00    +0.000 OA
ATOM     21  N   UNL     1      -0.451  10.181  21.434  0.00  0.00    +0.000 N 
ATOM     22  H   UNL     1      -1.253  10.718  21.138  0.00  0.00    +0.000 HD
BRANCH  19  23
ATOM     23  O   UNL     1      -1.311  10.655  23.458  0.00  0.00    +0.000 OA
BRANCH  23  24
ATOM     24  C   UNL     1      -1.893  11.804  22.812  0.00  0.00    +0.000 C 
BRANCH  24  26
ATOM     25  C   UNL     1      -4.107  12.660  24.042  0.00  0.00    +0.000 C 
ATOM     26  C   UNL     1      -3.113  12.256  23.504  0.00  0.00    +0.000 C 
ENDBRANCH  24  26
ENDBRANCH  23  24
ENDBRANCH  19  23
ENDBRANCH   1  21
TORSDOF 6
ENDMDL
MODEL 9
REMARK VINA RESULT:      -7.6      4.017      5.039
REMARK  Name = 
REMARK  6 active torsions:
REMARK  status: ('A' for Active; 'I' for Inactive)
REMARK    1  A    between atoms: C_2  and  C_3
REMARK    2  A    between atoms: C_3  and  O_4
REMARK    3  A    between atoms: O_4  and  C_5
REMARK    4  A    between atoms: N_7  and  C_8
REMARK    5  A    between atoms: C_13  and  C_14
REMARK    6  A    between atoms: C_18  and  O_19
REMARK                            x       y       z     vdW  Elec       q    Type
REMARK                         _______ _______ _______ _____ _____    ______ ____
ROOT
ATOM      1  C   UNL     1       4.956   4.344  17.113  0.00  0.00    +0.000 A 
ATOM      2  C   UNL     1       4.373   3.112  17.411  0.00  0.00    +0.000 A 
ATOM      3  C   UNL     1       3.181   3.038  18.123  0.00  0.00    +0.000 A 
ATOM      4  C   UNL     1       2.550   4.200  18.565  0.00  0.00    +0.000 A 
ATOM      5 CL   UNL     1       1.027   3.965  19.358  0.00  0.00    +0.000 Cl
ATOM      6  C   UNL     1       3.128   5.461  18.327  0.00  0.00    +0.000 A 
ATOM      7  C   UNL     1       4.349   5.513  17.606  0.00  0.00    +0.000 A 
ENDROOT
BRANCH   6   8
ATOM      8  C   UNL     1       2.478   6.692  18.799  0.00  0.00    +0.000 A 
ATOM      9  N   UNL     1       2.154   7.779  18.122  0.00  0.00    +0.000 NA
ATOM     10  C   UNL     1       1.668   8.640  19.066  0.00  0.00    +0.000 A 
ATOM     11  C   UNL     1       1.196   9.956  18.953  0.00  0.00    +0.000 A 
ATOM     12  C   UNL     1       0.749  10.580  20.120  0.00  0.00    +0.000 A 
ATOM     13  C   UNL     1       0.770   9.933  21.359  0.00  0.00    +0.000 A 
ATOM     14  C   UNL     1       1.246   8.620  21.484  0.00  0.00    +0.000 A 
ATOM     15  C   UNL     1       1.680   8.023  20.307  0.00  0.00    +0.000 A 
ATOM     16  O   UNL     1       2.190   6.763  20.144  0.00  0.00    +0.000 OA
BRANCH  12  17
ATOM     17  O   UNL     1       0.265  11.858  20.092  0.00  0.00    +0.000 OA
ATOM     18  H   UNL     1       0.614  12.311  19.305  0.00  0.00    +0.000 HD
ENDBRANCH  12  17
ENDBRANCH   6   8
BRANCH   1  21
ATOM     19  C   UNL     1       6.336   5.322  15.302  0.00  0.00    +0.000 C 
ATOM     20  O   UNL     1       5.589   6.234  14.972  0.00  0.00    +0.000 OA
ATOM     21  N   UNL     1       6.133   4.428  16.333  0.00  0.00    +0.000 N 
ATOM     22  H   UNL     1       6.941   3.880  16.593  0.00  0.00    +0.000 HD
BRANCH  19  23
ATOM     23  O   UNL     1       7.538   5.094  14.706  0.00  0.00    +0.000 OA
BRANCH  23  24
ATOM     24  C   UNL     1       7.486   5.138  13.267  0.00  0.00    +0.000 C 
BRANCH  24  26
ATOM     25  C   UNL     1       5.964   3.158  12.313  0.00  0.00    +0.000 C 
ATOM     26  C   UNL     1       6.658   4.049  12.720  0.00  0.00    +0.000 C 
ENDBRANCH  24  26
ENDBRANCH  23  24
ENDBRANCH  19  23
ENDBRANCH   1  21
TORSDOF 6
ENDMDL
