MODEL 1
REMARK VINA RESULT:      -8.6      0.000      0.000
REMARK  Name = 
REMARK  7 active torsions:
REMARK  status: ('A' for Active; 'I' for Inactive)
REMARK    1  A    between atoms: C_1  and  O_2
REMARK    2  A    between atoms: O_2  and  C_3
REMARK    3  A    between atoms: C_6  and  C_7
REMARK    4  A    between atoms: C_7  and  N_8
REMARK    5  A    between atoms: C_11  and  C_12
REMARK    6  A    between atoms: C_11  and  O_13
REMARK    7  A    between atoms: O_13  and  C_14
REMARK                            x       y       z     vdW  Elec       q    Type
REMARK                         _______ _______ _______ _____ _____    ______ ____
ROOT
ATOM      1  N   UNL     1       2.231   7.904  19.084  0.00  0.00    +0.000 NA
ATOM      2  C   UNL     1       1.479   7.169  20.092  0.00  0.00    +0.000 C 
ATOM      3  C   UNL     1       2.230   5.846  20.229  0.00  0.00    +0.000 C 
ATOM      4  C   UNL     1       2.751   5.524  18.814  0.00  0.00    +0.000 C 
ATOM      5  C   UNL     1       1.750   4.579  18.125  0.00  0.00    +0.000 C 
ATOM      6  C   UNL     1       2.835   6.926  18.184  0.00  0.00    +0.000 C 
ENDROOT
BRANCH   1   7
ATOM      7  C   UNL     1       1.475   8.894  18.313  0.00  0.00    +0.000 C 
BRANCH   7  11
ATOM      8  C   UNL     1      -0.815  11.568  20.812  0.00  0.00    +0.000 A 
ATOM      9  C   UNL     1       0.393  11.019  21.244  0.00  0.00    +0.000 A 
ATOM     10  C   UNL     1       1.112  10.176  20.410  0.00  0.00    +0.000 A 
ATOM     11  C   UNL     1       0.633   9.846  19.133  0.00  0.00    +0.000 A 
ATOM     12  C   UNL     1      -0.628  10.338  18.701  0.00  0.00    +0.000 A 
ATOM     13  C   UNL     1      -1.212   9.978  17.462  0.00  0.00    +0.000 A 
ATOM     14  C   UNL     1      -2.448  10.473  17.052  0.00  0.00    +0.000 A 
ATOM     15  C   UNL     1      -3.138  11.348  17.871  0.00  0.00    +0.000 A 
ATOM     16  C   UNL     1      -2.600  11.713  19.102  0.00  0.00    +0.000 A 
ATOM     17  C   UNL     1      -1.354  11.217  19.549  0.00  0.00    +0.000 A 
BRANCH   8  19
ATOM     18  C   UNL     1      -1.758  11.967  22.948  0.00  0.00    +0.000 C 
ATOM     19  O   UNL     1      -1.559  12.411  21.609  0.00  0.00    +0.000 OA
ENDBRANCH   8  19
ENDBRANCH   7  11
ENDBRANCH   1   7
BRANCH   4  20
ATOM     20  O   UNL     1       4.033   4.870  18.926  0.00  0.00    +0.000 OA
BRANCH  20  21
ATOM     21  C   UNL     1       5.003   5.081  17.975  0.00  0.00    +0.000 A 
ATOM     22  C   UNL     1       6.169   5.855  18.138  0.00  0.00    +0.000 A 
ATOM     23  C   UNL     1       7.118   5.984  17.124  0.00  0.00    +0.000 A 
ATOM     24  C   UNL     1       6.866   5.340  15.941  0.00  0.00    +0.000 A 
ATOM     25  C   UNL     1       5.736   4.583  15.757  0.00  0.00    +0.000 A 
ATOM     26  C   UNL     1       4.793   4.424  16.756  0.00  0.00    +0.000 A 
ATOM     27  O   UNL     1       5.686   4.043  14.509  0.00  0.00    +0.000 OA
ATOM     28  C   UNL     1       6.915   4.549  13.941  0.00  0.00    +0.000 C 
ATOM     29  O   UNL     1       7.674   5.368  14.851  0.00  0.00    +0.000 OA
ENDBRANCH  20  21
ENDBRANCH   4  20
TORSDOF 5
ENDMDL
MODEL 2
REMARK VINA RESULT:      -8.5      0.938      1.122
REMARK  Name = 
REMARK  7 active torsions:
REMARK  status: ('A' for Active; 'I' for Inactive)
REMARK    1  A    between atoms: C_1  and  O_2
REMARK    2  A    between atoms: O_2  and  C_3
REMARK    3  A    between atoms: C_6  and  C_7
REMARK    4  A    between atoms: C_7  and  N_8
REMARK    5  A    between atoms: C_11  and  C_12
REMARK    6  A    between atoms: C_11  and  O_13
REMARK    7  A    between atoms: O_13  and  C_14
REMARK                            x       y       z     vdW  Elec       q    Type
REMARK                         _______ _______ _______ _____ _____    ______ ____
ROOT
ATOM      1  N   UNL     1       2.387   6.951  19.463  0.00  0.00    +0.000 NA
ATOM      2  C   UNL     1       1.649   6.149  20.428  0.00  0.00    +0.000 C 
ATOM      3  C   UNL     1       2.301   4.770  20.348  0.00  0.00    +0.000 C 
ATOM      4  C   UNL     1       2.700   4.594  18.868  0.00  0.00    +0.000 C 
ATOM      5  C   UNL     1       1.585   3.815  18.148  0.00  0.00    +0.000 C 
ATOM      6  C   UNL     1       2.852   6.055  18.408  0.00  0.00    +0.000 C 
ENDROOT
BRANCH   1   7
ATOM      7  C   UNL     1       1.663   8.081  18.876  0.00  0.00    +0.000 C 
BRANCH   7  11
ATOM      8  C   UNL     1       0.053  10.752  21.863  0.00  0.00    +0.000 A 
ATOM      9  C   UNL     1       0.964   9.749  22.194  0.00  0.00    +0.000 A 
ATOM     10  C   UNL     1       1.475   8.918  21.209  0.00  0.00    +0.000 A 
ATOM     11  C   UNL     1       1.072   9.056  19.870  0.00  0.00    +0.000 A 
ATOM     12  C   UNL     1       0.093  10.025  19.523  0.00  0.00    +0.000 A 
ATOM     13  C   UNL     1      -0.420  10.163  18.210  0.00  0.00    +0.000 A 
ATOM     14  C   UNL     1      -1.378  11.122  17.885  0.00  0.00    +0.000 A 
ATOM     15  C   UNL     1      -1.848  11.976  18.865  0.00  0.00    +0.000 A 
ATOM     16  C   UNL     1      -1.375  11.859  20.170  0.00  0.00    +0.000 A 
ATOM     17  C   UNL     1      -0.413  10.888  20.531  0.00  0.00    +0.000 A 
BRANCH   8  19
ATOM     18  C   UNL     1      -1.727  11.196  23.360  0.00  0.00    +0.000 C 
ATOM     19  O   UNL     1      -0.476  11.600  22.811  0.00  0.00    +0.000 OA
ENDBRANCH   8  19
ENDBRANCH   7  11
ENDBRANCH   1   7
BRANCH   4  20
ATOM     20  O   UNL     1       3.931   3.843  18.803  0.00  0.00    +0.000 OA
BRANCH  20  21
ATOM     21  C   UNL     1       4.943   4.245  17.964  0.00  0.00    +0.000 A 
ATOM     22  C   UNL     1       6.150   4.858  18.355  0.00  0.00    +0.000 A 
ATOM     23  C   UNL     1       7.138   5.200  17.433  0.00  0.00    +0.000 A 
ATOM     24  C   UNL     1       6.884   4.935  16.112  0.00  0.00    +0.000 A 
ATOM     25  C   UNL     1       5.714   4.343  15.706  0.00  0.00    +0.000 A 
ATOM     26  C   UNL     1       4.732   3.975  16.606  0.00  0.00    +0.000 A 
ATOM     27  O   UNL     1       5.672   4.182  14.356  0.00  0.00    +0.000 OA
ATOM     28  C   UNL     1       6.948   4.739  13.971  0.00  0.00    +0.000 C 
ATOM     29  O   UNL     1       7.728   5.212  15.086  0.00  0.00    +0.000 OA
ENDBRANCH  20  21
ENDBRANCH   4  20
TORSDOF 5
ENDMDL
MODEL 3
REMARK VINA RESULT:      -8.5      1.754      1.896
REMARK  Name = 
REMARK  7 active torsions:
REMARK  status: ('A' for Active; 'I' for Inactive)
REMARK    1  A    between atoms: C_1  and  O_2
REMARK    2  A    between atoms: O_2  and  C_3
REMARK    3  A    between atoms: C_6  and  C_7
REMARK    4  A    between atoms: C_7  and  N_8
REMARK    5  A    between atoms: C_11  and  C_12
REMARK    6  A    between atoms: C_11  and  O_13
REMARK    7  A    between atoms: O_13  and  C_14
REMARK                            x       y       z     vdW  Elec       q    Type
REMARK                         _______ _______ _______ _____ _____    ______ ____
ROOT
ATOM      1  N   UNL     1       2.226   7.181  19.857  0.00  0.00    +0.000 NA
ATOM      2  C   UNL     1       1.465   6.256  20.686  0.00  0.00    +0.000 C 
ATOM      3  C   UNL     1       2.224   4.936  20.568  0.00  0.00    +0.000 C 
ATOM      4  C   UNL     1       2.768   4.906  19.125  0.00  0.00    +0.000 C 
ATOM      5  C   UNL     1       1.784   4.113  18.246  0.00  0.00    +0.000 C 
ATOM      6  C   UNL     1       2.850   6.405  18.790  0.00  0.00    +0.000 C 
ENDROOT
BRANCH   1   7
ATOM      7  C   UNL     1       1.474   8.302  19.288  0.00  0.00    +0.000 C 
BRANCH   7  11
ATOM      8  C   UNL     1      -0.223  10.940  22.255  0.00  0.00    +0.000 A 
ATOM      9  C   UNL     1      -0.263   9.554  22.401  0.00  0.00    +0.000 A 
ATOM     10  C   UNL     1       0.306   8.735  21.438  0.00  0.00    +0.000 A 
ATOM     11  C   UNL     1       0.911   9.280  20.294  0.00  0.00    +0.000 A 
ATOM     12  C   UNL     1       0.900  10.686  20.092  0.00  0.00    +0.000 A 
ATOM     13  C   UNL     1       1.416  11.299  18.923  0.00  0.00    +0.000 A 
ATOM     14  C   UNL     1       1.402  12.681  18.742  0.00  0.00    +0.000 A 
ATOM     15  C   UNL     1       0.873  13.493  19.728  0.00  0.00    +0.000 A 
ATOM     16  C   UNL     1       0.345  12.923  20.884  0.00  0.00    +0.000 A 
ATOM     17  C   UNL     1       0.335  11.524  21.090  0.00  0.00    +0.000 A 
BRANCH   8  19
ATOM     18  C   UNL     1      -2.197  11.800  23.239  0.00  0.00    +0.000 C 
ATOM     19  O   UNL     1      -0.773  11.789  23.190  0.00  0.00    +0.000 OA
ENDBRANCH   8  19
ENDBRANCH   7  11
ENDBRANCH   1   7
BRANCH   4  20
ATOM     20  O   UNL     1       4.053   4.249  19.124  0.00  0.00    +0.000 OA
BRANCH  20  21
ATOM     21  C   UNL     1       5.018   4.617  18.218  0.00  0.00    +0.000 A 
ATOM     22  C   UNL     1       6.178   5.365  18.501  0.00  0.00    +0.000 A 
ATOM     23  C   UNL     1       7.124   5.663  17.520  0.00  0.00    +0.000 A 
ATOM     24  C   UNL     1       6.873   5.215  16.249  0.00  0.00    +0.000 A 
ATOM     25  C   UNL     1       5.748   4.488  15.948  0.00  0.00    +0.000 A 
ATOM     26  C   UNL     1       4.810   4.163  16.909  0.00  0.00    +0.000 A 
ATOM     27  O   UNL     1       5.700   4.156  14.629  0.00  0.00    +0.000 OA
ATOM     28  C   UNL     1       6.923   4.756  14.148  0.00  0.00    +0.000 C 
ATOM     29  O   UNL     1       7.678   5.424  15.177  0.00  0.00    +0.000 OA
ENDBRANCH  20  21
ENDBRANCH   4  20
TORSDOF 5
ENDMDL
MODEL 4
REMARK VINA RESULT:      -8.4      2.075      9.166
REMARK  Name = 
REMARK  7 active torsions:
REMARK  status: ('A' for Active; 'I' for Inactive)
REMARK    1  A    between atoms: C_1  and  O_2
REMARK    2  A    between atoms: O_2  and  C_3
REMARK    3  A    between atoms: C_6  and  C_7
REMARK    4  A    between atoms: C_7  and  N_8
REMARK    5  A    between atoms: C_11  and  C_12
REMARK    6  A    between atoms: C_11  and  O_13
REMARK    7  A    between atoms: O_13  and  C_14
REMARK                            x       y       z     vdW  Elec       q    Type
REMARK                         _______ _______ _______ _____ _____    ______ ____
ROOT
ATOM      1  N   UNL     1       0.926   8.406  20.073  0.00  0.00    +0.000 NA
ATOM      2  C   UNL     1       0.052   8.861  21.145  0.00  0.00    +0.000 C 
ATOM      3  C   UNL     1      -0.607  10.120  20.583  0.00  0.00    +0.000 C 
ATOM      4  C   UNL     1       0.471  10.786  19.703  0.00  0.00    +0.000 C 
ATOM      5  C   UNL     1       1.193  11.858  20.537  0.00  0.00    +0.000 C 
ATOM      6  C   UNL     1       1.350   9.582  19.319  0.00  0.00    +0.000 C 
ENDROOT
BRANCH   1   7
ATOM      7  C   UNL     1       2.096   7.625  20.483  0.00  0.00    +0.000 C 
BRANCH   7  11
ATOM      8  C   UNL     1       3.481   4.804  17.523  0.00  0.00    +0.000 A 
ATOM      9  C   UNL     1       3.789   6.162  17.439  0.00  0.00    +0.000 A 
ATOM     10  C   UNL     1       3.343   7.039  18.415  0.00  0.00    +0.000 A 
ATOM     11  C   UNL     1       2.560   6.585  19.489  0.00  0.00    +0.000 A 
ATOM     12  C   UNL     1       2.176   5.219  19.555  0.00  0.00    +0.000 A 
ATOM     13  C   UNL     1       1.319   4.709  20.561  0.00  0.00    +0.000 A 
ATOM     14  C   UNL     1       0.955   3.364  20.615  0.00  0.00    +0.000 A 
ATOM     15  C   UNL     1       1.441   2.488  19.662  0.00  0.00    +0.000 A 
ATOM     16  C   UNL     1       2.275   2.958  18.651  0.00  0.00    +0.000 A 
ATOM     17  C   UNL     1       2.651   4.318  18.565  0.00  0.00    +0.000 A 
BRANCH   8  19
ATOM     18  C   UNL     1       5.278   4.006  16.204  0.00  0.00    +0.000 C 
ATOM     19  O   UNL     1       3.907   3.899  16.576  0.00  0.00    +0.000 OA
ENDBRANCH   8  19
ENDBRANCH   7  11
ENDBRANCH   1   7
BRANCH   4  20
ATOM     20  O   UNL     1      -0.172  11.408  18.570  0.00  0.00    +0.000 OA
BRANCH  20  21
ATOM     21  C   UNL     1      -1.492  11.147  18.294  0.00  0.00    +0.000 A 
ATOM     22  C   UNL     1      -1.979  10.097  17.489  0.00  0.00    +0.000 A 
ATOM     23  C   UNL     1      -3.343   9.888  17.292  0.00  0.00    +0.000 A 
ATOM     24  C   UNL     1      -4.208  10.760  17.901  0.00  0.00    +0.000 A 
ATOM     25  C   UNL     1      -3.758  11.792  18.686  0.00  0.00    +0.000 A 
ATOM     26  C   UNL     1      -2.411  12.005  18.912  0.00  0.00    +0.000 A 
ATOM     27  O   UNL     1      -4.785  12.535  19.182  0.00  0.00    +0.000 OA
ATOM     28  C   UNL     1      -5.922  11.845  18.616  0.00  0.00    +0.000 C 
ATOM     29  O   UNL     1      -5.560  10.709  17.807  0.00  0.00    +0.000 OA
ENDBRANCH  20  21
ENDBRANCH   4  20
TORSDOF 5
ENDMDL
MODEL 5
REMARK VINA RESULT:      -8.3      2.302      9.120
REMARK  Name = 
REMARK  7 active torsions:
REMARK  status: ('A' for Active; 'I' for Inactive)
REMARK    1  A    between atoms: C_1  and  O_2
REMARK    2  A    between atoms: O_2  and  C_3
REMARK    3  A    between atoms: C_6  and  C_7
REMARK    4  A    between atoms: C_7  and  N_8
REMARK    5  A    between atoms: C_11  and  C_12
REMARK    6  A    between atoms: C_11  and  O_13
REMARK    7  A    between atoms: O_13  and  C_14
REMARK                            x       y       z     vdW  Elec       q    Type
REMARK                         _______ _______ _______ _____ _____    ______ ____
ROOT
ATOM      1  N   UNL     1       1.002   8.302  19.988  0.00  0.00    +0.000 NA
ATOM      2  C   UNL     1       0.169   8.780  21.083  0.00  0.00    +0.000 C 
ATOM      3  C   UNL     1      -0.484  10.047  20.531  0.00  0.00    +0.000 C 
ATOM      4  C   UNL     1       0.578  10.688  19.615  0.00  0.00    +0.000 C 
ATOM      5  C   UNL     1       1.344  11.752  20.421  0.00  0.00    +0.000 C 
ATOM      6  C   UNL     1       1.424   9.466  19.214  0.00  0.00    +0.000 C 
ENDROOT
BRANCH   1   7
ATOM      7  C   UNL     1       2.170   7.504  20.370  0.00  0.00    +0.000 C 
BRANCH   7  11
ATOM      8  C   UNL     1       2.440   3.608  18.527  0.00  0.00    +0.000 A 
ATOM      9  C   UNL     1       1.665   3.826  19.666  0.00  0.00    +0.000 A 
ATOM     10  C   UNL     1       1.586   5.093  20.224  0.00  0.00    +0.000 A 
ATOM     11  C   UNL     1       2.296   6.169  19.669  0.00  0.00    +0.000 A 
ATOM     12  C   UNL     1       3.147   5.954  18.551  0.00  0.00    +0.000 A 
ATOM     13  C   UNL     1       3.956   6.974  17.994  0.00  0.00    +0.000 A 
ATOM     14  C   UNL     1       4.782   6.748  16.894  0.00  0.00    +0.000 A 
ATOM     15  C   UNL     1       4.820   5.492  16.317  0.00  0.00    +0.000 A 
ATOM     16  C   UNL     1       4.047   4.463  16.848  0.00  0.00    +0.000 A 
ATOM     17  C   UNL     1       3.210   4.660  17.970  0.00  0.00    +0.000 A 
BRANCH   8  19
ATOM     18  C   UNL     1       3.459   1.471  18.565  0.00  0.00    +0.000 C 
ATOM     19  O   UNL     1       2.543   2.366  17.941  0.00  0.00    +0.000 OA
ENDBRANCH   8  19
ENDBRANCH   7  11
ENDBRANCH   1   7
BRANCH   4  20
ATOM     20  O   UNL     1      -0.086  11.314  18.498  0.00  0.00    +0.000 OA
BRANCH  20  21
ATOM     21  C   UNL     1      -1.416  11.064  18.255  0.00  0.00    +0.000 A 
ATOM     22  C   UNL     1      -1.932  10.010  17.475  0.00  0.00    +0.000 A 
ATOM     23  C   UNL     1      -3.303   9.814  17.312  0.00  0.00    +0.000 A 
ATOM     24  C   UNL     1      -4.143  10.704  17.928  0.00  0.00    +0.000 A 
ATOM     25  C   UNL     1      -3.664  11.742  18.689  0.00  0.00    +0.000 A 
ATOM     26  C   UNL     1      -2.310  11.941  18.881  0.00  0.00    +0.000 A 
ATOM     27  O   UNL     1      -4.671  12.503  19.196  0.00  0.00    +0.000 OA
ATOM     28  C   UNL     1      -5.829  11.819  18.666  0.00  0.00    +0.000 C 
ATOM     29  O   UNL     1      -5.498  10.668  17.864  0.00  0.00    +0.000 OA
ENDBRANCH  20  21
ENDBRANCH   4  20
TORSDOF 5
ENDMDL
MODEL 6
REMARK VINA RESULT:      -8.2      2.031      9.772
REMARK  Name = 
REMARK  7 active torsions:
REMARK  status: ('A' for Active; 'I' for Inactive)
REMARK    1  A    between atoms: C_1  and  O_2
REMARK    2  A    between atoms: O_2  and  C_3
REMARK    3  A    between atoms: C_6  and  C_7
REMARK    4  A    between atoms: C_7  and  N_8
REMARK    5  A    between atoms: C_11  and  C_12
REMARK    6  A    between atoms: C_11  and  O_13
REMARK    7  A    between atoms: O_13  and  C_14
REMARK                            x       y       z     vdW  Elec       q    Type
REMARK                         _______ _______ _______ _____ _____    ______ ____
ROOT
ATOM      1  N   UNL     1       2.092   9.063  18.806  0.00  0.00    +0.000 NA
ATOM      2  C   UNL     1       1.890  10.305  18.073  0.00  0.00    +0.000 C 
ATOM      3  C   UNL     1       1.392  11.288  19.131  0.00  0.00    +0.000 C 
ATOM      4  C   UNL     1       0.535  10.446  20.099  0.00  0.00    +0.000 C 
ATOM      5  C   UNL     1      -0.941  10.563  19.677  0.00  0.00    +0.000 C 
ATOM      6  C   UNL     1       1.138   9.043  19.911  0.00  0.00    +0.000 C 
ENDROOT
BRANCH   1   7
ATOM      7  C   UNL     1       1.979   7.829  18.024  0.00  0.00    +0.000 C 
BRANCH   7  11
ATOM      8  C   UNL     1       5.357   5.155  18.314  0.00  0.00    +0.000 A 
ATOM      9  C   UNL     1       5.402   6.307  17.530  0.00  0.00    +0.000 A 
ATOM     10  C   UNL     1       4.306   7.154  17.471  0.00  0.00    +0.000 A 
ATOM     11  C   UNL     1       3.130   6.859  18.179  0.00  0.00    +0.000 A 
ATOM     12  C   UNL     1       3.038   5.655  18.928  0.00  0.00    +0.000 A 
ATOM     13  C   UNL     1       1.856   5.254  19.597  0.00  0.00    +0.000 A 
ATOM     14  C   UNL     1       1.783   4.071  20.331  0.00  0.00    +0.000 A 
ATOM     15  C   UNL     1       2.896   3.256  20.421  0.00  0.00    +0.000 A 
ATOM     16  C   UNL     1       4.071   3.613  19.765  0.00  0.00    +0.000 A 
ATOM     17  C   UNL     1       4.170   4.800  19.003  0.00  0.00    +0.000 A 
BRANCH   8  19
ATOM     18  C   UNL     1       7.512   4.571  17.525  0.00  0.00    +0.000 C 
ATOM     19  O   UNL     1       6.425   4.289  18.402  0.00  0.00    +0.000 OA
ENDBRANCH   8  19
ENDBRANCH   7  11
ENDBRANCH   1   7
BRANCH   4  20
ATOM     20  O   UNL     1       0.697  10.964  21.436  0.00  0.00    +0.000 OA
BRANCH  20  21
ATOM     21  C   UNL     1      -0.208  11.866  21.943  0.00  0.00    +0.000 A 
ATOM     22  C   UNL     1      -0.145  13.268  21.806  0.00  0.00    +0.000 A 
ATOM     23  C   UNL     1      -1.130  14.106  22.327  0.00  0.00    +0.000 A 
ATOM     24  C   UNL     1      -2.167  13.514  23.001  0.00  0.00    +0.000 A 
ATOM     25  C   UNL     1      -2.247  12.152  23.150  0.00  0.00    +0.000 A 
ATOM     26  C   UNL     1      -1.293  11.302  22.624  0.00  0.00    +0.000 A 
ATOM     27  O   UNL     1      -3.350  11.786  23.858  0.00  0.00    +0.000 OA
ATOM     28  C   UNL     1      -3.945  13.075  24.129  0.00  0.00    +0.000 C 
ATOM     29  O   UNL     1      -3.200  14.179  23.578  0.00  0.00    +0.000 OA
ENDBRANCH  20  21
ENDBRANCH   4  20
TORSDOF 5
ENDMDL
MODEL 7
REMARK VINA RESULT:      -8.2      1.860      2.483
REMARK  Name = 
REMARK  7 active torsions:
REMARK  status: ('A' for Active; 'I' for Inactive)
REMARK    1  A    between atoms: C_1  and  O_2
REMARK    2  A    between atoms: O_2  and  C_3
REMARK    3  A    between atoms: C_6  and  C_7
REMARK    4  A    between atoms: C_7  and  N_8
REMARK    5  A    between atoms: C_11  and  C_12
REMARK    6  A    between atoms: C_11  and  O_13
REMARK    7  A    between atoms: O_13  and  C_14
REMARK                            x       y       z     vdW  Elec       q    Type
REMARK                         _______ _______ _______ _____ _____    ______ ____
ROOT
ATOM      1  N   UNL     1       2.349   7.145  19.118  0.00  0.00    +0.000 NA
ATOM      2  C   UNL     1       1.843   6.470  20.305  0.00  0.00    +0.000 C 
ATOM      3  C   UNL     1       2.726   5.229  20.436  0.00  0.00    +0.000 C 
ATOM      4  C   UNL     1       3.037   4.795  18.989  0.00  0.00    +0.000 C 
ATOM      5  C   UNL     1       2.029   3.709  18.575  0.00  0.00    +0.000 C 
ATOM      6  C   UNL     1       2.887   6.123  18.225  0.00  0.00    +0.000 C 
ENDROOT
BRANCH   1   7
ATOM      7  C   UNL     1       1.390   7.986  18.398  0.00  0.00    +0.000 C 
BRANCH   7  11
ATOM      8  C   UNL     1       1.629  12.205  19.283  0.00  0.00    +0.000 A 
ATOM      9  C   UNL     1       2.285  11.650  18.183  0.00  0.00    +0.000 A 
ATOM     10  C   UNL     1       2.174  10.294  17.917  0.00  0.00    +0.000 A 
ATOM     11  C   UNL     1       1.423   9.455  18.755  0.00  0.00    +0.000 A 
ATOM     12  C   UNL     1       0.805   9.987  19.919  0.00  0.00    +0.000 A 
ATOM     13  C   UNL     1       0.104   9.185  20.852  0.00  0.00    +0.000 A 
ATOM     14  C   UNL     1      -0.500   9.723  21.987  0.00  0.00    +0.000 A 
ATOM     15  C   UNL     1      -0.423  11.083  22.221  0.00  0.00    +0.000 A 
ATOM     16  C   UNL     1       0.271  11.900  21.331  0.00  0.00    +0.000 A 
ATOM     17  C   UNL     1       0.903  11.380  20.178  0.00  0.00    +0.000 A 
BRANCH   8  19
ATOM     18  C   UNL     1       2.969  13.984  20.088  0.00  0.00    +0.000 C 
ATOM     19  O   UNL     1       1.711  13.547  19.581  0.00  0.00    +0.000 OA
ENDBRANCH   8  19
ENDBRANCH   7  11
ENDBRANCH   1   7
BRANCH   4  20
ATOM     20  O   UNL     1       4.374   4.256  18.941  0.00  0.00    +0.000 OA
BRANCH  20  21
ATOM     21  C   UNL     1       5.246   4.654  17.955  0.00  0.00    +0.000 A 
ATOM     22  C   UNL     1       6.287   5.592  18.099  0.00  0.00    +0.000 A 
ATOM     23  C   UNL     1       7.148   5.909  17.048  0.00  0.00    +0.000 A 
ATOM     24  C   UNL     1       6.931   5.282  15.848  0.00  0.00    +0.000 A 
ATOM     25  C   UNL     1       5.921   4.368  15.683  0.00  0.00    +0.000 A 
ATOM     26  C   UNL     1       5.071   4.024  16.717  0.00  0.00    +0.000 A 
ATOM     27  O   UNL     1       5.885   3.880  14.413  0.00  0.00    +0.000 OA
ATOM     28  C   UNL     1       6.988   4.592  13.812  0.00  0.00    +0.000 C 
ATOM     29  O   UNL     1       7.663   5.481  14.723  0.00  0.00    +0.000 OA
ENDBRANCH  20  21
ENDBRANCH   4  20
TORSDOF 5
ENDMDL
MODEL 8
REMARK VINA RESULT:      -8.1      2.360      8.536
REMARK  Name = 
REMARK  7 active torsions:
REMARK  status: ('A' for Active; 'I' for Inactive)
REMARK    1  A    between atoms: C_1  and  O_2
REMARK    2  A    between atoms: O_2  and  C_3
REMARK    3  A    between atoms: C_6  and  C_7
REMARK    4  A    between atoms: C_7  and  N_8
REMARK    5  A    between atoms: C_11  and  C_12
REMARK    6  A    between atoms: C_11  and  O_13
REMARK    7  A    between atoms: O_13  and  C_14
REMARK                            x       y       z     vdW  Elec       q    Type
REMARK                         _______ _______ _______ _____ _____    ______ ____
ROOT
ATOM      1  N   UNL     1       2.913   3.692  18.270  0.00  0.00    +0.000 NA
ATOM      2  C   UNL     1       1.635   3.012  18.428  0.00  0.00    +0.000 C 
ATOM      3  C   UNL     1       0.952   3.757  19.573  0.00  0.00    +0.000 C 
ATOM      4  C   UNL     1       2.090   4.166  20.530  0.00  0.00    +0.000 C 
ATOM      5  C   UNL     1       2.203   3.106  21.640  0.00  0.00    +0.000 C 
ATOM      6  C   UNL     1       3.297   4.217  19.577  0.00  0.00    +0.000 C 
ENDROOT
BRANCH   1   7
ATOM      7  C   UNL     1       4.004   2.891  17.711  0.00  0.00    +0.000 C 
BRANCH   7  11
ATOM      8  C   UNL     1       6.835   4.956  15.187  0.00  0.00    +0.000 A 
ATOM      9  C   UNL     1       5.959   4.000  14.673  0.00  0.00    +0.000 A 
ATOM     10  C   UNL     1       5.051   3.366  15.508  0.00  0.00    +0.000 A 
ATOM     11  C   UNL     1       5.009   3.658  16.880  0.00  0.00    +0.000 A 
ATOM     12  C   UNL     1       5.939   4.577  17.436  0.00  0.00    +0.000 A 
ATOM     13  C   UNL     1       6.010   4.855  18.823  0.00  0.00    +0.000 A 
ATOM     14  C   UNL     1       6.925   5.763  19.353  0.00  0.00    +0.000 A 
ATOM     15  C   UNL     1       7.797   6.423  18.507  0.00  0.00    +0.000 A 
ATOM     16  C   UNL     1       7.764   6.164  17.139  0.00  0.00    +0.000 A 
ATOM     17  C   UNL     1       6.855   5.239  16.576  0.00  0.00    +0.000 A 
BRANCH   8  19
ATOM     18  C   UNL     1       7.759   5.216  13.023  0.00  0.00    +0.000 C 
ATOM     19  O   UNL     1       7.750   5.609  14.392  0.00  0.00    +0.000 OA
ENDBRANCH   8  19
ENDBRANCH   7  11
ENDBRANCH   1   7
BRANCH   4  20
ATOM     20  O   UNL     1       1.770   5.446  21.115  0.00  0.00    +0.000 OA
BRANCH  20  21
ATOM     21  C   UNL     1       1.811   6.587  20.350  0.00  0.00    +0.000 A 
ATOM     22  C   UNL     1       2.399   6.708  19.075  0.00  0.00    +0.000 A 
ATOM     23  C   UNL     1       2.361   7.902  18.355  0.00  0.00    +0.000 A 
ATOM     24  C   UNL     1       1.742   8.973  18.944  0.00  0.00    +0.000 A 
ATOM     25  C   UNL     1       1.166   8.880  20.187  0.00  0.00    +0.000 A 
ATOM     26  C   UNL     1       1.173   7.701  20.908  0.00  0.00    +0.000 A 
ATOM     27  O   UNL     1       0.617  10.062  20.579  0.00  0.00    +0.000 OA
ATOM     28  C   UNL     1       0.916  10.897  19.439  0.00  0.00    +0.000 C 
ATOM     29  O   UNL     1       1.625  10.207  18.391  0.00  0.00    +0.000 OA
ENDBRANCH  20  21
ENDBRANCH   4  20
TORSDOF 5
ENDMDL
MODEL 9
REMARK VINA RESULT:      -8.1      1.688      2.320
REMARK  Name = 
REMARK  7 active torsions:
REMARK  status: ('A' for Active; 'I' for Inactive)
REMARK    1  A    between atoms: C_1  and  O_2
REMARK    2  A    between atoms: O_2  and  C_3
REMARK    3  A    between atoms: C_6  and  C_7
REMARK    4  A    between atoms: C_7  and  N_8
REMARK    5  A    between atoms: C_11  and  C_12
REMARK    6  A    between atoms: C_11  and  O_13
REMARK    7  A    between atoms: O_13  and  C_14
REMARK                            x       y       z     vdW  Elec       q    Type
REMARK                         _______ _______ _______ _____ _____    ______ ____
ROOT
ATOM      1  N   UNL     1       2.318   8.482  18.713  0.00  0.00    +0.000 NA
ATOM      2  C   UNL     1       1.604   7.932  19.856  0.00  0.00    +0.000 C 
ATOM      3  C   UNL     1       2.364   6.649  20.192  0.00  0.00    +0.000 C 
ATOM      4  C   UNL     1       2.838   6.090  18.835  0.00  0.00    +0.000 C 
ATOM      5  C   UNL     1       1.818   5.044  18.351  0.00  0.00    +0.000 C 
ATOM      6  C   UNL     1       2.896   7.364  17.973  0.00  0.00    +0.000 C 
ENDROOT
BRANCH   1   7
ATOM      7  C   UNL     1       1.533   9.328  17.811  0.00  0.00    +0.000 C 
BRANCH   7  11
ATOM      8  C   UNL     1      -0.867  12.373  19.710  0.00  0.00    +0.000 A 
ATOM      9  C   UNL     1      -1.356  11.084  19.498  0.00  0.00    +0.000 A 
ATOM     10  C   UNL     1      -0.554  10.125  18.900  0.00  0.00    +0.000 A 
ATOM     11  C   UNL     1       0.750  10.435  18.481  0.00  0.00    +0.000 A 
ATOM     12  C   UNL     1       1.242  11.760  18.625  0.00  0.00    +0.000 A 
ATOM     13  C   UNL     1       2.513  12.164  18.149  0.00  0.00    +0.000 A 
ATOM     14  C   UNL     1       2.984  13.467  18.302  0.00  0.00    +0.000 A 
ATOM     15  C   UNL     1       2.194  14.406  18.939  0.00  0.00    +0.000 A 
ATOM     16  C   UNL     1       0.933  14.047  19.408  0.00  0.00    +0.000 A 
ATOM     17  C   UNL     1       0.426  12.736  19.256  0.00  0.00    +0.000 A 
BRANCH   8  19
ATOM     18  C   UNL     1      -2.990  13.005  20.548  0.00  0.00    +0.000 C 
ATOM     19  O   UNL     1      -1.630  13.355  20.303  0.00  0.00    +0.000 OA
ENDBRANCH   8  19
ENDBRANCH   7  11
ENDBRANCH   1   7
BRANCH   4  20
ATOM     20  O   UNL     1       4.125   5.462  19.013  0.00  0.00    +0.000 OA
BRANCH  20  21
ATOM     21  C   UNL     1       5.064   5.512  18.010  0.00  0.00    +0.000 A 
ATOM     22  C   UNL     1       6.285   6.215  18.052  0.00  0.00    +0.000 A 
ATOM     23  C   UNL     1       7.195   6.179  16.996  0.00  0.00    +0.000 A 
ATOM     24  C   UNL     1       6.849   5.443  15.892  0.00  0.00    +0.000 A 
ATOM     25  C   UNL     1       5.664   4.753  15.827  0.00  0.00    +0.000 A 
ATOM     26  C   UNL     1       4.758   4.757  16.871  0.00  0.00    +0.000 A 
ATOM     27  O   UNL     1       5.525   4.100  14.641  0.00  0.00    +0.000 OA
ATOM     28  C   UNL     1       6.759   4.461  13.981  0.00  0.00    +0.000 C 
ATOM     29  O   UNL     1       7.609   5.309  14.776  0.00  0.00    +0.000 OA
ENDBRANCH  20  21
ENDBRANCH   4  20
TORSDOF 5
ENDMDL
