MODEL 1
REMARK VINA RESULT:      -7.4      0.000      0.000
REMARK  Name = 
REMARK  6 active torsions:
REMARK  status: ('A' for Active; 'I' for Inactive)
REMARK    1  A    between atoms: C_1  and  O_2
REMARK    2  A    between atoms: O_2  and  C_3
REMARK    3  A    between atoms: C_5  and  O_6
REMARK    4  A    between atoms: O_6  and  C_7
REMARK    5  A    between atoms: C_17  and  C_18
REMARK    6  A    between atoms: C_17  and  O_19
REMARK                            x       y       z     vdW  Elec       q    Type
REMARK                         _______ _______ _______ _____ _____    ______ ____
ROOT
ATOM      1  C   UNL     1       6.445   4.394  14.628  0.00  0.00    +0.000 A 
ATOM      2  C   UNL     1       7.216   5.213  15.441  0.00  0.00    +0.000 A 
ATOM      3  C   UNL     1       6.831   5.560  16.754  0.00  0.00    +0.000 A 
ATOM      4  C   UNL     1       5.614   5.058  17.261  0.00  0.00    +0.000 A 
ATOM      5  C   UNL     1       4.805   4.271  16.409  0.00  0.00    +0.000 A 
ATOM      6  C   UNL     1       5.218   3.952  15.103  0.00  0.00    +0.000 A 
ATOM      7  C   UNL     1       3.500   3.718  16.854  0.00  0.00    +0.000 C 
ATOM      8  O   UNL     1       2.853   2.964  16.141  0.00  0.00    +0.000 OA
ATOM      9  C   UNL     1       2.993   4.114  18.183  0.00  0.00    +0.000 C 
ATOM     10  C   UNL     1       3.741   4.869  18.992  0.00  0.00    +0.000 C 
ATOM     11  C   UNL     1       3.274   5.312  20.348  0.00  0.00    +0.000 C 
ATOM     12  O   UNL     1       1.887   5.043  20.577  0.00  0.00    +0.000 OA
ATOM     13  C   UNL     1       1.479   3.740  20.169  0.00  0.00    +0.000 C 
ATOM     14  C   UNL     1       2.191   2.643  20.968  0.00  0.00    +0.000 C 
ATOM     15  C   UNL     1       1.655   3.602  18.641  0.00  0.00    +0.000 C 
ATOM     16  C   UNL     1       5.135   5.230  18.655  0.00  0.00    +0.000 C 
ATOM     17  O   UNL     1       5.852   5.574  19.581  0.00  0.00    +0.000 OA
ENDROOT
BRANCH   1  19
ATOM     18  C   UNL     1       5.728   3.440  12.591  0.00  0.00    +0.000 C 
ATOM     19  O   UNL     1       6.785   4.010  13.362  0.00  0.00    +0.000 OA
ENDBRANCH   1  19
BRANCH   3  20
ATOM     20  O   UNL     1       7.804   6.367  17.269  0.00  0.00    +0.000 OA
ATOM     21  C   UNL     1       7.654   7.748  17.513  0.00  0.00    +0.000 C 
ENDBRANCH   3  20
BRANCH  13  22
ATOM     22  O   UNL     1       0.091   3.651  20.464  0.00  0.00    +0.000 OA
ATOM     23  H   UNL     1      -0.092   4.424  21.025  0.00  0.00    +0.000 HD
ENDBRANCH  13  22
TORSDOF 3
ENDMDL
MODEL 2
REMARK VINA RESULT:      -7.0      2.132      6.617
REMARK  Name = 
REMARK  6 active torsions:
REMARK  status: ('A' for Active; 'I' for Inactive)
REMARK    1  A    between atoms: C_1  and  O_2
REMARK    2  A    between atoms: O_2  and  C_3
REMARK    3  A    between atoms: C_5  and  O_6
REMARK    4  A    between atoms: O_6  and  C_7
REMARK    5  A    between atoms: C_17  and  C_18
REMARK    6  A    between atoms: C_17  and  O_19
REMARK                            x       y       z     vdW  Elec       q    Type
REMARK                         _______ _______ _______ _____ _____    ______ ____
ROOT
ATOM      1  C   UNL     1       1.428   7.079  20.587  0.00  0.00    +0.000 A 
ATOM      2  C   UNL     1       1.182   5.740  20.861  0.00  0.00    +0.000 A 
ATOM      3  C   UNL     1       1.821   4.693  20.162  0.00  0.00    +0.000 A 
ATOM      4  C   UNL     1       2.742   5.016  19.146  0.00  0.00    +0.000 A 
ATOM      5  C   UNL     1       2.946   6.380  18.832  0.00  0.00    +0.000 A 
ATOM      6  C   UNL     1       2.285   7.397  19.544  0.00  0.00    +0.000 A 
ATOM      7  C   UNL     1       3.884   6.809  17.763  0.00  0.00    +0.000 C 
ATOM      8  O   UNL     1       4.121   7.992  17.563  0.00  0.00    +0.000 OA
ATOM      9  C   UNL     1       4.518   5.766  16.933  0.00  0.00    +0.000 C 
ATOM     10  C   UNL     1       4.322   4.474  17.209  0.00  0.00    +0.000 C 
ATOM     11  C   UNL     1       4.931   3.369  16.393  0.00  0.00    +0.000 C 
ATOM     12  O   UNL     1       5.534   3.836  15.182  0.00  0.00    +0.000 OA
ATOM     13  C   UNL     1       6.332   5.004  15.349  0.00  0.00    +0.000 C 
ATOM     14  C   UNL     1       7.532   4.747  16.268  0.00  0.00    +0.000 C 
ATOM     15  C   UNL     1       5.439   6.175  15.815  0.00  0.00    +0.000 C 
ATOM     16  C   UNL     1       3.581   4.036  18.411  0.00  0.00    +0.000 C 
ATOM     17  O   UNL     1       3.774   2.891  18.790  0.00  0.00    +0.000 OA
ENDROOT
BRANCH   1  19
ATOM     18  C   UNL     1       0.732   9.333  20.495  0.00  0.00    +0.000 C 
ATOM     19  O   UNL     1       0.855   8.127  21.249  0.00  0.00    +0.000 OA
ENDBRANCH   1  19
BRANCH   3  20
ATOM     20  O   UNL     1       1.359   3.515  20.675  0.00  0.00    +0.000 OA
ATOM     21  C   UNL     1       1.940   2.831  21.762  0.00  0.00    +0.000 C 
ENDBRANCH   3  20
BRANCH  13  22
ATOM     22  O   UNL     1       6.841   5.322  14.060  0.00  0.00    +0.000 OA
ATOM     23  H   UNL     1       7.801   5.407  14.188  0.00  0.00    +0.000 HD
ENDBRANCH  13  22
TORSDOF 3
ENDMDL
MODEL 3
REMARK VINA RESULT:      -7.0      1.285      3.567
REMARK  Name = 
REMARK  6 active torsions:
REMARK  status: ('A' for Active; 'I' for Inactive)
REMARK    1  A    between atoms: C_1  and  O_2
REMARK    2  A    between atoms: O_2  and  C_3
REMARK    3  A    between atoms: C_5  and  O_6
REMARK    4  A    between atoms: O_6  and  C_7
REMARK    5  A    between atoms: C_17  and  C_18
REMARK    6  A    between atoms: C_17  and  O_19
REMARK                            x       y       z     vdW  Elec       q    Type
REMARK                         _______ _______ _______ _____ _____    ______ ____
ROOT
ATOM      1  C   UNL     1       6.883   6.152  16.524  0.00  0.00    +0.000 A 
ATOM      2  C   UNL     1       6.399   5.469  15.416  0.00  0.00    +0.000 A 
ATOM      3  C   UNL     1       5.319   4.563  15.495  0.00  0.00    +0.000 A 
ATOM      4  C   UNL     1       4.709   4.340  16.746  0.00  0.00    +0.000 A 
ATOM      5  C   UNL     1       5.243   4.993  17.880  0.00  0.00    +0.000 A 
ATOM      6  C   UNL     1       6.325   5.884  17.765  0.00  0.00    +0.000 A 
ATOM      7  C   UNL     1       4.673   4.801  19.239  0.00  0.00    +0.000 C 
ATOM      8  O   UNL     1       5.084   5.442  20.196  0.00  0.00    +0.000 OA
ATOM      9  C   UNL     1       3.601   3.801  19.409  0.00  0.00    +0.000 C 
ATOM     10  C   UNL     1       3.098   3.165  18.348  0.00  0.00    +0.000 C 
ATOM     11  C   UNL     1       2.016   2.129  18.461  0.00  0.00    +0.000 C 
ATOM     12  O   UNL     1       1.755   1.739  19.813  0.00  0.00    +0.000 OA
ATOM     13  C   UNL     1       1.673   2.833  20.722  0.00  0.00    +0.000 C 
ATOM     14  C   UNL     1       0.502   3.765  20.388  0.00  0.00    +0.000 C 
ATOM     15  C   UNL     1       3.037   3.555  20.782  0.00  0.00    +0.000 C 
ATOM     16  C   UNL     1       3.493   3.518  16.967  0.00  0.00    +0.000 C 
ATOM     17  O   UNL     1       2.732   3.179  16.075  0.00  0.00    +0.000 OA
ENDROOT
BRANCH   1  19
ATOM     18  C   UNL     1       7.887   8.035  17.532  0.00  0.00    +0.000 C 
ATOM     19  O   UNL     1       7.908   7.055  16.496  0.00  0.00    +0.000 OA
ENDBRANCH   1  19
BRANCH   3  20
ATOM     20  O   UNL     1       5.100   4.073  14.240  0.00  0.00    +0.000 OA
ATOM     21  C   UNL     1       6.115   3.768  13.310  0.00  0.00    +0.000 C 
ENDBRANCH   3  20
BRANCH  13  22
ATOM     22  O   UNL     1       1.416   2.265  22.000  0.00  0.00    +0.000 OA
ATOM     23  H   UNL     1       0.510   2.543  22.216  0.00  0.00    +0.000 HD
ENDBRANCH  13  22
TORSDOF 3
ENDMDL
MODEL 4
REMARK VINA RESULT:      -6.9      4.085      7.264
REMARK  Name = 
REMARK  6 active torsions:
REMARK  status: ('A' for Active; 'I' for Inactive)
REMARK    1  A    between atoms: C_1  and  O_2
REMARK    2  A    between atoms: O_2  and  C_3
REMARK    3  A    between atoms: C_5  and  O_6
REMARK    4  A    between atoms: O_6  and  C_7
REMARK    5  A    between atoms: C_17  and  C_18
REMARK    6  A    between atoms: C_17  and  O_19
REMARK                            x       y       z     vdW  Elec       q    Type
REMARK                         _______ _______ _______ _____ _____    ______ ____
ROOT
ATOM      1  C   UNL     1       0.005   9.068  21.561  0.00  0.00    +0.000 A 
ATOM      2  C   UNL     1       0.185  10.025  20.572  0.00  0.00    +0.000 A 
ATOM      3  C   UNL     1       1.020   9.814  19.454  0.00  0.00    +0.000 A 
ATOM      4  C   UNL     1       1.699   8.585  19.335  0.00  0.00    +0.000 A 
ATOM      5  C   UNL     1       1.557   7.636  20.373  0.00  0.00    +0.000 A 
ATOM      6  C   UNL     1       0.723   7.884  21.478  0.00  0.00    +0.000 A 
ATOM      7  C   UNL     1       2.252   6.323  20.338  0.00  0.00    +0.000 C 
ATOM      8  O   UNL     1       2.050   5.474  21.196  0.00  0.00    +0.000 OA
ATOM      9  C   UNL     1       3.210   6.071  19.244  0.00  0.00    +0.000 C 
ATOM     10  C   UNL     1       3.364   6.965  18.265  0.00  0.00    +0.000 C 
ATOM     11  C   UNL     1       4.331   6.769  17.132  0.00  0.00    +0.000 C 
ATOM     12  O   UNL     1       5.213   5.661  17.336  0.00  0.00    +0.000 OA
ATOM     13  C   UNL     1       4.562   4.487  17.815  0.00  0.00    +0.000 C 
ATOM     14  C   UNL     1       3.543   3.949  16.804  0.00  0.00    +0.000 C 
ATOM     15  C   UNL     1       3.959   4.766  19.209  0.00  0.00    +0.000 C 
ATOM     16  C   UNL     1       2.509   8.167  18.163  0.00  0.00    +0.000 C 
ATOM     17  O   UNL     1       2.450   8.709  17.071  0.00  0.00    +0.000 OA
ENDROOT
BRANCH   1  19
ATOM     18  C   UNL     1      -0.970  10.554  23.115  0.00  0.00    +0.000 C 
ATOM     19  O   UNL     1      -0.809   9.214  22.649  0.00  0.00    +0.000 OA
ENDBRANCH   1  19
BRANCH   3  20
ATOM     20  O   UNL     1       0.971  10.941  18.685  0.00  0.00    +0.000 OA
ATOM     21  C   UNL     1       0.201  12.084  18.985  0.00  0.00    +0.000 C 
ENDBRANCH   3  20
BRANCH  13  22
ATOM     22  O   UNL     1       5.579   3.504  17.962  0.00  0.00    +0.000 OA
ATOM     23  H   UNL     1       6.301   3.963  18.423  0.00  0.00    +0.000 HD
ENDBRANCH  13  22
TORSDOF 3
ENDMDL
MODEL 5
REMARK VINA RESULT:      -6.7      3.899      5.811
REMARK  Name = 
REMARK  6 active torsions:
REMARK  status: ('A' for Active; 'I' for Inactive)
REMARK    1  A    between atoms: C_1  and  O_2
REMARK    2  A    between atoms: O_2  and  C_3
REMARK    3  A    between atoms: C_5  and  O_6
REMARK    4  A    between atoms: O_6  and  C_7
REMARK    5  A    between atoms: C_17  and  C_18
REMARK    6  A    between atoms: C_17  and  O_19
REMARK                            x       y       z     vdW  Elec       q    Type
REMARK                         _______ _______ _______ _____ _____    ______ ____
ROOT
ATOM      1  C   UNL     1       3.933   4.291  18.288  0.00  0.00    +0.000 A 
ATOM      2  C   UNL     1       3.460   3.997  19.560  0.00  0.00    +0.000 A 
ATOM      3  C   UNL     1       2.707   4.917  20.321  0.00  0.00    +0.000 A 
ATOM      4  C   UNL     1       2.424   6.184  19.771  0.00  0.00    +0.000 A 
ATOM      5  C   UNL     1       2.956   6.498  18.500  0.00  0.00    +0.000 A 
ATOM      6  C   UNL     1       3.709   5.559  17.773  0.00  0.00    +0.000 A 
ATOM      7  C   UNL     1       2.722   7.816  17.854  0.00  0.00    +0.000 C 
ATOM      8  O   UNL     1       3.109   8.043  16.716  0.00  0.00    +0.000 OA
ATOM      9  C   UNL     1       2.020   8.857  18.630  0.00  0.00    +0.000 C 
ATOM     10  C   UNL     1       1.525   8.577  19.839  0.00  0.00    +0.000 C 
ATOM     11  C   UNL     1       0.812   9.598  20.679  0.00  0.00    +0.000 C 
ATOM     12  O   UNL     1       0.922  10.926  20.158  0.00  0.00    +0.000 OA
ATOM     13  C   UNL     1       0.710  11.013  18.752  0.00  0.00    +0.000 C 
ATOM     14  C   UNL     1      -0.713  10.596  18.363  0.00  0.00    +0.000 C 
ATOM     15  C   UNL     1       1.808  10.214  18.016  0.00  0.00    +0.000 C 
ATOM     16  C   UNL     1       1.545   7.206  20.392  0.00  0.00    +0.000 C 
ATOM     17  O   UNL     1       0.757   6.966  21.293  0.00  0.00    +0.000 OA
ENDROOT
BRANCH   1  19
ATOM     18  C   UNL     1       5.183   3.992  16.308  0.00  0.00    +0.000 C 
ATOM     19  O   UNL     1       4.644   3.428  17.503  0.00  0.00    +0.000 OA
ENDBRANCH   1  19
BRANCH   3  20
ATOM     20  O   UNL     1       2.405   4.317  21.510  0.00  0.00    +0.000 OA
ATOM     21  C   UNL     1       1.934   2.995  21.644  0.00  0.00    +0.000 C 
ENDBRANCH   3  20
BRANCH  13  22
ATOM     22  O   UNL     1       0.861  12.386  18.414  0.00  0.00    +0.000 OA
ATOM     23  H   UNL     1       1.786  12.593  18.630  0.00  0.00    +0.000 HD
ENDBRANCH  13  22
TORSDOF 3
ENDMDL
MODEL 6
REMARK VINA RESULT:      -6.7      1.776      6.168
REMARK  Name = 
REMARK  6 active torsions:
REMARK  status: ('A' for Active; 'I' for Inactive)
REMARK    1  A    between atoms: C_1  and  O_2
REMARK    2  A    between atoms: O_2  and  C_3
REMARK    3  A    between atoms: C_5  and  O_6
REMARK    4  A    between atoms: O_6  and  C_7
REMARK    5  A    between atoms: C_17  and  C_18
REMARK    6  A    between atoms: C_17  and  O_19
REMARK                            x       y       z     vdW  Elec       q    Type
REMARK                         _______ _______ _______ _____ _____    ______ ____
ROOT
ATOM      1  C   UNL     1       1.852   4.195  20.676  0.00  0.00    +0.000 A 
ATOM      2  C   UNL     1       1.821   5.583  20.662  0.00  0.00    +0.000 A 
ATOM      3  C   UNL     1       2.488   6.348  19.681  0.00  0.00    +0.000 A 
ATOM      4  C   UNL     1       3.215   5.679  18.675  0.00  0.00    +0.000 A 
ATOM      5  C   UNL     1       3.291   4.268  18.727  0.00  0.00    +0.000 A 
ATOM      6  C   UNL     1       2.620   3.539  19.725  0.00  0.00    +0.000 A 
ATOM      7  C   UNL     1       4.051   3.485  17.719  0.00  0.00    +0.000 C 
ATOM      8  O   UNL     1       4.033   2.262  17.720  0.00  0.00    +0.000 OA
ATOM      9  C   UNL     1       4.845   4.223  16.717  0.00  0.00    +0.000 C 
ATOM     10  C   UNL     1       4.794   5.556  16.667  0.00  0.00    +0.000 C 
ATOM     11  C   UNL     1       5.588   6.361  15.679  0.00  0.00    +0.000 C 
ATOM     12  O   UNL     1       6.557   5.580  14.971  0.00  0.00    +0.000 OA
ATOM     13  C   UNL     1       6.058   4.330  14.505  0.00  0.00    +0.000 C 
ATOM     14  C   UNL     1       4.932   4.512  13.481  0.00  0.00    +0.000 C 
ATOM     15  C   UNL     1       5.658   3.453  15.712  0.00  0.00    +0.000 C 
ATOM     16  C   UNL     1       3.861   6.334  17.511  0.00  0.00    +0.000 C 
ATOM     17  O   UNL     1       3.604   7.470  17.143  0.00  0.00    +0.000 OA
ENDROOT
BRANCH   1  19
ATOM     18  C   UNL     1       1.804   2.138  21.833  0.00  0.00    +0.000 C 
ATOM     19  O   UNL     1       1.205   3.411  21.587  0.00  0.00    +0.000 OA
ENDBRANCH   1  19
BRANCH   3  20
ATOM     20  O   UNL     1       2.255   7.665  19.957  0.00  0.00    +0.000 OA
ATOM     21  C   UNL     1       1.276   8.135  20.856  0.00  0.00    +0.000 C 
ENDBRANCH   3  20
BRANCH  13  22
ATOM     22  O   UNL     1       7.143   3.696  13.839  0.00  0.00    +0.000 OA
ATOM     23  H   UNL     1       6.813   2.809  13.619  0.00  0.00    +0.000 HD
ENDBRANCH  13  22
TORSDOF 3
ENDMDL
MODEL 7
REMARK VINA RESULT:      -6.6      3.480      5.118
REMARK  Name = 
REMARK  6 active torsions:
REMARK  status: ('A' for Active; 'I' for Inactive)
REMARK    1  A    between atoms: C_1  and  O_2
REMARK    2  A    between atoms: O_2  and  C_3
REMARK    3  A    between atoms: C_5  and  O_6
REMARK    4  A    between atoms: O_6  and  C_7
REMARK    5  A    between atoms: C_17  and  C_18
REMARK    6  A    between atoms: C_17  and  O_19
REMARK                            x       y       z     vdW  Elec       q    Type
REMARK                         _______ _______ _______ _____ _____    ______ ____
ROOT
ATOM      1  C   UNL     1       4.589   4.278  17.279  0.00  0.00    +0.000 A 
ATOM      2  C   UNL     1       4.224   3.664  18.469  0.00  0.00    +0.000 A 
ATOM      3  C   UNL     1       3.425   4.305  19.441  0.00  0.00    +0.000 A 
ATOM      4  C   UNL     1       2.981   5.621  19.195  0.00  0.00    +0.000 A 
ATOM      5  C   UNL     1       3.404   6.262  18.008  0.00  0.00    +0.000 A 
ATOM      6  C   UNL     1       4.207   5.594  17.066  0.00  0.00    +0.000 A 
ATOM      7  C   UNL     1       2.999   7.653  17.679  0.00  0.00    +0.000 C 
ATOM      8  O   UNL     1       3.294   8.164  16.608  0.00  0.00    +0.000 OA
ATOM      9  C   UNL     1       2.239   8.414  18.689  0.00  0.00    +0.000 C 
ATOM     10  C   UNL     1       1.846   7.825  19.822  0.00  0.00    +0.000 C 
ATOM     11  C   UNL     1       1.081   8.552  20.891  0.00  0.00    +0.000 C 
ATOM     12  O   UNL     1       1.024   9.965  20.674  0.00  0.00    +0.000 OA
ATOM     13  C   UNL     1       0.723  10.330  19.330  0.00  0.00    +0.000 C 
ATOM     14  C   UNL     1      -0.670   9.849  18.907  0.00  0.00    +0.000 C 
ATOM     15  C   UNL     1       1.853   9.839  18.399  0.00  0.00    +0.000 C 
ATOM     16  C   UNL     1       2.039   6.378  20.057  0.00  0.00    +0.000 C 
ATOM     17  O   UNL     1       1.333   5.860  20.907  0.00  0.00    +0.000 OA
ENDROOT
BRANCH   1  19
ATOM     18  C   UNL     1       6.577   4.340  16.007  0.00  0.00    +0.000 C 
ATOM     19  O   UNL     1       5.339   3.692  16.299  0.00  0.00    +0.000 OA
ENDBRANCH   1  19
BRANCH   3  20
ATOM     20  O   UNL     1       3.255   3.432  20.476  0.00  0.00    +0.000 OA
ATOM     21  C   UNL     1       2.132   2.595  20.643  0.00  0.00    +0.000 C 
ENDBRANCH   3  20
BRANCH  13  22
ATOM     22  O   UNL     1       0.712  11.752  19.301  0.00  0.00    +0.000 OA
ATOM     23  H   UNL     1      -0.089  12.002  19.791  0.00  0.00    +0.000 HD
ENDBRANCH  13  22
TORSDOF 3
ENDMDL
MODEL 8
REMARK VINA RESULT:      -6.4      3.362      5.573
REMARK  Name = 
REMARK  6 active torsions:
REMARK  status: ('A' for Active; 'I' for Inactive)
REMARK    1  A    between atoms: C_1  and  O_2
REMARK    2  A    between atoms: O_2  and  C_3
REMARK    3  A    between atoms: C_5  and  O_6
REMARK    4  A    between atoms: O_6  and  C_7
REMARK    5  A    between atoms: C_17  and  C_18
REMARK    6  A    between atoms: C_17  and  O_19
REMARK                            x       y       z     vdW  Elec       q    Type
REMARK                         _______ _______ _______ _____ _____    ______ ____
ROOT
ATOM      1  C   UNL     1       2.313   9.298  18.204  0.00  0.00    +0.000 A 
ATOM      2  C   UNL     1       1.522   9.240  19.343  0.00  0.00    +0.000 A 
ATOM      3  C   UNL     1       1.310   8.043  20.061  0.00  0.00    +0.000 A 
ATOM      4  C   UNL     1       1.922   6.859  19.603  0.00  0.00    +0.000 A 
ATOM      5  C   UNL     1       2.679   6.911  18.410  0.00  0.00    +0.000 A 
ATOM      6  C   UNL     1       2.863   8.121  17.717  0.00  0.00    +0.000 A 
ATOM      7  C   UNL     1       3.343   5.707  17.846  0.00  0.00    +0.000 C 
ATOM      8  O   UNL     1       4.070   5.783  16.866  0.00  0.00    +0.000 OA
ATOM      9  C   UNL     1       3.091   4.405  18.494  0.00  0.00    +0.000 C 
ATOM     10  C   UNL     1       2.364   4.339  19.613  0.00  0.00    +0.000 C 
ATOM     11  C   UNL     1       2.065   3.043  20.310  0.00  0.00    +0.000 C 
ATOM     12  O   UNL     1       2.433   1.896  19.538  0.00  0.00    +0.000 OA
ATOM     13  C   UNL     1       3.718   1.998  18.931  0.00  0.00    +0.000 C 
ATOM     14  C   UNL     1       4.835   2.097  19.975  0.00  0.00    +0.000 C 
ATOM     15  C   UNL     1       3.716   3.164  17.918  0.00  0.00    +0.000 C 
ATOM     16  C   UNL     1       1.896   5.555  20.313  0.00  0.00    +0.000 C 
ATOM     17  O   UNL     1       1.590   5.429  21.488  0.00  0.00    +0.000 OA
ENDROOT
BRANCH   1  19
ATOM     18  C   UNL     1       2.285  11.658  18.166  0.00  0.00    +0.000 C 
ATOM     19  O   UNL     1       2.568  10.434  17.490  0.00  0.00    +0.000 OA
ENDBRANCH   1  19
BRANCH   3  20
ATOM     20  O   UNL     1       0.494   8.334  21.116  0.00  0.00    +0.000 OA
ATOM     21  C   UNL     1       0.843   9.177  22.190  0.00  0.00    +0.000 C 
ENDBRANCH   3  20
BRANCH  13  22
ATOM     22  O   UNL     1       3.911   0.787  18.211  0.00  0.00    +0.000 OA
ATOM     23  H   UNL     1       3.093   0.672  17.698  0.00  0.00    +0.000 HD
ENDBRANCH  13  22
TORSDOF 3
ENDMDL
MODEL 9
REMARK VINA RESULT:      -6.2      3.948      6.610
REMARK  Name = 
REMARK  6 active torsions:
REMARK  status: ('A' for Active; 'I' for Inactive)
REMARK    1  A    between atoms: C_1  and  O_2
REMARK    2  A    between atoms: O_2  and  C_3
REMARK    3  A    between atoms: C_5  and  O_6
REMARK    4  A    between atoms: O_6  and  C_7
REMARK    5  A    between atoms: C_17  and  C_18
REMARK    6  A    between atoms: C_17  and  O_19
REMARK                            x       y       z     vdW  Elec       q    Type
REMARK                         _______ _______ _______ _____ _____    ______ ____
ROOT
ATOM      1  C   UNL     1       1.024  10.489  18.989  0.00  0.00    +0.000 A 
ATOM      2  C   UNL     1       0.455   9.929  20.126  0.00  0.00    +0.000 A 
ATOM      3  C   UNL     1       0.728   8.608  20.539  0.00  0.00    +0.000 A 
ATOM      4  C   UNL     1       1.609   7.822  19.769  0.00  0.00    +0.000 A 
ATOM      5  C   UNL     1       2.140   8.377  18.581  0.00  0.00    +0.000 A 
ATOM      6  C   UNL     1       1.840   9.696  18.196  0.00  0.00    +0.000 A 
ATOM      7  C   UNL     1       3.061   7.613  17.700  0.00  0.00    +0.000 C 
ATOM      8  O   UNL     1       3.586   8.134  16.726  0.00  0.00    +0.000 OA
ATOM      9  C   UNL     1       3.318   6.196  18.023  0.00  0.00    +0.000 C 
ATOM     10  C   UNL     1       2.811   5.655  19.134  0.00  0.00    +0.000 C 
ATOM     11  C   UNL     1       3.029   4.217  19.509  0.00  0.00    +0.000 C 
ATOM     12  O   UNL     1       3.625   3.451  18.458  0.00  0.00    +0.000 OA
ATOM     13  C   UNL     1       4.718   4.104  17.817  0.00  0.00    +0.000 C 
ATOM     14  C   UNL     1       5.882   4.348  18.784  0.00  0.00    +0.000 C 
ATOM     15  C   UNL     1       4.213   5.388  17.123  0.00  0.00    +0.000 C 
ATOM     16  C   UNL     1       2.089   6.467  20.137  0.00  0.00    +0.000 C 
ATOM     17  O   UNL     1       2.002   6.000  21.262  0.00  0.00    +0.000 OA
ENDROOT
BRANCH   1  19
ATOM     18  C   UNL     1       1.972  12.597  18.511  0.00  0.00    +0.000 C 
ATOM     19  O   UNL     1       0.811  11.768  18.561  0.00  0.00    +0.000 OA
ENDBRANCH   1  19
BRANCH   3  20
ATOM     20  O   UNL     1       0.016   8.378  21.681  0.00  0.00    +0.000 OA
ATOM     21  C   UNL     1      -0.169   9.320  22.714  0.00  0.00    +0.000 C 
ENDBRANCH   3  20
BRANCH  13  22
ATOM     22  O   UNL     1       5.177   3.209  16.812  0.00  0.00    +0.000 OA
ATOM     23  H   UNL     1       4.805   2.347  17.060  0.00  0.00    +0.000 HD
ENDBRANCH  13  22
TORSDOF 3
ENDMDL
