MODEL 1
REMARK VINA RESULT:      -7.3      0.000      0.000
REMARK  Name = 
REMARK  3 active torsions:
REMARK  status: ('A' for Active; 'I' for Inactive)
REMARK    1  A    between atoms: C_2  and  N_3
REMARK    2  A    between atoms: N_4  and  C_5
REMARK    3  A    between atoms: N_12  and  C_13
REMARK                            x       y       z     vdW  Elec       q    Type
REMARK                         _______ _______ _______ _____ _____    ______ ____
ROOT
ATOM      1  O   UNL     1       4.927   6.477  16.155  0.00  0.00    +0.000 OA
ATOM      2  C   UNL     1       4.741   5.291  16.411  0.00  0.00    +0.000 C 
ATOM      3  N   UNL     1       5.128   4.247  15.590  0.00  0.00    +0.000 N 
ATOM      4  H   UNL     1       4.745   3.352  15.860  0.00  0.00    +0.000 HD
ENDROOT
BRANCH   3   5
ATOM      5  C   UNL     1       5.918   4.322  14.429  0.00  0.00    +0.000 A 
ATOM      6  C   UNL     1       7.095   5.070  14.349  0.00  0.00    +0.000 A 
ATOM      7  C   UNL     1       7.848   5.090  13.174  0.00  0.00    +0.000 A 
ATOM      8  C   UNL     1       7.430   4.367  12.062  0.00  0.00    +0.000 A 
ATOM      9  C   UNL     1       6.262   3.609  12.132  0.00  0.00    +0.000 A 
ATOM     10  C   UNL     1       5.514   3.577  13.313  0.00  0.00    +0.000 A 
ENDBRANCH   3   5
BRANCH   2  11
ATOM     11  N   UNL     1       4.128   4.911  17.588  0.00  0.00    +0.000 NA
ATOM     12  N   UNL     1       3.657   3.752  17.579  0.00  0.00    +0.000 NA
BRANCH  12  13
ATOM     13  C   UNL     1       2.946   3.487  18.771  0.00  0.00    +0.000 A 
ATOM     14  C   UNL     1       1.563   3.708  18.900  0.00  0.00    +0.000 A 
ATOM     15  C   UNL     1       0.892   3.388  20.085  0.00  0.00    +0.000 A 
ATOM     16  C   UNL     1       1.599   2.834  21.140  0.00  0.00    +0.000 A 
ATOM     17  F   UNL     1       0.959   2.515  22.270  0.00  0.00    +0.000 F 
ATOM     18  C   UNL     1       2.966   2.599  21.038  0.00  0.00    +0.000 A 
ATOM     19  C   UNL     1       3.636   2.924  19.854  0.00  0.00    +0.000 A 
ENDBRANCH  12  13
ENDBRANCH   2  11
TORSDOF 3
ENDMDL
MODEL 2
REMARK VINA RESULT:      -7.3      0.208      1.152
REMARK  Name = 
REMARK  3 active torsions:
REMARK  status: ('A' for Active; 'I' for Inactive)
REMARK    1  A    between atoms: C_2  and  N_3
REMARK    2  A    between atoms: N_4  and  C_5
REMARK    3  A    between atoms: N_12  and  C_13
REMARK                            x       y       z     vdW  Elec       q    Type
REMARK                         _______ _______ _______ _____ _____    ______ ____
ROOT
ATOM      1  O   UNL     1       4.835   6.236  16.193  0.00  0.00    +0.000 OA
ATOM      2  C   UNL     1       4.781   5.032  16.426  0.00  0.00    +0.000 C 
ATOM      3  N   UNL     1       5.259   4.051  15.575  0.00  0.00    +0.000 N 
ATOM      4  H   UNL     1       4.978   3.116  15.832  0.00  0.00    +0.000 HD
ENDROOT
BRANCH   3   5
ATOM      5  C   UNL     1       6.011   4.233  14.401  0.00  0.00    +0.000 A 
ATOM      6  C   UNL     1       7.140   5.053  14.333  0.00  0.00    +0.000 A 
ATOM      7  C   UNL     1       7.859   5.179  13.143  0.00  0.00    +0.000 A 
ATOM      8  C   UNL     1       7.453   4.490  12.005  0.00  0.00    +0.000 A 
ATOM      9  C   UNL     1       6.333   3.662  12.061  0.00  0.00    +0.000 A 
ATOM     10  C   UNL     1       5.620   3.524  13.257  0.00  0.00    +0.000 A 
ENDBRANCH   3   5
BRANCH   2  11
ATOM     11  N   UNL     1       4.237   4.565  17.606  0.00  0.00    +0.000 NA
ATOM     12  N   UNL     1       3.333   3.712  17.461  0.00  0.00    +0.000 NA
BRANCH  12  13
ATOM     13  C   UNL     1       2.751   3.378  18.705  0.00  0.00    +0.000 A 
ATOM     14  C   UNL     1       3.512   2.998  19.825  0.00  0.00    +0.000 A 
ATOM     15  C   UNL     1       2.898   2.719  21.050  0.00  0.00    +0.000 A 
ATOM     16  C   UNL     1       1.521   2.831  21.162  0.00  0.00    +0.000 A 
ATOM     17  F   UNL     1       0.930   2.577  22.335  0.00  0.00    +0.000 F 
ATOM     18  C   UNL     1       0.744   3.209  20.072  0.00  0.00    +0.000 A 
ATOM     19  C   UNL     1       1.361   3.484  18.847  0.00  0.00    +0.000 A 
ENDBRANCH  12  13
ENDBRANCH   2  11
TORSDOF 3
ENDMDL
MODEL 3
REMARK VINA RESULT:      -7.2      6.905      8.633
REMARK  Name = 
REMARK  3 active torsions:
REMARK  status: ('A' for Active; 'I' for Inactive)
REMARK    1  A    between atoms: C_2  and  N_3
REMARK    2  A    between atoms: N_4  and  C_5
REMARK    3  A    between atoms: N_12  and  C_13
REMARK                            x       y       z     vdW  Elec       q    Type
REMARK                         _______ _______ _______ _____ _____    ______ ____
ROOT
ATOM      1  O   UNL     1       8.235   6.878  18.767  0.00  0.00    +0.000 OA
ATOM      2  C   UNL     1       7.859   7.731  17.969  0.00  0.00    +0.000 C 
ATOM      3  N   UNL     1       6.951   7.499  16.950  0.00  0.00    +0.000 N 
ATOM      4  H   UNL     1       6.887   8.254  16.282  0.00  0.00    +0.000 HD
ENDROOT
BRANCH   3   5
ATOM      5  C   UNL     1       6.193   6.336  16.732  0.00  0.00    +0.000 A 
ATOM      6  C   UNL     1       6.627   5.276  15.933  0.00  0.00    +0.000 A 
ATOM      7  C   UNL     1       5.838   4.136  15.771  0.00  0.00    +0.000 A 
ATOM      8  C   UNL     1       4.601   4.046  16.401  0.00  0.00    +0.000 A 
ATOM      9  C   UNL     1       4.160   5.093  17.208  0.00  0.00    +0.000 A 
ATOM     10  C   UNL     1       4.956   6.230  17.383  0.00  0.00    +0.000 A 
ENDBRANCH   3   5
BRANCH   2  11
ATOM     11  N   UNL     1       8.320   9.030  18.055  0.00  0.00    +0.000 NA
ATOM     12  N   UNL     1       9.012   9.271  19.069  0.00  0.00    +0.000 NA
BRANCH  12  13
ATOM     13  C   UNL     1       9.341  10.643  19.140  0.00  0.00    +0.000 A 
ATOM     14  C   UNL     1       9.695  11.281  20.343  0.00  0.00    +0.000 A 
ATOM     15  C   UNL     1      10.059  12.631  20.360  0.00  0.00    +0.000 A 
ATOM     16  C   UNL     1      10.082  13.345  19.173  0.00  0.00    +0.000 A 
ATOM     17  F   UNL     1      10.441  14.634  19.183  0.00  0.00    +0.000 F 
ATOM     18  C   UNL     1       9.742  12.739  17.968  0.00  0.00    +0.000 A 
ATOM     19  C   UNL     1       9.374  11.389  17.954  0.00  0.00    +0.000 A 
ENDBRANCH  12  13
ENDBRANCH   2  11
TORSDOF 3
ENDMDL
MODEL 4
REMARK VINA RESULT:      -7.1      6.915      8.601
REMARK  Name = 
REMARK  3 active torsions:
REMARK  status: ('A' for Active; 'I' for Inactive)
REMARK    1  A    between atoms: C_2  and  N_3
REMARK    2  A    between atoms: N_4  and  C_5
REMARK    3  A    between atoms: N_12  and  C_13
REMARK                            x       y       z     vdW  Elec       q    Type
REMARK                         _______ _______ _______ _____ _____    ______ ____
ROOT
ATOM      1  O   UNL     1       8.235   6.898  18.772  0.00  0.00    +0.000 OA
ATOM      2  C   UNL     1       7.860   7.725  17.946  0.00  0.00    +0.000 C 
ATOM      3  N   UNL     1       6.916   7.473  16.965  0.00  0.00    +0.000 N 
ATOM      4  H   UNL     1       6.854   8.198  16.264  0.00  0.00    +0.000 HD
ENDROOT
BRANCH   3   5
ATOM      5  C   UNL     1       6.118   6.324  16.824  0.00  0.00    +0.000 A 
ATOM      6  C   UNL     1       4.860   6.188  17.416  0.00  0.00    +0.000 A 
ATOM      7  C   UNL     1       4.104   5.030  17.223  0.00  0.00    +0.000 A 
ATOM      8  C   UNL     1       4.600   3.993  16.440  0.00  0.00    +0.000 A 
ATOM      9  C   UNL     1       5.850   4.121  15.837  0.00  0.00    +0.000 A 
ATOM     10  C   UNL     1       6.602   5.285  16.018  0.00  0.00    +0.000 A 
ENDBRANCH   3   5
BRANCH   2  11
ATOM     11  N   UNL     1       8.361   9.011  17.957  0.00  0.00    +0.000 NA
ATOM     12  N   UNL     1       8.953   9.330  19.011  0.00  0.00    +0.000 NA
BRANCH  12  13
ATOM     13  C   UNL     1       9.328  10.692  18.987  0.00  0.00    +0.000 A 
ATOM     14  C   UNL     1       8.971  11.563  17.941  0.00  0.00    +0.000 A 
ATOM     15  C   UNL     1       9.324  12.916  17.980  0.00  0.00    +0.000 A 
ATOM     16  C   UNL     1      10.026  13.405  19.071  0.00  0.00    +0.000 A 
ATOM     17  F   UNL     1      10.355  14.701  19.118  0.00  0.00    +0.000 F 
ATOM     18  C   UNL     1      10.387  12.568  20.121  0.00  0.00    +0.000 A 
ATOM     19  C   UNL     1      10.037  11.215  20.078  0.00  0.00    +0.000 A 
ENDBRANCH  12  13
ENDBRANCH   2  11
TORSDOF 3
ENDMDL
MODEL 5
REMARK VINA RESULT:      -7.1      0.224      1.155
REMARK  Name = 
REMARK  3 active torsions:
REMARK  status: ('A' for Active; 'I' for Inactive)
REMARK    1  A    between atoms: C_2  and  N_3
REMARK    2  A    between atoms: N_4  and  C_5
REMARK    3  A    between atoms: N_12  and  C_13
REMARK                            x       y       z     vdW  Elec       q    Type
REMARK                         _______ _______ _______ _____ _____    ______ ____
ROOT
ATOM      1  O   UNL     1       5.125   6.341  16.216  0.00  0.00    +0.000 OA
ATOM      2  C   UNL     1       4.925   5.150  16.434  0.00  0.00    +0.000 C 
ATOM      3  N   UNL     1       5.260   4.131  15.561  0.00  0.00    +0.000 N 
ATOM      4  H   UNL     1       4.869   3.234  15.811  0.00  0.00    +0.000 HD
ENDROOT
BRANCH   3   5
ATOM      5  C   UNL     1       6.008   4.235  14.374  0.00  0.00    +0.000 A 
ATOM      6  C   UNL     1       5.689   3.543  13.204  0.00  0.00    +0.000 A 
ATOM      7  C   UNL     1       6.457   3.704  12.050  0.00  0.00    +0.000 A 
ATOM      8  C   UNL     1       7.558   4.554  12.055  0.00  0.00    +0.000 A 
ATOM      9  C   UNL     1       7.882   5.257  13.214  0.00  0.00    +0.000 A 
ATOM     10  C   UNL     1       7.105   5.108  14.367  0.00  0.00    +0.000 A 
ENDBRANCH   3   5
BRANCH   2  11
ATOM     11  N   UNL     1       4.348   4.737  17.619  0.00  0.00    +0.000 NA
ATOM     12  N   UNL     1       3.400   3.932  17.483  0.00  0.00    +0.000 NA
BRANCH  12  13
ATOM     13  C   UNL     1       2.792   3.654  18.728  0.00  0.00    +0.000 A 
ATOM     14  C   UNL     1       1.457   3.989  19.017  0.00  0.00    +0.000 A 
ATOM     15  C   UNL     1       0.881   3.654  20.247  0.00  0.00    +0.000 A 
ATOM     16  C   UNL     1       1.636   2.972  21.188  0.00  0.00    +0.000 A 
ATOM     17  F   UNL     1       1.086   2.638  22.361  0.00  0.00    +0.000 F 
ATOM     18  C   UNL     1       2.957   2.623  20.928  0.00  0.00    +0.000 A 
ATOM     19  C   UNL     1       3.532   2.963  19.698  0.00  0.00    +0.000 A 
ENDBRANCH  12  13
ENDBRANCH   2  11
TORSDOF 3
ENDMDL
MODEL 6
REMARK VINA RESULT:      -7.1      6.885      8.557
REMARK  Name = 
REMARK  3 active torsions:
REMARK  status: ('A' for Active; 'I' for Inactive)
REMARK    1  A    between atoms: C_2  and  N_3
REMARK    2  A    between atoms: N_4  and  C_5
REMARK    3  A    between atoms: N_12  and  C_13
REMARK                            x       y       z     vdW  Elec       q    Type
REMARK                         _______ _______ _______ _____ _____    ______ ____
ROOT
ATOM      1  O   UNL     1       8.255   6.896  18.723  0.00  0.00    +0.000 OA
ATOM      2  C   UNL     1       7.842   7.747  17.941  0.00  0.00    +0.000 C 
ATOM      3  N   UNL     1       6.906   7.506  16.951  0.00  0.00    +0.000 N 
ATOM      4  H   UNL     1       6.811   8.262  16.287  0.00  0.00    +0.000 HD
ENDROOT
BRANCH   3   5
ATOM      5  C   UNL     1       6.156   6.334  16.753  0.00  0.00    +0.000 A 
ATOM      6  C   UNL     1       6.571   5.289  15.924  0.00  0.00    +0.000 A 
ATOM      7  C   UNL     1       5.792   4.139  15.783  0.00  0.00    +0.000 A 
ATOM      8  C   UNL     1       4.585   4.023  16.465  0.00  0.00    +0.000 A 
ATOM      9  C   UNL     1       4.164   5.055  17.302  0.00  0.00    +0.000 A 
ATOM     10  C   UNL     1       4.950   6.202  17.455  0.00  0.00    +0.000 A 
ENDBRANCH   3   5
BRANCH   2  11
ATOM     11  N   UNL     1       8.289   9.051  18.016  0.00  0.00    +0.000 NA
ATOM     12  N   UNL     1       9.006   9.299  19.011  0.00  0.00    +0.000 NA
BRANCH  12  13
ATOM     13  C   UNL     1       9.320  10.675  19.076  0.00  0.00    +0.000 A 
ATOM     14  C   UNL     1       9.250  11.527  17.958  0.00  0.00    +0.000 A 
ATOM     15  C   UNL     1       9.525  12.893  18.078  0.00  0.00    +0.000 A 
ATOM     16  C   UNL     1       9.860  13.414  19.318  0.00  0.00    +0.000 A 
ATOM     17  F   UNL     1      10.113  14.722  19.439  0.00  0.00    +0.000 F 
ATOM     18  C   UNL     1       9.933  12.596  20.440  0.00  0.00    +0.000 A 
ATOM     19  C   UNL     1       9.661  11.229  20.318  0.00  0.00    +0.000 A 
ENDBRANCH  12  13
ENDBRANCH   2  11
TORSDOF 3
ENDMDL
MODEL 7
REMARK VINA RESULT:      -7.1      0.226      1.619
REMARK  Name = 
REMARK  3 active torsions:
REMARK  status: ('A' for Active; 'I' for Inactive)
REMARK    1  A    between atoms: C_2  and  N_3
REMARK    2  A    between atoms: N_4  and  C_5
REMARK    3  A    between atoms: N_12  and  C_13
REMARK                            x       y       z     vdW  Elec       q    Type
REMARK                         _______ _______ _______ _____ _____    ______ ____
ROOT
ATOM      1  O   UNL     1       5.348   6.235  16.409  0.00  0.00    +0.000 OA
ATOM      2  C   UNL     1       4.976   5.072  16.534  0.00  0.00    +0.000 C 
ATOM      3  N   UNL     1       5.153   4.090  15.574  0.00  0.00    +0.000 N 
ATOM      4  H   UNL     1       4.636   3.243  15.758  0.00  0.00    +0.000 HD
ENDROOT
BRANCH   3   5
ATOM      5  C   UNL     1       5.901   4.183  14.387  0.00  0.00    +0.000 A 
ATOM      6  C   UNL     1       5.574   3.490  13.220  0.00  0.00    +0.000 A 
ATOM      7  C   UNL     1       6.344   3.638  12.064  0.00  0.00    +0.000 A 
ATOM      8  C   UNL     1       7.453   4.477  12.066  0.00  0.00    +0.000 A 
ATOM      9  C   UNL     1       7.785   5.181  13.222  0.00  0.00    +0.000 A 
ATOM     10  C   UNL     1       7.007   5.045  14.376  0.00  0.00    +0.000 A 
ENDBRANCH   3   5
BRANCH   2  11
ATOM     11  N   UNL     1       4.352   4.650  17.691  0.00  0.00    +0.000 NA
ATOM     12  N   UNL     1       3.712   3.581  17.577  0.00  0.00    +0.000 NA
BRANCH  12  13
ATOM     13  C   UNL     1       3.010   3.285  18.767  0.00  0.00    +0.000 A 
ATOM     14  C   UNL     1       3.652   2.884  19.953  0.00  0.00    +0.000 A 
ATOM     15  C   UNL     1       2.921   2.645  21.121  0.00  0.00    +0.000 A 
ATOM     16  C   UNL     1       1.546   2.818  21.111  0.00  0.00    +0.000 A 
ATOM     17  F   UNL     1       0.844   2.603  22.229  0.00  0.00    +0.000 F 
ATOM     18  C   UNL     1       0.885   3.219  19.954  0.00  0.00    +0.000 A 
ATOM     19  C   UNL     1       1.618   3.453  18.786  0.00  0.00    +0.000 A 
ENDBRANCH  12  13
ENDBRANCH   2  11
TORSDOF 3
ENDMDL
MODEL 8
REMARK VINA RESULT:      -7.1      6.843      8.729
REMARK  Name = 
REMARK  3 active torsions:
REMARK  status: ('A' for Active; 'I' for Inactive)
REMARK    1  A    between atoms: C_2  and  N_3
REMARK    2  A    between atoms: N_4  and  C_5
REMARK    3  A    between atoms: N_12  and  C_13
REMARK                            x       y       z     vdW  Elec       q    Type
REMARK                         _______ _______ _______ _____ _____    ______ ____
ROOT
ATOM      1  O   UNL     1       8.182   6.918  18.674  0.00  0.00    +0.000 OA
ATOM      2  C   UNL     1       7.805   7.709  17.814  0.00  0.00    +0.000 C 
ATOM      3  N   UNL     1       6.831   7.428  16.872  0.00  0.00    +0.000 N 
ATOM      4  H   UNL     1       6.768   8.116  16.135  0.00  0.00    +0.000 HD
ENDROOT
BRANCH   3   5
ATOM      5  C   UNL     1       6.004   6.293  16.811  0.00  0.00    +0.000 A 
ATOM      6  C   UNL     1       4.792   6.191  17.498  0.00  0.00    +0.000 A 
ATOM      7  C   UNL     1       4.003   5.045  17.383  0.00  0.00    +0.000 A 
ATOM      8  C   UNL     1       4.420   3.985  16.584  0.00  0.00    +0.000 A 
ATOM      9  C   UNL     1       5.623   4.079  15.886  0.00  0.00    +0.000 A 
ATOM     10  C   UNL     1       6.408   5.232  15.990  0.00  0.00    +0.000 A 
ENDBRANCH   3   5
BRANCH   2  11
ATOM     11  N   UNL     1       8.335   8.982  17.744  0.00  0.00    +0.000 NA
ATOM     12  N   UNL     1       8.872   9.381  18.801  0.00  0.00    +0.000 NA
BRANCH  12  13
ATOM     13  C   UNL     1       9.279  10.728  18.682  0.00  0.00    +0.000 A 
ATOM     14  C   UNL     1      10.424  11.238  19.322  0.00  0.00    +0.000 A 
ATOM     15  C   UNL     1      10.817  12.568  19.140  0.00  0.00    +0.000 A 
ATOM     16  C   UNL     1      10.073  13.389  18.307  0.00  0.00    +0.000 A 
ATOM     17  F   UNL     1      10.452  14.659  18.120  0.00  0.00    +0.000 F 
ATOM     18  C   UNL     1       8.940  12.911  17.658  0.00  0.00    +0.000 A 
ATOM     19  C   UNL     1       8.547  11.581  17.845  0.00  0.00    +0.000 A 
ENDBRANCH  12  13
ENDBRANCH   2  11
TORSDOF 3
ENDMDL
MODEL 9
REMARK VINA RESULT:      -7.1      3.290      7.687
REMARK  Name = 
REMARK  3 active torsions:
REMARK  status: ('A' for Active; 'I' for Inactive)
REMARK    1  A    between atoms: C_2  and  N_3
REMARK    2  A    between atoms: N_4  and  C_5
REMARK    3  A    between atoms: N_12  and  C_13
REMARK                            x       y       z     vdW  Elec       q    Type
REMARK                         _______ _______ _______ _____ _____    ______ ____
ROOT
ATOM      1  O   UNL     1       5.595   4.898  19.132  0.00  0.00    +0.000 OA
ATOM      2  C   UNL     1       5.146   4.254  18.188  0.00  0.00    +0.000 C 
ATOM      3  N   UNL     1       4.012   3.464  18.253  0.00  0.00    +0.000 N 
ATOM      4  H   UNL     1       3.884   2.868  17.447  0.00  0.00    +0.000 HD
ENDROOT
BRANCH   3   5
ATOM      5  C   UNL     1       3.098   3.370  19.316  0.00  0.00    +0.000 A 
ATOM      6  C   UNL     1       1.831   3.958  19.293  0.00  0.00    +0.000 A 
ATOM      7  C   UNL     1       0.958   3.812  20.372  0.00  0.00    +0.000 A 
ATOM      8  C   UNL     1       1.344   3.082  21.491  0.00  0.00    +0.000 A 
ATOM      9  C   UNL     1       2.602   2.483  21.524  0.00  0.00    +0.000 A 
ATOM     10  C   UNL     1       3.472   2.616  20.437  0.00  0.00    +0.000 A 
ENDBRANCH   3   5
BRANCH   2  11
ATOM     11  N   UNL     1       5.758   4.296  16.951  0.00  0.00    +0.000 NA
ATOM     12  N   UNL     1       4.969   4.356  15.982  0.00  0.00    +0.000 NA
BRANCH  12  13
ATOM     13  C   UNL     1       5.669   4.274  14.757  0.00  0.00    +0.000 A 
ATOM     14  C   UNL     1       5.174   3.573  13.641  0.00  0.00    +0.000 A 
ATOM     15  C   UNL     1       5.879   3.557  12.433  0.00  0.00    +0.000 A 
ATOM     16  C   UNL     1       7.073   4.252  12.332  0.00  0.00    +0.000 A 
ATOM     17  F   UNL     1       7.744   4.249  11.174  0.00  0.00    +0.000 F 
ATOM     18  C   UNL     1       7.583   4.958  13.417  0.00  0.00    +0.000 A 
ATOM     19  C   UNL     1       6.879   4.969  14.626  0.00  0.00    +0.000 A 
ENDBRANCH  12  13
ENDBRANCH   2  11
TORSDOF 3
ENDMDL
