MODEL 1
REMARK VINA RESULT:      -7.2      0.000      0.000
REMARK  Name = 
REMARK  15 active torsions:
REMARK  status: ('A' for Active; 'I' for Inactive)
REMARK    1  A    between atoms: C_1  and  O_2
REMARK    2  A    between atoms: O_2  and  C_3
REMARK    3  A    between atoms: C_3  and  C_5
REMARK    4  A    between atoms: C_7  and  C_8
REMARK    5  A    between atoms: C_8  and  C_13
REMARK    6  A    between atoms: C_9  and  C_10
REMARK    7  A    between atoms: C_10  and  C_11
REMARK    8  A    between atoms: C_11  and  N_12
REMARK    9  A    between atoms: C_17  and  O_18
REMARK   10  A    between atoms: O_18  and  C_19
REMARK   11  A    between atoms: C_20  and  C_21
REMARK   12  A    between atoms: C_21  and  O_23
REMARK   13  A    between atoms: O_23  and  C_24
REMARK   14  A    between atoms: C_29  and  O_30
REMARK   15  A    between atoms: O_30  and  C_31
REMARK                            x       y       z     vdW  Elec       q    Type
REMARK                         _______ _______ _______ _____ _____    ______ ____
ROOT
ATOM      1  C   UNL     1       2.604   5.795  20.050  0.00  0.00    +0.000 C 
ATOM      2  C   UNL     1       2.100   4.901  20.929  0.00  0.00    +0.000 C 
ENDROOT
BRANCH   1   5
ATOM      3  C   UNL     1       5.993   5.309  18.374  0.00  0.00    +0.000 A 
ATOM      4  C   UNL     1       5.007   5.720  19.299  0.00  0.00    +0.000 A 
ATOM      5  C   UNL     1       3.659   5.416  19.087  0.00  0.00    +0.000 A 
ATOM      6  C   UNL     1       3.304   4.709  17.938  0.00  0.00    +0.000 A 
ATOM      7  C   UNL     1       4.272   4.278  17.021  0.00  0.00    +0.000 A 
ATOM      8 CL   UNL     1       3.666   3.315  15.719  0.00  0.00    +0.000 Cl
ATOM      9  C   UNL     1       5.631   4.571  17.223  0.00  0.00    +0.000 A 
BRANCH   3  10
ATOM     10  C   UNL     1       7.412   5.724  18.590  0.00  0.00    +0.000 C 
ATOM     11  O   UNL     1       8.104   5.372  19.528  0.00  0.00    +0.000 OA
BRANCH  10  13
ATOM     12  C   UNL     1       7.800   7.912  17.844  0.00  0.00    +0.000 C 
ATOM     13  O   UNL     1       7.823   6.509  17.556  0.00  0.00    +0.000 OA
ENDBRANCH  10  13
ENDBRANCH   3  10
BRANCH   9  14
ATOM     14  O   UNL     1       6.660   4.058  16.474  0.00  0.00    +0.000 OA
ATOM     15  C   UNL     1       6.778   4.501  15.124  0.00  0.00    +0.000 C 
ENDBRANCH   9  14
ENDBRANCH   1   5
BRANCH   1  16
ATOM     16  C   UNL     1       2.027   7.158  20.117  0.00  0.00    +0.000 A 
ATOM     17  C   UNL     1       2.097   7.987  18.996  0.00  0.00    +0.000 A 
ATOM     18  C   UNL     1       1.606   9.304  19.025  0.00  0.00    +0.000 A 
ATOM     19 CL   UNL     1       1.810  10.157  17.533  0.00  0.00    +0.000 Cl
ATOM     20  C   UNL     1       1.020   9.821  20.194  0.00  0.00    +0.000 A 
ATOM     21  C   UNL     1       0.964   8.975  21.333  0.00  0.00    +0.000 A 
ATOM     22  C   UNL     1       1.465   7.661  21.289  0.00  0.00    +0.000 A 
BRANCH  20  23
ATOM     23  O   UNL     1       0.451  11.049  20.386  0.00  0.00    +0.000 OA
ATOM     24  C   UNL     1       1.202  12.249  20.405  0.00  0.00    +0.000 C 
ENDBRANCH  20  23
BRANCH  21  25
ATOM     25  C   UNL     1       0.416   9.486  22.628  0.00  0.00    +0.000 C 
ATOM     26  O   UNL     1       1.060   9.667  23.648  0.00  0.00    +0.000 OA
BRANCH  25  27
ATOM     27  O   UNL     1      -0.922   9.708  22.499  0.00  0.00    +0.000 OA
ATOM     28  C   UNL     1      -1.375  10.888  23.166  0.00  0.00    +0.000 C 
ENDBRANCH  25  27
ENDBRANCH  21  25
ENDBRANCH   1  16
BRANCH   2  29
ATOM     29  C   UNL     1       2.545   3.479  21.165  0.00  0.00    +0.000 C 
BRANCH  29  30
ATOM     30  C   UNL     1       1.489   2.435  20.778  0.00  0.00    +0.000 C 
BRANCH  30  31
ATOM     31  N   UNL     1       0.396   3.075  20.049  0.00  0.00    +0.000 NA
ATOM     32  H   UNL     1       0.453   2.831  19.060  0.00  0.00    +0.000 HD
ATOM     33  H   UNL     1       0.494   4.089  20.098  0.00  0.00    +0.000 HD
ENDBRANCH  30  31
ENDBRANCH  29  30
ENDBRANCH   2  29
TORSDOF 11
ENDMDL
MODEL 2
REMARK VINA RESULT:      -6.9      0.797      1.022
REMARK  Name = 
REMARK  15 active torsions:
REMARK  status: ('A' for Active; 'I' for Inactive)
REMARK    1  A    between atoms: C_1  and  O_2
REMARK    2  A    between atoms: O_2  and  C_3
REMARK    3  A    between atoms: C_3  and  C_5
REMARK    4  A    between atoms: C_7  and  C_8
REMARK    5  A    between atoms: C_8  and  C_13
REMARK    6  A    between atoms: C_9  and  C_10
REMARK    7  A    between atoms: C_10  and  C_11
REMARK    8  A    between atoms: C_11  and  N_12
REMARK    9  A    between atoms: C_17  and  O_18
REMARK   10  A    between atoms: O_18  and  C_19
REMARK   11  A    between atoms: C_20  and  C_21
REMARK   12  A    between atoms: C_21  and  O_23
REMARK   13  A    between atoms: O_23  and  C_24
REMARK   14  A    between atoms: C_29  and  O_30
REMARK   15  A    between atoms: O_30  and  C_31
REMARK                            x       y       z     vdW  Elec       q    Type
REMARK                         _______ _______ _______ _____ _____    ______ ____
ROOT
ATOM      1  C   UNL     1       2.461   5.761  20.076  0.00  0.00    +0.000 C 
ATOM      2  C   UNL     1       2.095   4.947  21.090  0.00  0.00    +0.000 C 
ENDROOT
BRANCH   1   5
ATOM      3  C   UNL     1       5.473   5.170  17.815  0.00  0.00    +0.000 A 
ATOM      4  C   UNL     1       4.663   5.679  18.856  0.00  0.00    +0.000 A 
ATOM      5  C   UNL     1       3.329   5.281  18.980  0.00  0.00    +0.000 A 
ATOM      6  C   UNL     1       2.808   4.381  18.049  0.00  0.00    +0.000 A 
ATOM      7  C   UNL     1       3.603   3.853  17.024  0.00  0.00    +0.000 A 
ATOM      8 CL   UNL     1       2.827   2.665  16.037  0.00  0.00    +0.000 Cl
ATOM      9  C   UNL     1       4.948   4.239  16.889  0.00  0.00    +0.000 A 
BRANCH   3  10
ATOM     10  C   UNL     1       6.870   5.680  17.664  0.00  0.00    +0.000 C 
ATOM     11  O   UNL     1       7.195   6.612  16.953  0.00  0.00    +0.000 OA
BRANCH  10  13
ATOM     12  C   UNL     1       8.086   5.674  19.668  0.00  0.00    +0.000 C 
ATOM     13  O   UNL     1       7.705   4.976  18.476  0.00  0.00    +0.000 OA
ENDBRANCH  10  13
ENDBRANCH   3  10
BRANCH   9  14
ATOM     14  O   UNL     1       5.843   3.660  16.025  0.00  0.00    +0.000 OA
ATOM     15  C   UNL     1       5.842   4.113  14.674  0.00  0.00    +0.000 C 
ENDBRANCH   9  14
ENDBRANCH   1   5
BRANCH   1  16
ATOM     16  C   UNL     1       1.935   7.144  20.138  0.00  0.00    +0.000 A 
ATOM     17  C   UNL     1       2.049   7.972  19.021  0.00  0.00    +0.000 A 
ATOM     18  C   UNL     1       1.607   9.306  19.047  0.00  0.00    +0.000 A 
ATOM     19 CL   UNL     1       1.861  10.153  17.558  0.00  0.00    +0.000 Cl
ATOM     20  C   UNL     1       1.026   9.843  20.209  0.00  0.00    +0.000 A 
ATOM     21  C   UNL     1       0.924   8.997  21.345  0.00  0.00    +0.000 A 
ATOM     22  C   UNL     1       1.377   7.665  21.305  0.00  0.00    +0.000 A 
BRANCH  20  23
ATOM     23  O   UNL     1       0.500  11.091  20.396  0.00  0.00    +0.000 OA
ATOM     24  C   UNL     1      -0.564  11.600  19.616  0.00  0.00    +0.000 C 
ENDBRANCH  20  23
BRANCH  21  25
ATOM     25  C   UNL     1       0.379   9.526  22.635  0.00  0.00    +0.000 C 
ATOM     26  O   UNL     1       1.023   9.711  23.654  0.00  0.00    +0.000 OA
BRANCH  25  27
ATOM     27  O   UNL     1      -0.957   9.759  22.501  0.00  0.00    +0.000 OA
ATOM     28  C   UNL     1      -1.405  10.933  23.182  0.00  0.00    +0.000 C 
ENDBRANCH  25  27
ENDBRANCH  21  25
ENDBRANCH   1  16
BRANCH   2  29
ATOM     29  C   UNL     1       2.541   3.530  21.351  0.00  0.00    +0.000 C 
BRANCH  29  30
ATOM     30  C   UNL     1       1.579   2.472  20.796  0.00  0.00    +0.000 C 
BRANCH  30  31
ATOM     31  N   UNL     1       0.356   3.111  20.314  0.00  0.00    +0.000 NA
ATOM     32  H   UNL     1      -0.019   2.586  19.525  0.00  0.00    +0.000 HD
ATOM     33  H   UNL     1       0.570   4.043  19.959  0.00  0.00    +0.000 HD
ENDBRANCH  30  31
ENDBRANCH  29  30
ENDBRANCH   2  29
TORSDOF 11
ENDMDL
MODEL 3
REMARK VINA RESULT:      -6.7      3.379      8.098
REMARK  Name = 
REMARK  15 active torsions:
REMARK  status: ('A' for Active; 'I' for Inactive)
REMARK    1  A    between atoms: C_1  and  O_2
REMARK    2  A    between atoms: O_2  and  C_3
REMARK    3  A    between atoms: C_3  and  C_5
REMARK    4  A    between atoms: C_7  and  C_8
REMARK    5  A    between atoms: C_8  and  C_13
REMARK    6  A    between atoms: C_9  and  C_10
REMARK    7  A    between atoms: C_10  and  C_11
REMARK    8  A    between atoms: C_11  and  N_12
REMARK    9  A    between atoms: C_17  and  O_18
REMARK   10  A    between atoms: O_18  and  C_19
REMARK   11  A    between atoms: C_20  and  C_21
REMARK   12  A    between atoms: C_21  and  O_23
REMARK   13  A    between atoms: O_23  and  C_24
REMARK   14  A    between atoms: C_29  and  O_30
REMARK   15  A    between atoms: O_30  and  C_31
REMARK                            x       y       z     vdW  Elec       q    Type
REMARK                         _______ _______ _______ _____ _____    ______ ____
ROOT
ATOM      1  C   UNL     1       1.277   8.651  20.659  0.00  0.00    +0.000 C 
ATOM      2  C   UNL     1       1.290   8.643  22.010  0.00  0.00    +0.000 C 
ENDROOT
BRANCH   1   5
ATOM      3  C   UNL     1      -0.922  11.227  18.910  0.00  0.00    +0.000 A 
ATOM      4  C   UNL     1      -0.523  10.063  19.605  0.00  0.00    +0.000 A 
ATOM      5  C   UNL     1       0.824   9.837  19.902  0.00  0.00    +0.000 A 
ATOM      6  C   UNL     1       1.769  10.777  19.489  0.00  0.00    +0.000 A 
ATOM      7  C   UNL     1       1.386  11.946  18.817  0.00  0.00    +0.000 A 
ATOM      8 CL   UNL     1       2.673  13.052  18.487  0.00  0.00    +0.000 Cl
ATOM      9  C   UNL     1       0.035  12.190  18.516  0.00  0.00    +0.000 A 
BRANCH   3  10
ATOM     10  C   UNL     1      -2.360  11.395  18.537  0.00  0.00    +0.000 C 
ATOM     11  O   UNL     1      -3.204  11.918  19.240  0.00  0.00    +0.000 OA
BRANCH  10  13
ATOM     12  C   UNL     1      -3.927  10.987  16.842  0.00  0.00    +0.000 C 
ATOM     13  O   UNL     1      -2.564  10.920  17.278  0.00  0.00    +0.000 OA
ENDBRANCH  10  13
ENDBRANCH   3  10
BRANCH   9  14
ATOM     14  O   UNL     1      -0.450  13.369  18.010  0.00  0.00    +0.000 OA
ATOM     15  C   UNL     1      -0.396  14.519  18.851  0.00  0.00    +0.000 C 
ENDBRANCH   9  14
ENDBRANCH   1   5
BRANCH   1  16
ATOM     16  C   UNL     1       1.746   7.408  20.003  0.00  0.00    +0.000 A 
ATOM     17  C   UNL     1       2.620   7.495  18.918  0.00  0.00    +0.000 A 
ATOM     18  C   UNL     1       3.056   6.347  18.234  0.00  0.00    +0.000 A 
ATOM     19 CL   UNL     1       4.121   6.686  16.912  0.00  0.00    +0.000 Cl
ATOM     20  C   UNL     1       2.624   5.070  18.635  0.00  0.00    +0.000 A 
ATOM     21  C   UNL     1       1.726   4.993  19.732  0.00  0.00    +0.000 A 
ATOM     22  C   UNL     1       1.294   6.152  20.402  0.00  0.00    +0.000 A 
BRANCH  20  23
ATOM     23  O   UNL     1       2.982   3.854  18.122  0.00  0.00    +0.000 OA
ATOM     24  C   UNL     1       4.300   3.346  18.199  0.00  0.00    +0.000 C 
ENDBRANCH  20  23
BRANCH  21  25
ATOM     25  C   UNL     1       1.174   3.671  20.165  0.00  0.00    +0.000 C 
ATOM     26  O   UNL     1       0.474   2.939  19.486  0.00  0.00    +0.000 OA
BRANCH  25  27
ATOM     27  O   UNL     1       1.565   3.413  21.445  0.00  0.00    +0.000 OA
ATOM     28  C   UNL     1       2.755   2.626  21.534  0.00  0.00    +0.000 C 
ENDBRANCH  25  27
ENDBRANCH  21  25
ENDBRANCH   1  16
BRANCH   2  29
ATOM     29  C   UNL     1       0.789   9.710  22.950  0.00  0.00    +0.000 C 
BRANCH  29  30
ATOM     30  C   UNL     1      -0.734   9.701  23.132  0.00  0.00    +0.000 C 
BRANCH  30  31
ATOM     31  N   UNL     1      -1.232  11.070  23.248  0.00  0.00    +0.000 NA
ATOM     32  H   UNL     1      -2.112  11.161  22.739  0.00  0.00    +0.000 HD
ATOM     33  H   UNL     1      -0.579  11.715  22.803  0.00  0.00    +0.000 HD
ENDBRANCH  30  31
ENDBRANCH  29  30
ENDBRANCH   2  29
TORSDOF 11
ENDMDL
MODEL 4
REMARK VINA RESULT:      -6.6      1.512      2.406
REMARK  Name = 
REMARK  15 active torsions:
REMARK  status: ('A' for Active; 'I' for Inactive)
REMARK    1  A    between atoms: C_1  and  O_2
REMARK    2  A    between atoms: O_2  and  C_3
REMARK    3  A    between atoms: C_3  and  C_5
REMARK    4  A    between atoms: C_7  and  C_8
REMARK    5  A    between atoms: C_8  and  C_13
REMARK    6  A    between atoms: C_9  and  C_10
REMARK    7  A    between atoms: C_10  and  C_11
REMARK    8  A    between atoms: C_11  and  N_12
REMARK    9  A    between atoms: C_17  and  O_18
REMARK   10  A    between atoms: O_18  and  C_19
REMARK   11  A    between atoms: C_20  and  C_21
REMARK   12  A    between atoms: C_21  and  O_23
REMARK   13  A    between atoms: O_23  and  C_24
REMARK   14  A    between atoms: C_29  and  O_30
REMARK   15  A    between atoms: O_30  and  C_31
REMARK                            x       y       z     vdW  Elec       q    Type
REMARK                         _______ _______ _______ _____ _____    ______ ____
ROOT
ATOM      1  C   UNL     1       2.542   5.804  20.211  0.00  0.00    +0.000 C 
ATOM      2  C   UNL     1       2.051   4.926  21.114  0.00  0.00    +0.000 C 
ENDROOT
BRANCH   1   5
ATOM      3  C   UNL     1       5.888   5.318  18.452  0.00  0.00    +0.000 A 
ATOM      4  C   UNL     1       4.922   5.750  19.388  0.00  0.00    +0.000 A 
ATOM      5  C   UNL     1       3.577   5.403  19.234  0.00  0.00    +0.000 A 
ATOM      6  C   UNL     1       3.204   4.633  18.133  0.00  0.00    +0.000 A 
ATOM      7  C   UNL     1       4.154   4.181  17.206  0.00  0.00    +0.000 A 
ATOM      8 CL   UNL     1       3.532   3.141  15.973  0.00  0.00    +0.000 Cl
ATOM      9  C   UNL     1       5.511   4.516  17.350  0.00  0.00    +0.000 A 
BRANCH   3  10
ATOM     10  C   UNL     1       7.303   5.777  18.602  0.00  0.00    +0.000 C 
ATOM     11  O   UNL     1       8.076   5.379  19.454  0.00  0.00    +0.000 OA
BRANCH  10  13
ATOM     12  C   UNL     1       8.021   7.950  18.090  0.00  0.00    +0.000 C 
ATOM     13  O   UNL     1       7.604   6.665  17.614  0.00  0.00    +0.000 OA
ENDBRANCH  10  13
ENDBRANCH   3  10
BRANCH   9  14
ATOM     14  O   UNL     1       6.528   3.992  16.593  0.00  0.00    +0.000 OA
ATOM     15  C   UNL     1       6.612   4.398  15.230  0.00  0.00    +0.000 C 
ENDBRANCH   9  14
ENDBRANCH   1   5
BRANCH   1  16
ATOM     16  C   UNL     1       1.975   7.171  20.268  0.00  0.00    +0.000 A 
ATOM     17  C   UNL     1       1.517   7.672  21.487  0.00  0.00    +0.000 A 
ATOM     18  C   UNL     1       0.929   8.945  21.584  0.00  0.00    +0.000 A 
ATOM     19 CL   UNL     1       0.417   9.357  23.186  0.00  0.00    +0.000 Cl
ATOM     20  C   UNL     1       0.793   9.756  20.443  0.00  0.00    +0.000 A 
ATOM     21  C   UNL     1       1.251   9.234  19.205  0.00  0.00    +0.000 A 
ATOM     22  C   UNL     1       1.832   7.955  19.125  0.00  0.00    +0.000 A 
BRANCH  20  23
ATOM     23  O   UNL     1       0.296  11.027  20.361  0.00  0.00    +0.000 OA
ATOM     24  C   UNL     1       0.979  12.153  20.879  0.00  0.00    +0.000 C 
ENDBRANCH  20  23
BRANCH  21  25
ATOM     25  C   UNL     1       1.074  10.017  17.943  0.00  0.00    +0.000 C 
ATOM     26  O   UNL     1       1.818  10.899  17.546  0.00  0.00    +0.000 OA
BRANCH  25  27
ATOM     27  O   UNL     1      -0.056   9.603  17.306  0.00  0.00    +0.000 OA
ATOM     28  C   UNL     1      -1.221  10.354  17.656  0.00  0.00    +0.000 C 
ENDBRANCH  25  27
ENDBRANCH  21  25
ENDBRANCH   1  16
BRANCH   2  29
ATOM     29  C   UNL     1       2.491   3.505  21.362  0.00  0.00    +0.000 C 
BRANCH  29  30
ATOM     30  C   UNL     1       1.576   2.457  20.715  0.00  0.00    +0.000 C 
BRANCH  30  31
ATOM     31  N   UNL     1       0.358   3.095  20.220  0.00  0.00    +0.000 NA
ATOM     32  H   UNL     1      -0.244   2.396  19.783  0.00  0.00    +0.000 HD
ATOM     33  H   UNL     1       0.591   3.766  19.488  0.00  0.00    +0.000 HD
ENDBRANCH  30  31
ENDBRANCH  29  30
ENDBRANCH   2  29
TORSDOF 11
ENDMDL
MODEL 5
REMARK VINA RESULT:      -6.5      1.145      7.406
REMARK  Name = 
REMARK  15 active torsions:
REMARK  status: ('A' for Active; 'I' for Inactive)
REMARK    1  A    between atoms: C_1  and  O_2
REMARK    2  A    between atoms: O_2  and  C_3
REMARK    3  A    between atoms: C_3  and  C_5
REMARK    4  A    between atoms: C_7  and  C_8
REMARK    5  A    between atoms: C_8  and  C_13
REMARK    6  A    between atoms: C_9  and  C_10
REMARK    7  A    between atoms: C_10  and  C_11
REMARK    8  A    between atoms: C_11  and  N_12
REMARK    9  A    between atoms: C_17  and  O_18
REMARK   10  A    between atoms: O_18  and  C_19
REMARK   11  A    between atoms: C_20  and  C_21
REMARK   12  A    between atoms: C_21  and  O_23
REMARK   13  A    between atoms: O_23  and  C_24
REMARK   14  A    between atoms: C_29  and  O_30
REMARK   15  A    between atoms: O_30  and  C_31
REMARK                            x       y       z     vdW  Elec       q    Type
REMARK                         _______ _______ _______ _____ _____    ______ ____
ROOT
ATOM      1  C   UNL     1       2.913   5.999  19.186  0.00  0.00    +0.000 C 
ATOM      2  C   UNL     1       2.476   4.828  19.699  0.00  0.00    +0.000 C 
ENDROOT
BRANCH   1   5
ATOM      3  C   UNL     1       1.332   8.858  21.151  0.00  0.00    +0.000 A 
ATOM      4  C   UNL     1       1.916   7.607  20.850  0.00  0.00    +0.000 A 
ATOM      5  C   UNL     1       2.266   7.282  19.536  0.00  0.00    +0.000 A 
ATOM      6  C   UNL     1       2.016   8.210  18.525  0.00  0.00    +0.000 A 
ATOM      7  C   UNL     1       1.455   9.463  18.811  0.00  0.00    +0.000 A 
ATOM      8 CL   UNL     1       1.326  10.530  17.458  0.00  0.00    +0.000 Cl
ATOM      9  C   UNL     1       1.103   9.806  20.128  0.00  0.00    +0.000 A 
BRANCH   3  10
ATOM     10  C   UNL     1       0.895   9.139  22.553  0.00  0.00    +0.000 C 
ATOM     11  O   UNL     1       1.641   9.435  23.467  0.00  0.00    +0.000 OA
BRANCH  10  13
ATOM     12  C   UNL     1      -1.078  10.199  23.244  0.00  0.00    +0.000 C 
ATOM     13  O   UNL     1      -0.462   9.059  22.634  0.00  0.00    +0.000 OA
ENDBRANCH  10  13
ENDBRANCH   3  10
BRANCH   9  14
ATOM     14  O   UNL     1       0.703  11.057  20.527  0.00  0.00    +0.000 OA
ATOM     15  C   UNL     1      -0.544  11.539  20.033  0.00  0.00    +0.000 C 
ENDBRANCH   9  14
ENDBRANCH   1   5
BRANCH   1  16
ATOM     16  C   UNL     1       4.071   5.907  18.266  0.00  0.00    +0.000 A 
ATOM     17  C   UNL     1       3.983   5.095  17.135  0.00  0.00    +0.000 A 
ATOM     18  C   UNL     1       5.070   4.938  16.258  0.00  0.00    +0.000 A 
ATOM     19 CL   UNL     1       4.747   3.875  14.930  0.00  0.00    +0.000 Cl
ATOM     20  C   UNL     1       6.283   5.608  16.498  0.00  0.00    +0.000 A 
ATOM     21  C   UNL     1       6.367   6.422  17.658  0.00  0.00    +0.000 A 
ATOM     22  C   UNL     1       5.271   6.564  18.529  0.00  0.00    +0.000 A 
BRANCH  20  23
ATOM     23  O   UNL     1       7.416   5.612  15.733  0.00  0.00    +0.000 OA
ATOM     24  C   UNL     1       7.469   5.046  14.437  0.00  0.00    +0.000 C 
ENDBRANCH  20  23
BRANCH  21  25
ATOM     25  C   UNL     1       7.650   7.108  18.009  0.00  0.00    +0.000 C 
ATOM     26  O   UNL     1       8.437   6.743  18.867  0.00  0.00    +0.000 OA
BRANCH  25  27
ATOM     27  O   UNL     1       7.802   8.215  17.229  0.00  0.00    +0.000 OA
ATOM     28  C   UNL     1       8.242   9.368  17.950  0.00  0.00    +0.000 C 
ENDBRANCH  25  27
ENDBRANCH  21  25
ENDBRANCH   1  16
BRANCH   2  29
ATOM     29  C   UNL     1       1.273   4.591  20.578  0.00  0.00    +0.000 C 
BRANCH  29  30
ATOM     30  C   UNL     1       1.003   3.107  20.860  0.00  0.00    +0.000 C 
BRANCH  30  31
ATOM     31  N   UNL     1       1.713   2.690  22.067  0.00  0.00    +0.000 NA
ATOM     32  H   UNL     1       1.409   3.257  22.859  0.00  0.00    +0.000 HD
ATOM     33  H   UNL     1       2.712   2.866  21.960  0.00  0.00    +0.000 HD
ENDBRANCH  30  31
ENDBRANCH  29  30
ENDBRANCH   2  29
TORSDOF 11
ENDMDL
MODEL 6
REMARK VINA RESULT:      -6.5      1.640      2.720
REMARK  Name = 
REMARK  15 active torsions:
REMARK  status: ('A' for Active; 'I' for Inactive)
REMARK    1  A    between atoms: C_1  and  O_2
REMARK    2  A    between atoms: O_2  and  C_3
REMARK    3  A    between atoms: C_3  and  C_5
REMARK    4  A    between atoms: C_7  and  C_8
REMARK    5  A    between atoms: C_8  and  C_13
REMARK    6  A    between atoms: C_9  and  C_10
REMARK    7  A    between atoms: C_10  and  C_11
REMARK    8  A    between atoms: C_11  and  N_12
REMARK    9  A    between atoms: C_17  and  O_18
REMARK   10  A    between atoms: O_18  and  C_19
REMARK   11  A    between atoms: C_20  and  C_21
REMARK   12  A    between atoms: C_21  and  O_23
REMARK   13  A    between atoms: O_23  and  C_24
REMARK   14  A    between atoms: C_29  and  O_30
REMARK   15  A    between atoms: O_30  and  C_31
REMARK                            x       y       z     vdW  Elec       q    Type
REMARK                         _______ _______ _______ _____ _____    ______ ____
ROOT
ATOM      1  C   UNL     1       2.388   5.851  20.269  0.00  0.00    +0.000 C 
ATOM      2  C   UNL     1       2.008   5.002  21.249  0.00  0.00    +0.000 C 
ENDROOT
BRANCH   1   5
ATOM      3  C   UNL     1       5.444   5.313  18.055  0.00  0.00    +0.000 A 
ATOM      4  C   UNL     1       4.618   5.785  19.100  0.00  0.00    +0.000 A 
ATOM      5  C   UNL     1       3.274   5.409  19.171  0.00  0.00    +0.000 A 
ATOM      6  C   UNL     1       2.759   4.569  18.183  0.00  0.00    +0.000 A 
ATOM      7  C   UNL     1       3.570   4.078  17.151  0.00  0.00    +0.000 A 
ATOM      8 CL   UNL     1       2.796   2.958  16.086  0.00  0.00    +0.000 Cl
ATOM      9  C   UNL     1       4.925   4.442  17.070  0.00  0.00    +0.000 A 
BRANCH   3  10
ATOM     10  C   UNL     1       6.854   5.801  17.964  0.00  0.00    +0.000 C 
ATOM     11  O   UNL     1       7.209   6.791  17.351  0.00  0.00    +0.000 OA
BRANCH  10  13
ATOM     12  C   UNL     1       8.184   5.627  19.887  0.00  0.00    +0.000 C 
ATOM     13  O   UNL     1       7.665   5.000  18.708  0.00  0.00    +0.000 OA
ENDBRANCH  10  13
ENDBRANCH   3  10
BRANCH   9  14
ATOM     14  O   UNL     1       5.830   3.889  16.199  0.00  0.00    +0.000 OA
ATOM     15  C   UNL     1       5.800   4.335  14.846  0.00  0.00    +0.000 C 
ENDBRANCH   9  14
ENDBRANCH   1   5
BRANCH   1  16
ATOM     16  C   UNL     1       1.858   7.231  20.370  0.00  0.00    +0.000 A 
ATOM     17  C   UNL     1       1.385   7.694  21.598  0.00  0.00    +0.000 A 
ATOM     18  C   UNL     1       0.831   8.978  21.734  0.00  0.00    +0.000 A 
ATOM     19 CL   UNL     1       0.293   9.339  23.340  0.00  0.00    +0.000 Cl
ATOM     20  C   UNL     1       0.744   9.839  20.625  0.00  0.00    +0.000 A 
ATOM     21  C   UNL     1       1.217   9.355  19.378  0.00  0.00    +0.000 A 
ATOM     22  C   UNL     1       1.765   8.064  19.257  0.00  0.00    +0.000 A 
BRANCH  20  23
ATOM     23  O   UNL     1       0.286  11.126  20.585  0.00  0.00    +0.000 OA
ATOM     24  C   UNL     1      -1.073  11.464  20.791  0.00  0.00    +0.000 C 
ENDBRANCH  20  23
BRANCH  21  25
ATOM     25  C   UNL     1       1.093  10.194  18.145  0.00  0.00    +0.000 C 
ATOM     26  O   UNL     1       0.062  10.390  17.522  0.00  0.00    +0.000 OA
BRANCH  25  27
ATOM     27  O   UNL     1       2.313  10.700  17.814  0.00  0.00    +0.000 OA
ATOM     28  C   UNL     1       2.442  12.101  18.068  0.00  0.00    +0.000 C 
ENDBRANCH  25  27
ENDBRANCH  21  25
ENDBRANCH   1  16
BRANCH   2  29
ATOM     29  C   UNL     1       2.453   3.579  21.470  0.00  0.00    +0.000 C 
BRANCH  29  30
ATOM     30  C   UNL     1       1.579   2.544  20.748  0.00  0.00    +0.000 C 
BRANCH  30  31
ATOM     31  N   UNL     1       0.338   3.169  20.293  0.00  0.00    +0.000 NA
ATOM     32  H   UNL     1       0.460   3.527  19.346  0.00  0.00    +0.000 HD
ATOM     33  H   UNL     1       0.123   3.977  20.877  0.00  0.00    +0.000 HD
ENDBRANCH  30  31
ENDBRANCH  29  30
ENDBRANCH   2  29
TORSDOF 11
ENDMDL
MODEL 7
REMARK VINA RESULT:      -6.4      2.948      8.377
REMARK  Name = 
REMARK  15 active torsions:
REMARK  status: ('A' for Active; 'I' for Inactive)
REMARK    1  A    between atoms: C_1  and  O_2
REMARK    2  A    between atoms: O_2  and  C_3
REMARK    3  A    between atoms: C_3  and  C_5
REMARK    4  A    between atoms: C_7  and  C_8
REMARK    5  A    between atoms: C_8  and  C_13
REMARK    6  A    between atoms: C_9  and  C_10
REMARK    7  A    between atoms: C_10  and  C_11
REMARK    8  A    between atoms: C_11  and  N_12
REMARK    9  A    between atoms: C_17  and  O_18
REMARK   10  A    between atoms: O_18  and  C_19
REMARK   11  A    between atoms: C_20  and  C_21
REMARK   12  A    between atoms: C_21  and  O_23
REMARK   13  A    between atoms: O_23  and  C_24
REMARK   14  A    between atoms: C_29  and  O_30
REMARK   15  A    between atoms: O_30  and  C_31
REMARK                            x       y       z     vdW  Elec       q    Type
REMARK                         _______ _______ _______ _____ _____    ______ ____
ROOT
ATOM      1  C   UNL     1       1.644   8.543  19.926  0.00  0.00    +0.000 C 
ATOM      2  C   UNL     1       1.663   8.342  21.262  0.00  0.00    +0.000 C 
ENDROOT
BRANCH   1   5
ATOM      3  C   UNL     1      -0.761  11.150  18.529  0.00  0.00    +0.000 A 
ATOM      4  C   UNL     1      -0.265   9.934  19.051  0.00  0.00    +0.000 A 
ATOM      5  C   UNL     1       1.094   9.785  19.343  0.00  0.00    +0.000 A 
ATOM      6  C   UNL     1       1.954  10.855  19.098  0.00  0.00    +0.000 A 
ATOM      7  C   UNL     1       1.475  12.074  18.598  0.00  0.00    +0.000 A 
ATOM      8 CL   UNL     1       2.660  13.325  18.468  0.00  0.00    +0.000 Cl
ATOM      9  C   UNL     1       0.111  12.241  18.305  0.00  0.00    +0.000 A 
BRANCH   3  10
ATOM     10  C   UNL     1      -2.204  11.246  18.151  0.00  0.00    +0.000 C 
ATOM     11  O   UNL     1      -3.082  11.689  18.867  0.00  0.00    +0.000 OA
BRANCH  10  13
ATOM     12  C   UNL     1      -3.660  11.104  16.319  0.00  0.00    +0.000 C 
ATOM     13  O   UNL     1      -2.372  10.810  16.872  0.00  0.00    +0.000 OA
ENDBRANCH  10  13
ENDBRANCH   3  10
BRANCH   9  14
ATOM     14  O   UNL     1      -0.474  13.437  17.969  0.00  0.00    +0.000 OA
ATOM     15  C   UNL     1      -0.507  14.456  18.965  0.00  0.00    +0.000 C 
ENDBRANCH   9  14
ENDBRANCH   1   5
BRANCH   1  16
ATOM     16  C   UNL     1       2.209   7.449  19.102  0.00  0.00    +0.000 A 
ATOM     17  C   UNL     1       1.701   6.157  19.239  0.00  0.00    +0.000 A 
ATOM     18  C   UNL     1       2.235   5.077  18.514  0.00  0.00    +0.000 A 
ATOM     19 CL   UNL     1       1.467   3.563  18.851  0.00  0.00    +0.000 Cl
ATOM     20  C   UNL     1       3.300   5.277  17.617  0.00  0.00    +0.000 A 
ATOM     21  C   UNL     1       3.818   6.593  17.493  0.00  0.00    +0.000 A 
ATOM     22  C   UNL     1       3.276   7.662  18.231  0.00  0.00    +0.000 A 
BRANCH  20  23
ATOM     23  O   UNL     1       3.905   4.362  16.801  0.00  0.00    +0.000 OA
ATOM     24  C   UNL     1       4.600   3.234  17.295  0.00  0.00    +0.000 C 
ENDBRANCH  20  23
BRANCH  21  25
ATOM     25  C   UNL     1       4.994   6.862  16.608  0.00  0.00    +0.000 C 
ATOM     26  O   UNL     1       4.982   6.847  15.388  0.00  0.00    +0.000 OA
BRANCH  25  27
ATOM     27  O   UNL     1       6.091   7.116  17.376  0.00  0.00    +0.000 OA
ATOM     28  C   UNL     1       7.052   6.058  17.372  0.00  0.00    +0.000 C 
ENDBRANCH  25  27
ENDBRANCH  21  25
ENDBRANCH   1  16
BRANCH   2  29
ATOM     29  C   UNL     1       1.082   9.219  22.341  0.00  0.00    +0.000 C 
BRANCH  29  30
ATOM     30  C   UNL     1      -0.429   9.035  22.534  0.00  0.00    +0.000 C 
BRANCH  30  31
ATOM     31  N   UNL     1      -0.950  10.071  23.425  0.00  0.00    +0.000 NA
ATOM     32  H   UNL     1      -1.244  10.880  22.877  0.00  0.00    +0.000 HD
ATOM     33  H   UNL     1      -0.209  10.400  24.043  0.00  0.00    +0.000 HD
ENDBRANCH  30  31
ENDBRANCH  29  30
ENDBRANCH   2  29
TORSDOF 11
ENDMDL
MODEL 8
REMARK VINA RESULT:      -6.4      3.371      8.086
REMARK  Name = 
REMARK  15 active torsions:
REMARK  status: ('A' for Active; 'I' for Inactive)
REMARK    1  A    between atoms: C_1  and  O_2
REMARK    2  A    between atoms: O_2  and  C_3
REMARK    3  A    between atoms: C_3  and  C_5
REMARK    4  A    between atoms: C_7  and  C_8
REMARK    5  A    between atoms: C_8  and  C_13
REMARK    6  A    between atoms: C_9  and  C_10
REMARK    7  A    between atoms: C_10  and  C_11
REMARK    8  A    between atoms: C_11  and  N_12
REMARK    9  A    between atoms: C_17  and  O_18
REMARK   10  A    between atoms: O_18  and  C_19
REMARK   11  A    between atoms: C_20  and  C_21
REMARK   12  A    between atoms: C_21  and  O_23
REMARK   13  A    between atoms: O_23  and  C_24
REMARK   14  A    between atoms: C_29  and  O_30
REMARK   15  A    between atoms: O_30  and  C_31
REMARK                            x       y       z     vdW  Elec       q    Type
REMARK                         _______ _______ _______ _____ _____    ______ ____
ROOT
ATOM      1  C   UNL     1       0.665   8.475  20.664  0.00  0.00    +0.000 C 
ATOM      2  C   UNL     1       0.144   8.248  21.890  0.00  0.00    +0.000 C 
ENDROOT
BRANCH   1   5
ATOM      3  C   UNL     1      -1.043  11.211  18.634  0.00  0.00    +0.000 A 
ATOM      4  C   UNL     1      -0.812   9.980  19.288  0.00  0.00    +0.000 A 
ATOM      5  C   UNL     1       0.400   9.734  19.938  0.00  0.00    +0.000 A 
ATOM      6  C   UNL     1       1.384  10.723  19.919  0.00  0.00    +0.000 A 
ATOM      7  C   UNL     1       1.163  11.957  19.291  0.00  0.00    +0.000 A 
ATOM      8 CL   UNL     1       2.444  13.104  19.468  0.00  0.00    +0.000 Cl
ATOM      9  C   UNL     1      -0.052  12.221  18.638  0.00  0.00    +0.000 A 
BRANCH   3  10
ATOM     10  C   UNL     1      -2.318  11.408  17.879  0.00  0.00    +0.000 C 
ATOM     11  O   UNL     1      -3.369  11.770  18.373  0.00  0.00    +0.000 OA
BRANCH  10  13
ATOM     12  C   UNL     1      -2.731   9.973  16.071  0.00  0.00    +0.000 C 
ATOM     13  O   UNL     1      -2.107  11.168  16.555  0.00  0.00    +0.000 OA
ENDBRANCH  10  13
ENDBRANCH   3  10
BRANCH   9  14
ATOM     14  O   UNL     1      -0.420  13.446  18.141  0.00  0.00    +0.000 OA
ATOM     15  C   UNL     1      -0.598  14.509  19.073  0.00  0.00    +0.000 C 
ENDBRANCH   9  14
ENDBRANCH   1   5
BRANCH   1  16
ATOM     16  C   UNL     1       1.510   7.389  20.113  0.00  0.00    +0.000 A 
ATOM     17  C   UNL     1       2.372   7.665  19.052  0.00  0.00    +0.000 A 
ATOM     18  C   UNL     1       3.159   6.659  18.464  0.00  0.00    +0.000 A 
ATOM     19 CL   UNL     1       4.141   7.219  17.153  0.00  0.00    +0.000 Cl
ATOM     20  C   UNL     1       3.101   5.338  18.943  0.00  0.00    +0.000 A 
ATOM     21  C   UNL     1       2.213   5.064  20.015  0.00  0.00    +0.000 A 
ATOM     22  C   UNL     1       1.427   6.082  20.588  0.00  0.00    +0.000 A 
BRANCH  20  23
ATOM     23  O   UNL     1       3.825   4.254  18.529  0.00  0.00    +0.000 OA
ATOM     24  C   UNL     1       5.221   4.143  18.727  0.00  0.00    +0.000 C 
ENDBRANCH  20  23
BRANCH  21  25
ATOM     25  C   UNL     1       2.052   3.667  20.526  0.00  0.00    +0.000 C 
ATOM     26  O   UNL     1       2.862   3.067  21.214  0.00  0.00    +0.000 OA
BRANCH  25  27
ATOM     27  O   UNL     1       0.864   3.159  20.096  0.00  0.00    +0.000 OA
ATOM     28  C   UNL     1       0.972   2.376  18.905  0.00  0.00    +0.000 C 
ENDBRANCH  25  27
ENDBRANCH  21  25
ENDBRANCH   1  16
BRANCH   2  29
ATOM     29  C   UNL     1      -0.820   9.112  22.664  0.00  0.00    +0.000 C 
BRANCH  29  30
ATOM     30  C   UNL     1      -0.177  10.377  23.247  0.00  0.00    +0.000 C 
BRANCH  30  31
ATOM     31  N   UNL     1      -1.109  11.499  23.156  0.00  0.00    +0.000 NA
ATOM     32  H   UNL     1      -1.182  11.809  22.186  0.00  0.00    +0.000 HD
ATOM     33  H   UNL     1      -0.747  12.294  23.681  0.00  0.00    +0.000 HD
ENDBRANCH  30  31
ENDBRANCH  29  30
ENDBRANCH   2  29
TORSDOF 11
ENDMDL
MODEL 9
REMARK VINA RESULT:      -6.4      3.354      8.142
REMARK  Name = 
REMARK  15 active torsions:
REMARK  status: ('A' for Active; 'I' for Inactive)
REMARK    1  A    between atoms: C_1  and  O_2
REMARK    2  A    between atoms: O_2  and  C_3
REMARK    3  A    between atoms: C_3  and  C_5
REMARK    4  A    between atoms: C_7  and  C_8
REMARK    5  A    between atoms: C_8  and  C_13
REMARK    6  A    between atoms: C_9  and  C_10
REMARK    7  A    between atoms: C_10  and  C_11
REMARK    8  A    between atoms: C_11  and  N_12
REMARK    9  A    between atoms: C_17  and  O_18
REMARK   10  A    between atoms: O_18  and  C_19
REMARK   11  A    between atoms: C_20  and  C_21
REMARK   12  A    between atoms: C_21  and  O_23
REMARK   13  A    between atoms: O_23  and  C_24
REMARK   14  A    between atoms: C_29  and  O_30
REMARK   15  A    between atoms: O_30  and  C_31
REMARK                            x       y       z     vdW  Elec       q    Type
REMARK                         _______ _______ _______ _____ _____    ______ ____
ROOT
ATOM      1  C   UNL     1       1.281   8.811  20.757  0.00  0.00    +0.000 C 
ATOM      2  C   UNL     1       1.165   8.772  22.103  0.00  0.00    +0.000 C 
ENDROOT
BRANCH   1   5
ATOM      3  C   UNL     1      -0.787  11.262  18.697  0.00  0.00    +0.000 A 
ATOM      4  C   UNL     1      -0.407  10.096  19.399  0.00  0.00    +0.000 A 
ATOM      5  C   UNL     1       0.860   9.997  19.982  0.00  0.00    +0.000 A 
ATOM      6  C   UNL     1       1.746  11.067  19.848  0.00  0.00    +0.000 A 
ATOM      7  C   UNL     1       1.376  12.237  19.171  0.00  0.00    +0.000 A 
ATOM      8 CL   UNL     1       2.554  13.501  19.205  0.00  0.00    +0.000 Cl
ATOM      9  C   UNL     1       0.105  12.353  18.584  0.00  0.00    +0.000 A 
BRANCH   3  10
ATOM     10  C   UNL     1      -2.117  11.300  18.015  0.00  0.00    +0.000 C 
ATOM     11  O   UNL     1      -2.312  10.990  16.854  0.00  0.00    +0.000 OA
BRANCH  10  13
ATOM     12  C   UNL     1      -4.407  11.650  18.375  0.00  0.00    +0.000 C 
ATOM     13  O   UNL     1      -3.075  11.684  18.902  0.00  0.00    +0.000 OA
ENDBRANCH  10  13
ENDBRANCH   3  10
BRANCH   9  14
ATOM     14  O   UNL     1      -0.403  13.510  18.046  0.00  0.00    +0.000 OA
ATOM     15  C   UNL     1      -0.600  14.614  18.925  0.00  0.00    +0.000 C 
ENDBRANCH   9  14
ENDBRANCH   1   5
BRANCH   1  16
ATOM     16  C   UNL     1       1.856   7.600  20.126  0.00  0.00    +0.000 A 
ATOM     17  C   UNL     1       2.623   7.731  18.967  0.00  0.00    +0.000 A 
ATOM     18  C   UNL     1       3.151   6.608  18.306  0.00  0.00    +0.000 A 
ATOM     19 CL   UNL     1       4.054   7.000  16.881  0.00  0.00    +0.000 Cl
ATOM     20  C   UNL     1       2.923   5.314  18.805  0.00  0.00    +0.000 A 
ATOM     21  C   UNL     1       2.133   5.190  19.978  0.00  0.00    +0.000 A 
ATOM     22  C   UNL     1       1.607   6.323  20.625  0.00  0.00    +0.000 A 
BRANCH  20  23
ATOM     23  O   UNL     1       3.396   4.124  18.325  0.00  0.00    +0.000 OA
ATOM     24  C   UNL     1       3.112   3.655  17.021  0.00  0.00    +0.000 C 
ENDBRANCH  20  23
BRANCH  21  25
ATOM     25  C   UNL     1       1.796   3.837  20.523  0.00  0.00    +0.000 C 
ATOM     26  O   UNL     1       2.487   3.192  21.294  0.00  0.00    +0.000 OA
BRANCH  25  27
ATOM     27  O   UNL     1       0.600   3.429  20.016  0.00  0.00    +0.000 OA
ATOM     28  C   UNL     1       0.689   2.249  19.214  0.00  0.00    +0.000 C 
ENDBRANCH  25  27
ENDBRANCH  21  25
ENDBRANCH   1  16
BRANCH   2  29
ATOM     29  C   UNL     1       0.537   9.800  23.010  0.00  0.00    +0.000 C 
BRANCH  29  30
ATOM     30  C   UNL     1      -0.994   9.714  23.068  0.00  0.00    +0.000 C 
BRANCH  30  31
ATOM     31  N   UNL     1      -1.568  11.055  23.157  0.00  0.00    +0.000 NA
ATOM     32  H   UNL     1      -1.990  11.189  24.076  0.00  0.00    +0.000 HD
ATOM     33  H   UNL     1      -2.323  11.155  22.480  0.00  0.00    +0.000 HD
ENDBRANCH  30  31
ENDBRANCH  29  30
ENDBRANCH   2  29
TORSDOF 11
ENDMDL
