MODEL 1
REMARK VINA RESULT:      -6.7      0.000      0.000
REMARK  Name = 
REMARK  18 active torsions:
REMARK  status: ('A' for Active; 'I' for Inactive)
REMARK    1  A    between atoms: C_2  and  C_3
REMARK    2  A    between atoms: C_2  and  C_5
REMARK    3  A    between atoms: C_3  and  O_4
REMARK    4  A    between atoms: C_6  and  O_7
REMARK    5  A    between atoms: C_8  and  C_9
REMARK    6  A    between atoms: C_9  and  C_11
REMARK    7  A    between atoms: C_11  and  O_13
REMARK    8  A    between atoms: O_13  and  C_14
REMARK    9  A    between atoms: C_15  and  O_16
REMARK   10  A    between atoms: O_16  and  C_17
REMARK   11  A    between atoms: C_17  and  C_19
REMARK   12  A    between atoms: C_19  and  C_21
REMARK   13  A    between atoms: C_21  and  O_22
REMARK   14  A    between atoms: C_21  and  C_23
REMARK   15  A    between atoms: C_23  and  O_24
REMARK   16  A    between atoms: C_26  and  C_27
REMARK   17  A    between atoms: C_26  and  C_28
REMARK   18  A    between atoms: C_28  and  O_30
REMARK                            x       y       z     vdW  Elec       q    Type
REMARK                         _______ _______ _______ _____ _____    ______ ____
ROOT
ATOM      1  C   UNL     1       5.717   4.546  17.860  0.00  0.00    +0.000 C 
ATOM      2  C   UNL     1       4.734   4.060  18.987  0.00  0.00    +0.000 C 
ATOM      3  C   UNL     1       3.682   5.113  19.426  0.00  0.00    +0.000 C 
ATOM      4  C   UNL     1       3.147   6.064  18.318  0.00  0.00    +0.000 C 
ATOM      5  C   UNL     1       3.960   6.149  16.997  0.00  0.00    +0.000 C 
ATOM      6  C   UNL     1       4.839   4.926  16.598  0.00  0.00    +0.000 C 
ATOM      7  C   UNL     1       3.923   3.754  16.153  0.00  0.00    +0.000 C 
ENDROOT
BRANCH   2   8
ATOM      8  O   UNL     1       5.478   3.623  20.141  0.00  0.00    +0.000 OA
ATOM      9  H   UNL     1       4.868   3.595  20.901  0.00  0.00    +0.000 HD
ENDBRANCH   2   8
BRANCH   3  10
ATOM     10  C   UNL     1       2.616   4.579  20.404  0.00  0.00    +0.000 C 
ATOM     11  C   UNL     1       1.753   5.448  20.972  0.00  0.00    +0.000 C 
BRANCH  10  12
ATOM     12  C   UNL     1       2.381   3.158  20.807  0.00  0.00    +0.000 C 
ATOM     13  O   UNL     1       3.121   2.557  21.580  0.00  0.00    +0.000 OA
BRANCH  12  14
ATOM     14  O   UNL     1       1.278   2.612  20.246  0.00  0.00    +0.000 OA
ATOM     15  C   UNL     1       1.468   2.240  18.866  0.00  0.00    +0.000 C 
ENDBRANCH  12  14
ENDBRANCH  10  12
ENDBRANCH   3  10
BRANCH   1  17
ATOM     16  C   UNL     1       6.712   6.955  18.104  0.00  0.00    +0.000 C 
ATOM     17  C   UNL     1       6.786   5.621  18.287  0.00  0.00    +0.000 C 
BRANCH  17  18
ATOM     18  C   UNL     1       8.007   5.148  19.051  0.00  0.00    +0.000 C 
BRANCH  18  19
ATOM     19  O   UNL     1       7.835   5.436  20.428  0.00  0.00    +0.000 OA
ATOM     20  H   UNL     1       8.624   5.927  20.710  0.00  0.00    +0.000 HD
ENDBRANCH  18  19
ENDBRANCH  17  18
ENDBRANCH   1  17
BRANCH   6  21
ATOM     21  C   UNL     1       5.722   5.183  15.355  0.00  0.00    +0.000 C 
ATOM     22  C   UNL     1       6.576   4.325  14.780  0.00  0.00    +0.000 C 
BRANCH  21  23
ATOM     23  O   UNL     1       5.592   6.462  14.828  0.00  0.00    +0.000 OA
ATOM     24  H   UNL     1       6.269   7.042  15.214  0.00  0.00    +0.000 HD
ENDBRANCH  21  23
ENDBRANCH   6  21
BRANCH   4  25
ATOM     25  O   UNL     1       2.852   7.390  18.969  0.00  0.00    +0.000 OA
BRANCH  25  26
ATOM     26  C   UNL     1       2.122   8.394  18.411  0.00  0.00    +0.000 C 
ATOM     27  O   UNL     1       2.129   8.734  17.232  0.00  0.00    +0.000 OA
BRANCH  26  28
ATOM     28  C   UNL     1       1.314   9.209  19.372  0.00  0.00    +0.000 C 
ATOM     29  C   UNL     1       1.083   8.849  20.646  0.00  0.00    +0.000 C 
BRANCH  28  30
ATOM     30  C   UNL     1       0.772  10.535  18.838  0.00  0.00    +0.000 C 
BRANCH  30  31
ATOM     31  O   UNL     1       1.732  11.220  18.023  0.00  0.00    +0.000 OA
ATOM     32  H   UNL     1       1.896  10.662  17.236  0.00  0.00    +0.000 HD
ENDBRANCH  30  31
BRANCH  30  33
ATOM     33  C   UNL     1      -0.571  10.426  18.084  0.00  0.00    +0.000 C 
BRANCH  33  34
ATOM     34  O   UNL     1      -1.127  11.686  17.717  0.00  0.00    +0.000 OA
ATOM     35  H   UNL     1      -0.443  12.369  17.846  0.00  0.00    +0.000 HD
ENDBRANCH  33  34
ENDBRANCH  30  33
ENDBRANCH  28  30
ENDBRANCH  26  28
ENDBRANCH  25  26
ENDBRANCH   4  25
TORSDOF 16
ENDMDL
MODEL 2
REMARK VINA RESULT:      -6.7      1.455      1.889
REMARK  Name = 
REMARK  18 active torsions:
REMARK  status: ('A' for Active; 'I' for Inactive)
REMARK    1  A    between atoms: C_2  and  C_3
REMARK    2  A    between atoms: C_2  and  C_5
REMARK    3  A    between atoms: C_3  and  O_4
REMARK    4  A    between atoms: C_6  and  O_7
REMARK    5  A    between atoms: C_8  and  C_9
REMARK    6  A    between atoms: C_9  and  C_11
REMARK    7  A    between atoms: C_11  and  O_13
REMARK    8  A    between atoms: O_13  and  C_14
REMARK    9  A    between atoms: C_15  and  O_16
REMARK   10  A    between atoms: O_16  and  C_17
REMARK   11  A    between atoms: C_17  and  C_19
REMARK   12  A    between atoms: C_19  and  C_21
REMARK   13  A    between atoms: C_21  and  O_22
REMARK   14  A    between atoms: C_21  and  C_23
REMARK   15  A    between atoms: C_23  and  O_24
REMARK   16  A    between atoms: C_26  and  C_27
REMARK   17  A    between atoms: C_26  and  C_28
REMARK   18  A    between atoms: C_28  and  O_30
REMARK                            x       y       z     vdW  Elec       q    Type
REMARK                         _______ _______ _______ _____ _____    ______ ____
ROOT
ATOM      1  C   UNL     1       5.878   4.054  17.087  0.00  0.00    +0.000 C 
ATOM      2  C   UNL     1       4.483   3.585  17.639  0.00  0.00    +0.000 C 
ATOM      3  C   UNL     1       3.560   4.736  18.125  0.00  0.00    +0.000 C 
ATOM      4  C   UNL     1       3.650   6.076  17.342  0.00  0.00    +0.000 C 
ATOM      5  C   UNL     1       4.887   6.284  16.423  0.00  0.00    +0.000 C 
ATOM      6  C   UNL     1       5.603   5.019  15.863  0.00  0.00    +0.000 C 
ATOM      7  C   UNL     1       4.707   4.351  14.785  0.00  0.00    +0.000 C 
ENDROOT
BRANCH   2   8
ATOM      8  O   UNL     1       4.663   2.639  18.710  0.00  0.00    +0.000 OA
ATOM      9  H   UNL     1       4.226   1.805  18.454  0.00  0.00    +0.000 HD
ENDBRANCH   2   8
BRANCH   3  10
ATOM     10  C   UNL     1       2.133   4.292  18.504  0.00  0.00    +0.000 C 
ATOM     11  C   UNL     1       1.180   4.260  17.548  0.00  0.00    +0.000 C 
BRANCH  10  12
ATOM     12  C   UNL     1       1.646   3.846  19.845  0.00  0.00    +0.000 C 
ATOM     13  O   UNL     1       0.881   4.519  20.531  0.00  0.00    +0.000 OA
BRANCH  12  14
ATOM     14  O   UNL     1       2.120   2.635  20.218  0.00  0.00    +0.000 OA
ATOM     15  C   UNL     1       2.631   2.617  21.566  0.00  0.00    +0.000 C 
ENDBRANCH  12  14
ENDBRANCH  10  12
ENDBRANCH   3  10
BRANCH   1  17
ATOM     16  C   UNL     1       8.244   4.460  18.131  0.00  0.00    +0.000 C 
ATOM     17  C   UNL     1       6.903   4.593  18.156  0.00  0.00    +0.000 C 
BRANCH  17  18
ATOM     18  C   UNL     1       6.364   5.414  19.310  0.00  0.00    +0.000 C 
BRANCH  18  19
ATOM     19  O   UNL     1       7.388   5.588  20.276  0.00  0.00    +0.000 OA
ATOM     20  H   UNL     1       7.042   5.235  21.112  0.00  0.00    +0.000 HD
ENDBRANCH  18  19
ENDBRANCH  17  18
ENDBRANCH   1  17
BRANCH   6  21
ATOM     21  C   UNL     1       6.908   5.341  15.097  0.00  0.00    +0.000 C 
ATOM     22  C   UNL     1       7.343   4.765  13.967  0.00  0.00    +0.000 C 
BRANCH  21  23
ATOM     23  O   UNL     1       7.682   6.327  15.694  0.00  0.00    +0.000 OA
ATOM     24  H   UNL     1       8.581   5.987  15.844  0.00  0.00    +0.000 HD
ENDBRANCH  21  23
ENDBRANCH   6  21
BRANCH   4  25
ATOM     25  O   UNL     1       3.396   7.189  18.324  0.00  0.00    +0.000 OA
BRANCH  25  26
ATOM     26  C   UNL     1       2.536   8.226  18.131  0.00  0.00    +0.000 C 
ATOM     27  O   UNL     1       2.419   8.898  17.111  0.00  0.00    +0.000 OA
BRANCH  26  28
ATOM     28  C   UNL     1       1.738   8.628  19.332  0.00  0.00    +0.000 C 
ATOM     29  C   UNL     1       1.641   7.885  20.447  0.00  0.00    +0.000 C 
BRANCH  28  30
ATOM     30  C   UNL     1       1.041   9.987  19.250  0.00  0.00    +0.000 C 
BRANCH  30  31
ATOM     31  O   UNL     1       0.173  10.080  18.112  0.00  0.00    +0.000 OA
ATOM     32  H   UNL     1      -0.244  10.966  18.137  0.00  0.00    +0.000 HD
ENDBRANCH  30  31
BRANCH  30  33
ATOM     33  C   UNL     1       0.274  10.396  20.527  0.00  0.00    +0.000 C 
BRANCH  33  34
ATOM     34  O   UNL     1       1.037  11.203  21.421  0.00  0.00    +0.000 OA
ATOM     35  H   UNL     1       0.459  11.465  22.161  0.00  0.00    +0.000 HD
ENDBRANCH  33  34
ENDBRANCH  30  33
ENDBRANCH  28  30
ENDBRANCH  26  28
ENDBRANCH  25  26
ENDBRANCH   4  25
TORSDOF 16
ENDMDL
MODEL 3
REMARK VINA RESULT:      -6.5      1.108      1.600
REMARK  Name = 
REMARK  18 active torsions:
REMARK  status: ('A' for Active; 'I' for Inactive)
REMARK    1  A    between atoms: C_2  and  C_3
REMARK    2  A    between atoms: C_2  and  C_5
REMARK    3  A    between atoms: C_3  and  O_4
REMARK    4  A    between atoms: C_6  and  O_7
REMARK    5  A    between atoms: C_8  and  C_9
REMARK    6  A    between atoms: C_9  and  C_11
REMARK    7  A    between atoms: C_11  and  O_13
REMARK    8  A    between atoms: O_13  and  C_14
REMARK    9  A    between atoms: C_15  and  O_16
REMARK   10  A    between atoms: O_16  and  C_17
REMARK   11  A    between atoms: C_17  and  C_19
REMARK   12  A    between atoms: C_19  and  C_21
REMARK   13  A    between atoms: C_21  and  O_22
REMARK   14  A    between atoms: C_21  and  C_23
REMARK   15  A    between atoms: C_23  and  O_24
REMARK   16  A    between atoms: C_26  and  C_27
REMARK   17  A    between atoms: C_26  and  C_28
REMARK   18  A    between atoms: C_28  and  O_30
REMARK                            x       y       z     vdW  Elec       q    Type
REMARK                         _______ _______ _______ _____ _____    ______ ____
ROOT
ATOM      1  C   UNL     1       5.723   4.622  17.839  0.00  0.00    +0.000 C 
ATOM      2  C   UNL     1       4.782   4.046  18.959  0.00  0.00    +0.000 C 
ATOM      3  C   UNL     1       3.676   5.024  19.440  0.00  0.00    +0.000 C 
ATOM      4  C   UNL     1       3.077   5.977  18.368  0.00  0.00    +0.000 C 
ATOM      5  C   UNL     1       3.870   6.149  17.043  0.00  0.00    +0.000 C 
ATOM      6  C   UNL     1       4.812   4.991  16.598  0.00  0.00    +0.000 C 
ATOM      7  C   UNL     1       3.958   3.783  16.124  0.00  0.00    +0.000 C 
ENDROOT
BRANCH   2   8
ATOM      8  O   UNL     1       5.562   3.616  20.092  0.00  0.00    +0.000 OA
ATOM      9  H   UNL     1       4.951   3.455  20.835  0.00  0.00    +0.000 HD
ENDBRANCH   2   8
BRANCH   3  10
ATOM     10  C   UNL     1       2.653   4.400  20.411  0.00  0.00    +0.000 C 
ATOM     11  C   UNL     1       1.785   5.208  21.056  0.00  0.00    +0.000 C 
BRANCH  10  12
ATOM     12  C   UNL     1       2.466   2.951  20.728  0.00  0.00    +0.000 C 
ATOM     13  O   UNL     1       2.485   2.515  21.875  0.00  0.00    +0.000 OA
BRANCH  12  14
ATOM     14  O   UNL     1       2.267   2.179  19.635  0.00  0.00    +0.000 OA
ATOM     15  C   UNL     1       0.999   2.422  18.992  0.00  0.00    +0.000 C 
ENDBRANCH  12  14
ENDBRANCH  10  12
ENDBRANCH   3  10
BRANCH   1  17
ATOM     16  C   UNL     1       6.583   7.074  18.151  0.00  0.00    +0.000 C 
ATOM     17  C   UNL     1       6.735   5.742  18.290  0.00  0.00    +0.000 C 
BRANCH  17  18
ATOM     18  C   UNL     1       7.989   5.315  19.026  0.00  0.00    +0.000 C 
BRANCH  18  19
ATOM     19  O   UNL     1       7.779   5.450  20.422  0.00  0.00    +0.000 OA
ATOM     20  H   UNL     1       8.526   5.009  20.859  0.00  0.00    +0.000 HD
ENDBRANCH  18  19
ENDBRANCH  17  18
ENDBRANCH   1  17
BRANCH   6  21
ATOM     21  C   UNL     1       5.666   5.335  15.356  0.00  0.00    +0.000 C 
ATOM     22  C   UNL     1       6.552   4.541  14.739  0.00  0.00    +0.000 C 
BRANCH  21  23
ATOM     23  O   UNL     1       5.468   6.625  14.878  0.00  0.00    +0.000 OA
ATOM     24  H   UNL     1       6.268   7.155  15.035  0.00  0.00    +0.000 HD
ENDBRANCH  21  23
ENDBRANCH   6  21
BRANCH   4  25
ATOM     25  O   UNL     1       2.715   7.264  19.063  0.00  0.00    +0.000 OA
BRANCH  25  26
ATOM     26  C   UNL     1       2.136   8.342  18.468  0.00  0.00    +0.000 C 
ATOM     27  O   UNL     1       2.314   8.723  17.316  0.00  0.00    +0.000 OA
BRANCH  26  28
ATOM     28  C   UNL     1       1.279   9.183  19.361  0.00  0.00    +0.000 C 
ATOM     29  C   UNL     1       0.765  10.371  19.001  0.00  0.00    +0.000 C 
BRANCH  28  30
ATOM     30  C   UNL     1       0.968   8.598  20.739  0.00  0.00    +0.000 C 
BRANCH  30  31
ATOM     31  O   UNL     1       2.149   8.440  21.537  0.00  0.00    +0.000 OA
ATOM     32  H   UNL     1       2.114   9.116  22.244  0.00  0.00    +0.000 HD
ENDBRANCH  30  31
BRANCH  30  33
ATOM     33  C   UNL     1      -0.105   9.368  21.540  0.00  0.00    +0.000 C 
BRANCH  33  34
ATOM     34  O   UNL     1       0.433  10.219  22.549  0.00  0.00    +0.000 OA
ATOM     35  H   UNL     1       0.191  11.138  22.331  0.00  0.00    +0.000 HD
ENDBRANCH  33  34
ENDBRANCH  30  33
ENDBRANCH  28  30
ENDBRANCH  26  28
ENDBRANCH  25  26
ENDBRANCH   4  25
TORSDOF 16
ENDMDL
MODEL 4
REMARK VINA RESULT:      -6.4      1.784      5.952
REMARK  Name = 
REMARK  18 active torsions:
REMARK  status: ('A' for Active; 'I' for Inactive)
REMARK    1  A    between atoms: C_2  and  C_3
REMARK    2  A    between atoms: C_2  and  C_5
REMARK    3  A    between atoms: C_3  and  O_4
REMARK    4  A    between atoms: C_6  and  O_7
REMARK    5  A    between atoms: C_8  and  C_9
REMARK    6  A    between atoms: C_9  and  C_11
REMARK    7  A    between atoms: C_11  and  O_13
REMARK    8  A    between atoms: O_13  and  C_14
REMARK    9  A    between atoms: C_15  and  O_16
REMARK   10  A    between atoms: O_16  and  C_17
REMARK   11  A    between atoms: C_17  and  C_19
REMARK   12  A    between atoms: C_19  and  C_21
REMARK   13  A    between atoms: C_21  and  O_22
REMARK   14  A    between atoms: C_21  and  C_23
REMARK   15  A    between atoms: C_23  and  O_24
REMARK   16  A    between atoms: C_26  and  C_27
REMARK   17  A    between atoms: C_26  and  C_28
REMARK   18  A    between atoms: C_28  and  O_30
REMARK                            x       y       z     vdW  Elec       q    Type
REMARK                         _______ _______ _______ _____ _____    ______ ____
ROOT
ATOM      1  C   UNL     1       1.783   4.127  19.590  0.00  0.00    +0.000 C 
ATOM      2  C   UNL     1       1.416   5.654  19.673  0.00  0.00    +0.000 C 
ATOM      3  C   UNL     1       2.511   6.612  19.132  0.00  0.00    +0.000 C 
ATOM      4  C   UNL     1       3.345   6.101  17.923  0.00  0.00    +0.000 C 
ATOM      5  C   UNL     1       3.292   4.580  17.612  0.00  0.00    +0.000 C 
ATOM      6  C   UNL     1       2.033   3.783  18.066  0.00  0.00    +0.000 C 
ATOM      7  C   UNL     1       0.824   4.175  17.174  0.00  0.00    +0.000 C 
ENDROOT
BRANCH   2   8
ATOM      8  O   UNL     1       1.098   6.016  21.031  0.00  0.00    +0.000 OA
ATOM      9  H   UNL     1       1.808   5.679  21.608  0.00  0.00    +0.000 HD
ENDBRANCH   2   8
BRANCH   3  10
ATOM     10  C   UNL     1       2.082   8.091  19.056  0.00  0.00    +0.000 C 
ATOM     11  C   UNL     1       2.281   8.774  17.908  0.00  0.00    +0.000 C 
BRANCH  10  12
ATOM     12  C   UNL     1       1.420   8.902  20.123  0.00  0.00    +0.000 C 
ATOM     13  O   UNL     1       1.579   8.680  21.320  0.00  0.00    +0.000 OA
BRANCH  12  14
ATOM     14  O   UNL     1       0.645   9.901  19.641  0.00  0.00    +0.000 OA
ATOM     15  C   UNL     1       0.717  11.105  20.430  0.00  0.00    +0.000 C 
ENDBRANCH  12  14
ENDBRANCH  10  12
ENDBRANCH   3  10
BRANCH   1  17
ATOM     16  C   UNL     1       2.706   2.909  21.715  0.00  0.00    +0.000 C 
ATOM     17  C   UNL     1       2.893   3.624  20.588  0.00  0.00    +0.000 C 
BRANCH  17  18
ATOM     18  C   UNL     1       4.343   3.892  20.235  0.00  0.00    +0.000 C 
BRANCH  18  19
ATOM     19  O   UNL     1       4.998   2.659  19.990  0.00  0.00    +0.000 OA
ATOM     20  H   UNL     1       4.720   2.052  20.696  0.00  0.00    +0.000 HD
ENDBRANCH  18  19
ENDBRANCH  17  18
ENDBRANCH   1  17
BRANCH   6  21
ATOM     21  C   UNL     1       2.160   2.257  17.847  0.00  0.00    +0.000 C 
ATOM     22  C   UNL     1       3.247   1.587  17.441  0.00  0.00    +0.000 C 
BRANCH  21  23
ATOM     23  O   UNL     1       0.987   1.554  18.095  0.00  0.00    +0.000 OA
ATOM     24  H   UNL     1       0.224   2.092  17.825  0.00  0.00    +0.000 HD
ENDBRANCH  21  23
ENDBRANCH   6  21
BRANCH   4  25
ATOM     25  O   UNL     1       4.731   6.674  18.060  0.00  0.00    +0.000 OA
BRANCH  25  26
ATOM     26  C   UNL     1       5.629   6.809  17.047  0.00  0.00    +0.000 C 
ATOM     27  O   UNL     1       5.376   7.091  15.880  0.00  0.00    +0.000 OA
BRANCH  26  28
ATOM     28  C   UNL     1       7.046   6.477  17.397  0.00  0.00    +0.000 C 
ATOM     29  C   UNL     1       7.930   7.376  17.861  0.00  0.00    +0.000 C 
BRANCH  28  30
ATOM     30  C   UNL     1       7.452   5.012  17.236  0.00  0.00    +0.000 C 
BRANCH  30  31
ATOM     31  O   UNL     1       6.834   4.169  18.217  0.00  0.00    +0.000 OA
ATOM     32  H   UNL     1       6.265   3.533  17.737  0.00  0.00    +0.000 HD
ENDBRANCH  30  31
BRANCH  30  33
ATOM     33  C   UNL     1       7.218   4.430  15.825  0.00  0.00    +0.000 C 
BRANCH  33  34
ATOM     34  O   UNL     1       7.620   5.300  14.769  0.00  0.00    +0.000 OA
ATOM     35  H   UNL     1       8.559   5.526  14.904  0.00  0.00    +0.000 HD
ENDBRANCH  33  34
ENDBRANCH  30  33
ENDBRANCH  28  30
ENDBRANCH  26  28
ENDBRANCH  25  26
ENDBRANCH   4  25
TORSDOF 16
ENDMDL
MODEL 5
REMARK VINA RESULT:      -6.3      0.722      1.060
REMARK  Name = 
REMARK  18 active torsions:
REMARK  status: ('A' for Active; 'I' for Inactive)
REMARK    1  A    between atoms: C_2  and  C_3
REMARK    2  A    between atoms: C_2  and  C_5
REMARK    3  A    between atoms: C_3  and  O_4
REMARK    4  A    between atoms: C_6  and  O_7
REMARK    5  A    between atoms: C_8  and  C_9
REMARK    6  A    between atoms: C_9  and  C_11
REMARK    7  A    between atoms: C_11  and  O_13
REMARK    8  A    between atoms: O_13  and  C_14
REMARK    9  A    between atoms: C_15  and  O_16
REMARK   10  A    between atoms: O_16  and  C_17
REMARK   11  A    between atoms: C_17  and  C_19
REMARK   12  A    between atoms: C_19  and  C_21
REMARK   13  A    between atoms: C_21  and  O_22
REMARK   14  A    between atoms: C_21  and  C_23
REMARK   15  A    between atoms: C_23  and  O_24
REMARK   16  A    between atoms: C_26  and  C_27
REMARK   17  A    between atoms: C_26  and  C_28
REMARK   18  A    between atoms: C_28  and  O_30
REMARK                            x       y       z     vdW  Elec       q    Type
REMARK                         _______ _______ _______ _____ _____    ______ ____
ROOT
ATOM      1  C   UNL     1       5.784   4.668  17.935  0.00  0.00    +0.000 C 
ATOM      2  C   UNL     1       4.780   4.211  19.055  0.00  0.00    +0.000 C 
ATOM      3  C   UNL     1       3.713   5.272  19.439  0.00  0.00    +0.000 C 
ATOM      4  C   UNL     1       3.198   6.186  18.292  0.00  0.00    +0.000 C 
ATOM      5  C   UNL     1       4.039   6.235  16.986  0.00  0.00    +0.000 C 
ATOM      6  C   UNL     1       4.932   5.005  16.644  0.00  0.00    +0.000 C 
ATOM      7  C   UNL     1       4.031   3.815  16.215  0.00  0.00    +0.000 C 
ENDROOT
BRANCH   2   8
ATOM      8  O   UNL     1       5.500   3.814  20.238  0.00  0.00    +0.000 OA
ATOM      9  H   UNL     1       4.991   3.109  20.680  0.00  0.00    +0.000 HD
ENDBRANCH   2   8
BRANCH   3  10
ATOM     10  C   UNL     1       2.629   4.763  20.410  0.00  0.00    +0.000 C 
ATOM     11  C   UNL     1       2.054   5.634  21.267  0.00  0.00    +0.000 C 
BRANCH  10  12
ATOM     12  C   UNL     1       2.083   3.375  20.518  0.00  0.00    +0.000 C 
ATOM     13  O   UNL     1       2.439   2.588  21.391  0.00  0.00    +0.000 OA
BRANCH  12  14
ATOM     14  O   UNL     1       1.162   3.080  19.572  0.00  0.00    +0.000 OA
ATOM     15  C   UNL     1       1.604   2.067  18.647  0.00  0.00    +0.000 C 
ENDBRANCH  12  14
ENDBRANCH  10  12
ENDBRANCH   3  10
BRANCH   1  17
ATOM     16  C   UNL     1       7.893   5.597  19.176  0.00  0.00    +0.000 C 
ATOM     17  C   UNL     1       6.839   5.761  18.351  0.00  0.00    +0.000 C 
BRANCH  17  18
ATOM     18  C   UNL     1       6.730   7.135  17.720  0.00  0.00    +0.000 C 
BRANCH  18  19
ATOM     19  O   UNL     1       7.820   7.328  16.834  0.00  0.00    +0.000 OA
ATOM     20  H   UNL     1       8.047   8.271  16.875  0.00  0.00    +0.000 HD
ENDBRANCH  18  19
ENDBRANCH  17  18
ENDBRANCH   1  17
BRANCH   6  21
ATOM     21  C   UNL     1       5.841   5.228  15.413  0.00  0.00    +0.000 C 
ATOM     22  C   UNL     1       6.802   4.411  14.960  0.00  0.00    +0.000 C 
BRANCH  21  23
ATOM     23  O   UNL     1       5.606   6.426  14.751  0.00  0.00    +0.000 OA
ATOM     24  H   UNL     1       5.451   6.251  13.807  0.00  0.00    +0.000 HD
ENDBRANCH  21  23
ENDBRANCH   6  21
BRANCH   4  25
ATOM     25  O   UNL     1       2.884   7.530  18.894  0.00  0.00    +0.000 OA
BRANCH  25  26
ATOM     26  C   UNL     1       1.986   8.424  18.398  0.00  0.00    +0.000 C 
ATOM     27  O   UNL     1       1.735   8.625  17.213  0.00  0.00    +0.000 OA
BRANCH  26  28
ATOM     28  C   UNL     1       1.327   9.303  19.414  0.00  0.00    +0.000 C 
ATOM     29  C   UNL     1       0.990   8.894  20.648  0.00  0.00    +0.000 C 
BRANCH  28  30
ATOM     30  C   UNL     1       1.078  10.750  18.989  0.00  0.00    +0.000 C 
BRANCH  30  31
ATOM     31  O   UNL     1       2.011  11.188  17.992  0.00  0.00    +0.000 OA
ATOM     32  H   UNL     1       2.619  10.442  17.815  0.00  0.00    +0.000 HD
ENDBRANCH  30  31
BRANCH  30  33
ATOM     33  C   UNL     1      -0.364  11.045  18.520  0.00  0.00    +0.000 C 
BRANCH  33  34
ATOM     34  O   UNL     1      -0.786  10.243  17.419  0.00  0.00    +0.000 OA
ATOM     35  H   UNL     1      -1.759  10.189  17.440  0.00  0.00    +0.000 HD
ENDBRANCH  33  34
ENDBRANCH  30  33
ENDBRANCH  28  30
ENDBRANCH  26  28
ENDBRANCH  25  26
ENDBRANCH   4  25
TORSDOF 16
ENDMDL
MODEL 6
REMARK VINA RESULT:      -6.3      1.324      1.763
REMARK  Name = 
REMARK  18 active torsions:
REMARK  status: ('A' for Active; 'I' for Inactive)
REMARK    1  A    between atoms: C_2  and  C_3
REMARK    2  A    between atoms: C_2  and  C_5
REMARK    3  A    between atoms: C_3  and  O_4
REMARK    4  A    between atoms: C_6  and  O_7
REMARK    5  A    between atoms: C_8  and  C_9
REMARK    6  A    between atoms: C_9  and  C_11
REMARK    7  A    between atoms: C_11  and  O_13
REMARK    8  A    between atoms: O_13  and  C_14
REMARK    9  A    between atoms: C_15  and  O_16
REMARK   10  A    between atoms: O_16  and  C_17
REMARK   11  A    between atoms: C_17  and  C_19
REMARK   12  A    between atoms: C_19  and  C_21
REMARK   13  A    between atoms: C_21  and  O_22
REMARK   14  A    between atoms: C_21  and  C_23
REMARK   15  A    between atoms: C_23  and  O_24
REMARK   16  A    between atoms: C_26  and  C_27
REMARK   17  A    between atoms: C_26  and  C_28
REMARK   18  A    between atoms: C_28  and  O_30
REMARK                            x       y       z     vdW  Elec       q    Type
REMARK                         _______ _______ _______ _____ _____    ______ ____
ROOT
ATOM      1  C   UNL     1       5.880   4.069  16.984  0.00  0.00    +0.000 C 
ATOM      2  C   UNL     1       4.476   3.556  17.469  0.00  0.00    +0.000 C 
ATOM      3  C   UNL     1       3.526   4.668  17.990  0.00  0.00    +0.000 C 
ATOM      4  C   UNL     1       3.622   6.050  17.285  0.00  0.00    +0.000 C 
ATOM      5  C   UNL     1       4.881   6.321  16.415  0.00  0.00    +0.000 C 
ATOM      6  C   UNL     1       5.629   5.097  15.808  0.00  0.00    +0.000 C 
ATOM      7  C   UNL     1       4.771   4.480  14.669  0.00  0.00    +0.000 C 
ENDROOT
BRANCH   2   8
ATOM      8  O   UNL     1       4.637   2.553  18.491  0.00  0.00    +0.000 OA
ATOM      9  H   UNL     1       3.860   2.593  19.079  0.00  0.00    +0.000 HD
ENDBRANCH   2   8
BRANCH   3  10
ATOM     10  C   UNL     1       2.094   4.189  18.303  0.00  0.00    +0.000 C 
ATOM     11  C   UNL     1       1.084   4.566  17.492  0.00  0.00    +0.000 C 
BRANCH  10  12
ATOM     12  C   UNL     1       1.657   3.299  19.422  0.00  0.00    +0.000 C 
ATOM     13  O   UNL     1       0.571   2.727  19.430  0.00  0.00    +0.000 OA
BRANCH  12  14
ATOM     14  O   UNL     1       2.574   3.182  20.410  0.00  0.00    +0.000 OA
ATOM     15  C   UNL     1       2.259   3.974  21.573  0.00  0.00    +0.000 C 
ENDBRANCH  12  14
ENDBRANCH  10  12
ENDBRANCH   3  10
BRANCH   1  17
ATOM     16  C   UNL     1       8.211   4.444  18.114  0.00  0.00    +0.000 C 
ATOM     17  C   UNL     1       6.868   4.558  18.109  0.00  0.00    +0.000 C 
BRANCH  17  18
ATOM     18  C   UNL     1       6.286   5.306  19.293  0.00  0.00    +0.000 C 
BRANCH  18  19
ATOM     19  O   UNL     1       7.311   5.540  20.245  0.00  0.00    +0.000 OA
ATOM     20  H   UNL     1       8.042   4.941  20.018  0.00  0.00    +0.000 HD
ENDBRANCH  18  19
ENDBRANCH  17  18
ENDBRANCH   1  17
BRANCH   6  21
ATOM     21  C   UNL     1       6.950   5.474  15.097  0.00  0.00    +0.000 C 
ATOM     22  C   UNL     1       7.426   4.963  13.954  0.00  0.00    +0.000 C 
BRANCH  21  23
ATOM     23  O   UNL     1       7.693   6.437  15.768  0.00  0.00    +0.000 OA
ATOM     24  H   UNL     1       8.613   6.136  15.853  0.00  0.00    +0.000 HD
ENDBRANCH  21  23
ENDBRANCH   6  21
BRANCH   4  25
ATOM     25  O   UNL     1       3.326   7.105  18.319  0.00  0.00    +0.000 OA
BRANCH  25  26
ATOM     26  C   UNL     1       2.436   8.123  18.171  0.00  0.00    +0.000 C 
ATOM     27  O   UNL     1       2.236   8.776  17.151  0.00  0.00    +0.000 OA
BRANCH  26  28
ATOM     28  C   UNL     1       1.715   8.530  19.418  0.00  0.00    +0.000 C 
ATOM     29  C   UNL     1       1.603   7.748  20.504  0.00  0.00    +0.000 C 
BRANCH  28  30
ATOM     30  C   UNL     1       1.120   9.938  19.420  0.00  0.00    +0.000 C 
BRANCH  30  31
ATOM     31  O   UNL     1       1.919  10.862  18.667  0.00  0.00    +0.000 OA
ATOM     32  H   UNL     1       1.305  11.420  18.147  0.00  0.00    +0.000 HD
ENDBRANCH  30  31
BRANCH  30  33
ATOM     33  C   UNL     1      -0.350  10.018  18.953  0.00  0.00    +0.000 C 
BRANCH  33  34
ATOM     34  O   UNL     1      -0.507   9.959  17.538  0.00  0.00    +0.000 OA
ATOM     35  H   UNL     1      -0.667  10.863  17.212  0.00  0.00    +0.000 HD
ENDBRANCH  33  34
ENDBRANCH  30  33
ENDBRANCH  28  30
ENDBRANCH  26  28
ENDBRANCH  25  26
ENDBRANCH   4  25
TORSDOF 16
ENDMDL
MODEL 7
REMARK VINA RESULT:      -6.3      1.880      5.917
REMARK  Name = 
REMARK  18 active torsions:
REMARK  status: ('A' for Active; 'I' for Inactive)
REMARK    1  A    between atoms: C_2  and  C_3
REMARK    2  A    between atoms: C_2  and  C_5
REMARK    3  A    between atoms: C_3  and  O_4
REMARK    4  A    between atoms: C_6  and  O_7
REMARK    5  A    between atoms: C_8  and  C_9
REMARK    6  A    between atoms: C_9  and  C_11
REMARK    7  A    between atoms: C_11  and  O_13
REMARK    8  A    between atoms: O_13  and  C_14
REMARK    9  A    between atoms: C_15  and  O_16
REMARK   10  A    between atoms: O_16  and  C_17
REMARK   11  A    between atoms: C_17  and  C_19
REMARK   12  A    between atoms: C_19  and  C_21
REMARK   13  A    between atoms: C_21  and  O_22
REMARK   14  A    between atoms: C_21  and  C_23
REMARK   15  A    between atoms: C_23  and  O_24
REMARK   16  A    between atoms: C_26  and  C_27
REMARK   17  A    between atoms: C_26  and  C_28
REMARK   18  A    between atoms: C_28  and  O_30
REMARK                            x       y       z     vdW  Elec       q    Type
REMARK                         _______ _______ _______ _____ _____    ______ ____
ROOT
ATOM      1  C   UNL     1       2.056   4.174  19.481  0.00  0.00    +0.000 C 
ATOM      2  C   UNL     1       1.565   5.659  19.637  0.00  0.00    +0.000 C 
ATOM      3  C   UNL     1       2.527   6.724  19.044  0.00  0.00    +0.000 C 
ATOM      4  C   UNL     1       3.307   6.318  17.761  0.00  0.00    +0.000 C 
ATOM      5  C   UNL     1       3.364   4.805  17.410  0.00  0.00    +0.000 C 
ATOM      6  C   UNL     1       2.218   3.888  17.933  0.00  0.00    +0.000 C 
ATOM      7  C   UNL     1       0.913   4.191  17.147  0.00  0.00    +0.000 C 
ENDROOT
BRANCH   2   8
ATOM      8  O   UNL     1       1.322   5.960  21.025  0.00  0.00    +0.000 OA
ATOM      9  H   UNL     1       2.174   5.915  21.498  0.00  0.00    +0.000 HD
ENDBRANCH   2   8
BRANCH   3  10
ATOM     10  C   UNL     1       1.966   8.160  19.044  0.00  0.00    +0.000 C 
ATOM     11  C   UNL     1       2.109   8.920  17.938  0.00  0.00    +0.000 C 
BRANCH  10  12
ATOM     12  C   UNL     1       1.227   8.847  20.147  0.00  0.00    +0.000 C 
ATOM     13  O   UNL     1       0.239   9.548  19.948  0.00  0.00    +0.000 OA
BRANCH  12  14
ATOM     14  O   UNL     1       1.747   8.615  21.374  0.00  0.00    +0.000 OA
ATOM     15  C   UNL     1       0.993   9.234  22.436  0.00  0.00    +0.000 C 
ENDBRANCH  12  14
ENDBRANCH  10  12
ENDBRANCH   3  10
BRANCH   1  17
ATOM     16  C   UNL     1       4.543   4.212  20.296  0.00  0.00    +0.000 C 
ATOM     17  C   UNL     1       3.280   3.749  20.378  0.00  0.00    +0.000 C 
BRANCH  17  18
ATOM     18  C   UNL     1       3.031   2.770  21.508  0.00  0.00    +0.000 C 
BRANCH  18  19
ATOM     19  O   UNL     1       1.839   3.134  22.184  0.00  0.00    +0.000 OA
ATOM     20  H   UNL     1       1.885   4.094  22.331  0.00  0.00    +0.000 HD
ENDBRANCH  18  19
ENDBRANCH  17  18
ENDBRANCH   1  17
BRANCH   6  21
ATOM     21  C   UNL     1       2.460   2.385  17.660  0.00  0.00    +0.000 C 
ATOM     22  C   UNL     1       3.612   1.806  17.296  0.00  0.00    +0.000 C 
BRANCH  21  23
ATOM     23  O   UNL     1       1.324   1.598  17.804  0.00  0.00    +0.000 OA
ATOM     24  H   UNL     1       0.812   1.905  18.571  0.00  0.00    +0.000 HD
ENDBRANCH  21  23
ENDBRANCH   6  21
BRANCH   4  25
ATOM     25  O   UNL     1       4.644   7.008  17.811  0.00  0.00    +0.000 OA
BRANCH  25  26
ATOM     26  C   UNL     1       5.650   6.839  16.911  0.00  0.00    +0.000 C 
ATOM     27  O   UNL     1       5.529   6.703  15.697  0.00  0.00    +0.000 OA
BRANCH  26  28
ATOM     28  C   UNL     1       7.021   6.710  17.498  0.00  0.00    +0.000 C 
ATOM     29  C   UNL     1       7.878   7.737  17.625  0.00  0.00    +0.000 C 
BRANCH  28  30
ATOM     30  C   UNL     1       7.409   5.319  18.000  0.00  0.00    +0.000 C 
BRANCH  30  31
ATOM     31  O   UNL     1       7.938   4.496  16.952  0.00  0.00    +0.000 OA
ATOM     32  H   UNL     1       7.179   4.165  16.431  0.00  0.00    +0.000 HD
ENDBRANCH  30  31
BRANCH  30  33
ATOM     33  C   UNL     1       8.374   5.315  19.206  0.00  0.00    +0.000 C 
BRANCH  33  34
ATOM     34  O   UNL     1       7.727   5.519  20.460  0.00  0.00    +0.000 OA
ATOM     35  H   UNL     1       7.625   4.651  20.893  0.00  0.00    +0.000 HD
ENDBRANCH  33  34
ENDBRANCH  30  33
ENDBRANCH  28  30
ENDBRANCH  26  28
ENDBRANCH  25  26
ENDBRANCH   4  25
TORSDOF 16
ENDMDL
MODEL 8
REMARK VINA RESULT:      -6.2      0.831      1.308
REMARK  Name = 
REMARK  18 active torsions:
REMARK  status: ('A' for Active; 'I' for Inactive)
REMARK    1  A    between atoms: C_2  and  C_3
REMARK    2  A    between atoms: C_2  and  C_5
REMARK    3  A    between atoms: C_3  and  O_4
REMARK    4  A    between atoms: C_6  and  O_7
REMARK    5  A    between atoms: C_8  and  C_9
REMARK    6  A    between atoms: C_9  and  C_11
REMARK    7  A    between atoms: C_11  and  O_13
REMARK    8  A    between atoms: O_13  and  C_14
REMARK    9  A    between atoms: C_15  and  O_16
REMARK   10  A    between atoms: O_16  and  C_17
REMARK   11  A    between atoms: C_17  and  C_19
REMARK   12  A    between atoms: C_19  and  C_21
REMARK   13  A    between atoms: C_21  and  O_22
REMARK   14  A    between atoms: C_21  and  C_23
REMARK   15  A    between atoms: C_23  and  O_24
REMARK   16  A    between atoms: C_26  and  C_27
REMARK   17  A    between atoms: C_26  and  C_28
REMARK   18  A    between atoms: C_28  and  O_30
REMARK                            x       y       z     vdW  Elec       q    Type
REMARK                         _______ _______ _______ _____ _____    ______ ____
ROOT
ATOM      1  C   UNL     1       5.605   4.376  17.906  0.00  0.00    +0.000 C 
ATOM      2  C   UNL     1       4.624   3.938  19.054  0.00  0.00    +0.000 C 
ATOM      3  C   UNL     1       3.613   5.032  19.492  0.00  0.00    +0.000 C 
ATOM      4  C   UNL     1       3.094   5.986  18.379  0.00  0.00    +0.000 C 
ATOM      5  C   UNL     1       3.891   6.024  17.045  0.00  0.00    +0.000 C 
ATOM      6  C   UNL     1       4.723   4.767  16.652  0.00  0.00    +0.000 C 
ATOM      7  C   UNL     1       3.762   3.620  16.237  0.00  0.00    +0.000 C 
ENDROOT
BRANCH   2   8
ATOM      8  O   UNL     1       5.369   3.494  20.204  0.00  0.00    +0.000 OA
ATOM      9  H   UNL     1       4.911   2.719  20.580  0.00  0.00    +0.000 HD
ENDBRANCH   2   8
BRANCH   3  10
ATOM     10  C   UNL     1       2.544   4.549  20.493  0.00  0.00    +0.000 C 
ATOM     11  C   UNL     1       1.692   5.448  21.028  0.00  0.00    +0.000 C 
BRANCH  10  12
ATOM     12  C   UNL     1       2.296   3.148  20.952  0.00  0.00    +0.000 C 
ATOM     13  O   UNL     1       2.983   2.598  21.808  0.00  0.00    +0.000 OA
BRANCH  12  14
ATOM     14  O   UNL     1       1.243   2.557  20.341  0.00  0.00    +0.000 OA
ATOM     15  C   UNL     1       1.568   2.024  19.041  0.00  0.00    +0.000 C 
ENDBRANCH  12  14
ENDBRANCH  10  12
ENDBRANCH   3  10
BRANCH   1  17
ATOM     16  C   UNL     1       7.164   5.695  19.544  0.00  0.00    +0.000 C 
ATOM     17  C   UNL     1       6.716   5.420  18.303  0.00  0.00    +0.000 C 
BRANCH  17  18
ATOM     18  C   UNL     1       7.430   6.160  17.188  0.00  0.00    +0.000 C 
BRANCH  18  19
ATOM     19  O   UNL     1       7.056   7.528  17.224  0.00  0.00    +0.000 OA
ATOM     20  H   UNL     1       7.801   8.008  17.622  0.00  0.00    +0.000 HD
ENDBRANCH  18  19
ENDBRANCH  17  18
ENDBRANCH   1  17
BRANCH   6  21
ATOM     21  C   UNL     1       5.596   4.977  15.393  0.00  0.00    +0.000 C 
ATOM     22  C   UNL     1       6.354   4.061  14.774  0.00  0.00    +0.000 C 
BRANCH  21  23
ATOM     23  O   UNL     1       5.571   6.276  14.902  0.00  0.00    +0.000 OA
ATOM     24  H   UNL     1       5.469   6.900  15.640  0.00  0.00    +0.000 HD
ENDBRANCH  21  23
ENDBRANCH   6  21
BRANCH   4  25
ATOM     25  O   UNL     1       2.854   7.330  19.013  0.00  0.00    +0.000 OA
BRANCH  25  26
ATOM     26  C   UNL     1       2.220   8.377  18.420  0.00  0.00    +0.000 C 
ATOM     27  O   UNL     1       2.362   8.755  17.261  0.00  0.00    +0.000 OA
BRANCH  26  28
ATOM     28  C   UNL     1       1.344   9.191  19.320  0.00  0.00    +0.000 C 
ATOM     29  C   UNL     1       1.137   8.906  20.617  0.00  0.00    +0.000 C 
BRANCH  28  30
ATOM     30  C   UNL     1       0.701  10.428  18.693  0.00  0.00    +0.000 C 
BRANCH  30  31
ATOM     31  O   UNL     1      -0.575  10.726  19.276  0.00  0.00    +0.000 OA
ATOM     32  H   UNL     1      -1.023  11.364  18.684  0.00  0.00    +0.000 HD
ENDBRANCH  30  31
BRANCH  30  33
ATOM     33  C   UNL     1       1.588  11.692  18.703  0.00  0.00    +0.000 C 
BRANCH  33  34
ATOM     34  O   UNL     1       2.438  11.806  17.564  0.00  0.00    +0.000 OA
ATOM     35  H   UNL     1       2.023  11.322  16.826  0.00  0.00    +0.000 HD
ENDBRANCH  33  34
ENDBRANCH  30  33
ENDBRANCH  28  30
ENDBRANCH  26  28
ENDBRANCH  25  26
ENDBRANCH   4  25
TORSDOF 16
ENDMDL
MODEL 9
REMARK VINA RESULT:      -6.2      1.359      1.883
REMARK  Name = 
REMARK  18 active torsions:
REMARK  status: ('A' for Active; 'I' for Inactive)
REMARK    1  A    between atoms: C_2  and  C_3
REMARK    2  A    between atoms: C_2  and  C_5
REMARK    3  A    between atoms: C_3  and  O_4
REMARK    4  A    between atoms: C_6  and  O_7
REMARK    5  A    between atoms: C_8  and  C_9
REMARK    6  A    between atoms: C_9  and  C_11
REMARK    7  A    between atoms: C_11  and  O_13
REMARK    8  A    between atoms: O_13  and  C_14
REMARK    9  A    between atoms: C_15  and  O_16
REMARK   10  A    between atoms: O_16  and  C_17
REMARK   11  A    between atoms: C_17  and  C_19
REMARK   12  A    between atoms: C_19  and  C_21
REMARK   13  A    between atoms: C_21  and  O_22
REMARK   14  A    between atoms: C_21  and  C_23
REMARK   15  A    between atoms: C_23  and  O_24
REMARK   16  A    between atoms: C_26  and  C_27
REMARK   17  A    between atoms: C_26  and  C_28
REMARK   18  A    between atoms: C_28  and  O_30
REMARK                            x       y       z     vdW  Elec       q    Type
REMARK                         _______ _______ _______ _____ _____    ______ ____
ROOT
ATOM      1  C   UNL     1       6.039   4.193  17.204  0.00  0.00    +0.000 C 
ATOM      2  C   UNL     1       4.707   3.733  17.901  0.00  0.00    +0.000 C 
ATOM      3  C   UNL     1       3.760   4.891  18.315  0.00  0.00    +0.000 C 
ATOM      4  C   UNL     1       3.732   6.134  17.381  0.00  0.00    +0.000 C 
ATOM      5  C   UNL     1       4.895   6.286  16.362  0.00  0.00    +0.000 C 
ATOM      6  C   UNL     1       5.638   4.997  15.900  0.00  0.00    +0.000 C 
ATOM      7  C   UNL     1       4.710   4.170  14.970  0.00  0.00    +0.000 C 
ENDROOT
BRANCH   2   8
ATOM      8  O   UNL     1       5.003   2.926  19.056  0.00  0.00    +0.000 OA
ATOM      9  H   UNL     1       4.329   2.223  19.116  0.00  0.00    +0.000 HD
ENDBRANCH   2   8
BRANCH   3  10
ATOM     10  C   UNL     1       2.385   4.433  18.840  0.00  0.00    +0.000 C 
ATOM     11  C   UNL     1       1.445   4.033  17.957  0.00  0.00    +0.000 C 
BRANCH  10  12
ATOM     12  C   UNL     1       1.938   4.344  20.264  0.00  0.00    +0.000 C 
ATOM     13  O   UNL     1       0.900   4.859  20.668  0.00  0.00    +0.000 OA
BRANCH  12  14
ATOM     14  O   UNL     1       2.781   3.637  21.052  0.00  0.00    +0.000 OA
ATOM     15  C   UNL     1       2.184   2.443  21.594  0.00  0.00    +0.000 C 
ENDBRANCH  12  14
ENDBRANCH  10  12
ENDBRANCH   3  10
BRANCH   1  17
ATOM     16  C   UNL     1       8.334   4.445  18.437  0.00  0.00    +0.000 C 
ATOM     17  C   UNL     1       7.101   4.896  18.131  0.00  0.00    +0.000 C 
BRANCH  17  18
ATOM     18  C   UNL     1       6.762   6.261  18.697  0.00  0.00    +0.000 C 
BRANCH  18  19
ATOM     19  O   UNL     1       7.764   7.187  18.313  0.00  0.00    +0.000 OA
ATOM     20  H   UNL     1       7.842   7.828  19.039  0.00  0.00    +0.000 HD
ENDBRANCH  18  19
ENDBRANCH  17  18
ENDBRANCH   1  17
BRANCH   6  21
ATOM     21  C   UNL     1       6.873   5.283  15.014  0.00  0.00    +0.000 C 
ATOM     22  C   UNL     1       7.164   4.724  13.831  0.00  0.00    +0.000 C 
BRANCH  21  23
ATOM     23  O   UNL     1       7.751   6.213  15.556  0.00  0.00    +0.000 OA
ATOM     24  H   UNL     1       7.432   6.488  16.432  0.00  0.00    +0.000 HD
ENDBRANCH  21  23
ENDBRANCH   6  21
BRANCH   4  25
ATOM     25  O   UNL     1       3.485   7.342  18.246  0.00  0.00    +0.000 OA
BRANCH  25  26
ATOM     26  C   UNL     1       2.547   8.299  18.011  0.00  0.00    +0.000 C 
ATOM     27  O   UNL     1       2.386   8.922  16.966  0.00  0.00    +0.000 OA
BRANCH  26  28
ATOM     28  C   UNL     1       1.706   8.677  19.190  0.00  0.00    +0.000 C 
ATOM     29  C   UNL     1       1.784   8.071  20.387  0.00  0.00    +0.000 C 
BRANCH  28  30
ATOM     30  C   UNL     1       0.746   9.848  18.982  0.00  0.00    +0.000 C 
BRANCH  30  31
ATOM     31  O   UNL     1      -0.394   9.771  19.848  0.00  0.00    +0.000 OA
ATOM     32  H   UNL     1      -0.837  10.644  19.824  0.00  0.00    +0.000 HD
ENDBRANCH  30  31
BRANCH  30  33
ATOM     33  C   UNL     1       1.397  11.244  19.097  0.00  0.00    +0.000 C 
BRANCH  33  34
ATOM     34  O   UNL     1       1.948  11.724  17.873  0.00  0.00    +0.000 OA
ATOM     35  H   UNL     1       2.335  12.603  18.039  0.00  0.00    +0.000 HD
ENDBRANCH  33  34
ENDBRANCH  30  33
ENDBRANCH  28  30
ENDBRANCH  26  28
ENDBRANCH  25  26
ENDBRANCH   4  25
TORSDOF 16
ENDMDL
