MODEL 1
REMARK VINA RESULT:      -7.3      0.000      0.000
REMARK  Name = 
REMARK  12 active torsions:
REMARK  status: ('A' for Active; 'I' for Inactive)
REMARK    1  A    between atoms: C_1  and  C_2
REMARK    2  A    between atoms: C_2  and  C_3
REMARK    3  A    between atoms: C_3  and  C_4
REMARK    4  A    between atoms: C_4  and  N_5
REMARK    5  A    between atoms: N_5  and  C_6
REMARK    6  A    between atoms: N_5  and  C_21
REMARK    7  A    between atoms: C_6  and  C_7
REMARK    8  A    between atoms: N_11  and  C_12
REMARK    9  A    between atoms: C_12  and  C_13
REMARK   10  A    between atoms: C_16  and  C_17
REMARK   11  A    between atoms: C_24  and  O_25
REMARK   12  A    between atoms: O_25  and  C_26
REMARK                            x       y       z     vdW  Elec       q    Type
REMARK                         _______ _______ _______ _____ _____    ______ ____
ROOT
ATOM      1  N   UNL     1       0.614  10.556  18.899  0.00  0.00    +0.000 N 
ENDROOT
BRANCH   1   2
ATOM      2  C   UNL     1      -0.658  10.719  18.304  0.00  0.00    +0.000 A 
ATOM      3  C   UNL     1      -1.249   9.749  17.464  0.00  0.00    +0.000 A 
ATOM      4  C   UNL     1      -2.553   9.880  16.960  0.00  0.00    +0.000 A 
ATOM      5  C   UNL     1      -3.324  10.990  17.283  0.00  0.00    +0.000 A 
ATOM      6  C   UNL     1      -2.742  12.009  18.025  0.00  0.00    +0.000 A 
ATOM      7  C   UNL     1      -1.452  11.855  18.546  0.00  0.00    +0.000 A 
BRANCH   5   8
ATOM      8  O   UNL     1      -4.619  11.024  16.818  0.00  0.00    +0.000 OA
BRANCH   8   9
ATOM      9  C   UNL     1      -5.633  11.387  17.680  0.00  0.00    +0.000 A 
ATOM     10  C   UNL     1      -6.272  12.600  17.408  0.00  0.00    +0.000 A 
ATOM     11  C   UNL     1      -7.293  13.059  18.245  0.00  0.00    +0.000 A 
ATOM     12  C   UNL     1      -7.677  12.308  19.356  0.00  0.00    +0.000 A 
ATOM     13  C   UNL     1      -7.068  11.081  19.610  0.00  0.00    +0.000 A 
ATOM     14  C   UNL     1      -6.072  10.607  18.756  0.00  0.00    +0.000 A 
ENDBRANCH   8   9
ENDBRANCH   5   8
ENDBRANCH   1   2
BRANCH   1  15
ATOM     15  C   UNL     1       1.731  10.157  18.016  0.00  0.00    +0.000 C 
BRANCH  15  16
ATOM     16  C   UNL     1       1.989   8.660  17.801  0.00  0.00    +0.000 C 
BRANCH  16  18
ATOM     17  C   UNL     1       2.897   6.536  18.815  0.00  0.00    +0.000 C 
ATOM     18  C   UNL     1       2.190   7.858  19.086  0.00  0.00    +0.000 C 
ENDBRANCH  16  18
ENDBRANCH  15  16
ENDBRANCH   1  15
BRANCH   1  19
ATOM     19  C   UNL     1       0.884  11.275  20.161  0.00  0.00    +0.000 C 
BRANCH  19  20
ATOM     20  C   UNL     1       0.268  10.669  21.392  0.00  0.00    +0.000 A 
ATOM     21  C   UNL     1       0.425   9.410  21.945  0.00  0.00    +0.000 A 
ATOM     22  N   UNL     1      -0.340   9.253  23.069  0.00  0.00    +0.000 NA
ATOM     23  C   UNL     1      -0.968  10.394  23.215  0.00  0.00    +0.000 A 
ATOM     24  N   UNL     1      -0.635  11.287  22.230  0.00  0.00    +0.000 N 
BRANCH  24  25
ATOM     25  C   UNL     1      -1.201  12.626  22.136  0.00  0.00    +0.000 C 
BRANCH  25  26
ATOM     26  C   UNL     1      -2.666  12.695  22.509  0.00  0.00    +0.000 A 
ATOM     27  C   UNL     1      -3.019  12.729  23.868  0.00  0.00    +0.000 A 
ATOM     28  C   UNL     1      -4.360  12.784  24.259  0.00  0.00    +0.000 A 
ATOM     29  C   UNL     1      -5.370  12.822  23.297  0.00  0.00    +0.000 A 
ATOM     30  C   UNL     1      -5.031  12.835  21.941  0.00  0.00    +0.000 A 
ATOM     31  C   UNL     1      -3.692  12.787  21.553  0.00  0.00    +0.000 A 
BRANCH  29  32
ATOM     32  C   UNL     1      -6.744  12.840  23.692  0.00  0.00    +0.000 C 
ATOM     33  N   UNL     1      -7.859  12.854  24.022  0.00  0.00    +0.000 NA
ENDBRANCH  29  32
ENDBRANCH  25  26
ENDBRANCH  24  25
ENDBRANCH  19  20
ENDBRANCH   1  19
TORSDOF 11
ENDMDL
MODEL 2
REMARK VINA RESULT:      -7.2      6.096     11.044
REMARK  Name = 
REMARK  12 active torsions:
REMARK  status: ('A' for Active; 'I' for Inactive)
REMARK    1  A    between atoms: C_1  and  C_2
REMARK    2  A    between atoms: C_2  and  C_3
REMARK    3  A    between atoms: C_3  and  C_4
REMARK    4  A    between atoms: C_4  and  N_5
REMARK    5  A    between atoms: N_5  and  C_6
REMARK    6  A    between atoms: N_5  and  C_21
REMARK    7  A    between atoms: C_6  and  C_7
REMARK    8  A    between atoms: N_11  and  C_12
REMARK    9  A    between atoms: C_12  and  C_13
REMARK   10  A    between atoms: C_16  and  C_17
REMARK   11  A    between atoms: C_24  and  O_25
REMARK   12  A    between atoms: O_25  and  C_26
REMARK                            x       y       z     vdW  Elec       q    Type
REMARK                         _______ _______ _______ _____ _____    ______ ____
ROOT
ATOM      1  N   UNL     1       6.828   5.454  18.188  0.00  0.00    +0.000 N 
ENDROOT
BRANCH   1   2
ATOM      2  C   UNL     1       7.322   6.776  18.097  0.00  0.00    +0.000 A 
ATOM      3  C   UNL     1       6.784   7.743  17.219  0.00  0.00    +0.000 A 
ATOM      4  C   UNL     1       7.219   9.078  17.207  0.00  0.00    +0.000 A 
ATOM      5  C   UNL     1       8.210   9.502  18.085  0.00  0.00    +0.000 A 
ATOM      6  C   UNL     1       8.829   8.558  18.893  0.00  0.00    +0.000 A 
ATOM      7  C   UNL     1       8.368   7.237  18.916  0.00  0.00    +0.000 A 
BRANCH   5   8
ATOM      8  O   UNL     1       8.540  10.838  18.075  0.00  0.00    +0.000 OA
BRANCH   8   9
ATOM      9  C   UNL     1       9.741  11.237  18.627  0.00  0.00    +0.000 A 
ATOM     10  C   UNL     1       9.732  11.509  19.997  0.00  0.00    +0.000 A 
ATOM     11  C   UNL     1      10.897  11.945  20.634  0.00  0.00    +0.000 A 
ATOM     12  C   UNL     1      12.073  12.112  19.903  0.00  0.00    +0.000 A 
ATOM     13  C   UNL     1      12.096  11.807  18.544  0.00  0.00    +0.000 A 
ATOM     14  C   UNL     1      10.942  11.340  17.915  0.00  0.00    +0.000 A 
ENDBRANCH   8   9
ENDBRANCH   5   8
ENDBRANCH   1   2
BRANCH   1  15
ATOM     15  C   UNL     1       7.577   4.397  17.475  0.00  0.00    +0.000 C 
BRANCH  15  16
ATOM     16  C   UNL     1       7.302   4.194  15.979  0.00  0.00    +0.000 C 
BRANCH  16  18
ATOM     17  C   UNL     1       5.349   4.963  14.579  0.00  0.00    +0.000 C 
ATOM     18  C   UNL     1       5.832   3.969  15.628  0.00  0.00    +0.000 C 
ENDBRANCH  16  18
ENDBRANCH  15  16
ENDBRANCH   1  15
BRANCH   1  19
ATOM     19  C   UNL     1       5.984   5.111  19.351  0.00  0.00    +0.000 C 
BRANCH  19  20
ATOM     20  C   UNL     1       4.689   4.418  19.024  0.00  0.00    +0.000 A 
ATOM     21  C   UNL     1       4.240   3.153  19.360  0.00  0.00    +0.000 A 
ATOM     22  N   UNL     1       2.999   2.903  18.840  0.00  0.00    +0.000 NA
ATOM     23  C   UNL     1       2.677   3.992  18.186  0.00  0.00    +0.000 A 
ATOM     24  N   UNL     1       3.663   4.942  18.267  0.00  0.00    +0.000 N 
BRANCH  24  25
ATOM     25  C   UNL     1       3.578   6.242  17.615  0.00  0.00    +0.000 C 
BRANCH  25  26
ATOM     26  C   UNL     1       2.716   7.240  18.356  0.00  0.00    +0.000 A 
ATOM     27  C   UNL     1       2.435   7.015  19.714  0.00  0.00    +0.000 A 
ATOM     28  C   UNL     1       1.635   7.906  20.438  0.00  0.00    +0.000 A 
ATOM     29  C   UNL     1       1.117   9.044  19.819  0.00  0.00    +0.000 A 
ATOM     30  C   UNL     1       1.428   9.304  18.481  0.00  0.00    +0.000 A 
ATOM     31  C   UNL     1       2.232   8.418  17.763  0.00  0.00    +0.000 A 
BRANCH  29  32
ATOM     32  C   UNL     1       0.268   9.937  20.544  0.00  0.00    +0.000 C 
ATOM     33  N   UNL     1      -0.418  10.662  21.140  0.00  0.00    +0.000 NA
ENDBRANCH  29  32
ENDBRANCH  25  26
ENDBRANCH  24  25
ENDBRANCH  19  20
ENDBRANCH   1  19
TORSDOF 11
ENDMDL
MODEL 3
REMARK VINA RESULT:      -7.1      6.008     10.845
REMARK  Name = 
REMARK  12 active torsions:
REMARK  status: ('A' for Active; 'I' for Inactive)
REMARK    1  A    between atoms: C_1  and  C_2
REMARK    2  A    between atoms: C_2  and  C_3
REMARK    3  A    between atoms: C_3  and  C_4
REMARK    4  A    between atoms: C_4  and  N_5
REMARK    5  A    between atoms: N_5  and  C_6
REMARK    6  A    between atoms: N_5  and  C_21
REMARK    7  A    between atoms: C_6  and  C_7
REMARK    8  A    between atoms: N_11  and  C_12
REMARK    9  A    between atoms: C_12  and  C_13
REMARK   10  A    between atoms: C_16  and  C_17
REMARK   11  A    between atoms: C_24  and  O_25
REMARK   12  A    between atoms: O_25  and  C_26
REMARK                            x       y       z     vdW  Elec       q    Type
REMARK                         _______ _______ _______ _____ _____    ______ ____
ROOT
ATOM      1  N   UNL     1       5.685   5.471  16.912  0.00  0.00    +0.000 N 
ENDROOT
BRANCH   1   2
ATOM      2  C   UNL     1       6.525   6.445  17.499  0.00  0.00    +0.000 A 
ATOM      3  C   UNL     1       7.406   6.164  18.567  0.00  0.00    +0.000 A 
ATOM      4  C   UNL     1       8.305   7.116  19.076  0.00  0.00    +0.000 A 
ATOM      5  C   UNL     1       8.362   8.391  18.527  0.00  0.00    +0.000 A 
ATOM      6  C   UNL     1       7.445   8.733  17.543  0.00  0.00    +0.000 A 
ATOM      7  C   UNL     1       6.573   7.768  17.025  0.00  0.00    +0.000 A 
BRANCH   5   8
ATOM      8  O   UNL     1       9.315   9.254  19.020  0.00  0.00    +0.000 OA
BRANCH   8   9
ATOM      9  C   UNL     1       9.421  10.519  18.478  0.00  0.00    +0.000 A 
ATOM     10  C   UNL     1      10.716  11.017  18.318  0.00  0.00    +0.000 A 
ATOM     11  C   UNL     1      10.916  12.300  17.800  0.00  0.00    +0.000 A 
ATOM     12  C   UNL     1       9.822  13.089  17.445  0.00  0.00    +0.000 A 
ATOM     13  C   UNL     1       8.531  12.583  17.569  0.00  0.00    +0.000 A 
ATOM     14  C   UNL     1       8.332  11.290  18.053  0.00  0.00    +0.000 A 
ENDBRANCH   8   9
ENDBRANCH   5   8
ENDBRANCH   1   2
BRANCH   1  15
ATOM     15  C   UNL     1       5.627   5.425  15.435  0.00  0.00    +0.000 C 
BRANCH  15  16
ATOM     16  C   UNL     1       6.332   4.268  14.716  0.00  0.00    +0.000 C 
BRANCH  16  18
ATOM     17  C   UNL     1       6.627   3.718  12.271  0.00  0.00    +0.000 C 
ATOM     18  C   UNL     1       5.644   3.803  13.433  0.00  0.00    +0.000 C 
ENDBRANCH  16  18
ENDBRANCH  15  16
ENDBRANCH   1  15
BRANCH   1  19
ATOM     19  C   UNL     1       5.362   4.268  17.707  0.00  0.00    +0.000 C 
BRANCH  19  20
ATOM     20  C   UNL     1       3.896   3.951  17.826  0.00  0.00    +0.000 A 
ATOM     21  C   UNL     1       3.101   3.097  17.082  0.00  0.00    +0.000 A 
ATOM     22  N   UNL     1       1.801   3.116  17.509  0.00  0.00    +0.000 NA
ATOM     23  C   UNL     1       1.782   3.970  18.503  0.00  0.00    +0.000 A 
ATOM     24  N   UNL     1       3.023   4.503  18.739  0.00  0.00    +0.000 N 
BRANCH  24  25
ATOM     25  C   UNL     1       3.286   5.494  19.772  0.00  0.00    +0.000 C 
BRANCH  25  26
ATOM     26  C   UNL     1       2.611   6.826  19.525  0.00  0.00    +0.000 A 
ATOM     27  C   UNL     1       2.696   7.401  18.246  0.00  0.00    +0.000 A 
ATOM     28  C   UNL     1       2.095   8.634  17.974  0.00  0.00    +0.000 A 
ATOM     29  C   UNL     1       1.386   9.304  18.972  0.00  0.00    +0.000 A 
ATOM     30  C   UNL     1       1.254   8.720  20.235  0.00  0.00    +0.000 A 
ATOM     31  C   UNL     1       1.849   7.487  20.503  0.00  0.00    +0.000 A 
BRANCH  29  32
ATOM     32  C   UNL     1       0.802  10.583  18.709  0.00  0.00    +0.000 C 
ATOM     33  N   UNL     1       0.334  11.624  18.492  0.00  0.00    +0.000 NA
ENDBRANCH  29  32
ENDBRANCH  25  26
ENDBRANCH  24  25
ENDBRANCH  19  20
ENDBRANCH   1  19
TORSDOF 11
ENDMDL
MODEL 4
REMARK VINA RESULT:      -7.1      4.201      8.527
REMARK  Name = 
REMARK  12 active torsions:
REMARK  status: ('A' for Active; 'I' for Inactive)
REMARK    1  A    between atoms: C_1  and  C_2
REMARK    2  A    between atoms: C_2  and  C_3
REMARK    3  A    between atoms: C_3  and  C_4
REMARK    4  A    between atoms: C_4  and  N_5
REMARK    5  A    between atoms: N_5  and  C_6
REMARK    6  A    between atoms: N_5  and  C_21
REMARK    7  A    between atoms: C_6  and  C_7
REMARK    8  A    between atoms: N_11  and  C_12
REMARK    9  A    between atoms: C_12  and  C_13
REMARK   10  A    between atoms: C_16  and  C_17
REMARK   11  A    between atoms: C_24  and  O_25
REMARK   12  A    between atoms: O_25  and  C_26
REMARK                            x       y       z     vdW  Elec       q    Type
REMARK                         _______ _______ _______ _____ _____    ______ ____
ROOT
ATOM      1  N   UNL     1      -0.096  11.079  18.638  0.00  0.00    +0.000 N 
ENDROOT
BRANCH   1   2
ATOM      2  C   UNL     1       0.746   9.974  18.900  0.00  0.00    +0.000 A 
ATOM      3  C   UNL     1       0.811   9.333  20.157  0.00  0.00    +0.000 A 
ATOM      4  C   UNL     1       1.578   8.177  20.377  0.00  0.00    +0.000 A 
ATOM      5  C   UNL     1       2.308   7.610  19.339  0.00  0.00    +0.000 A 
ATOM      6  C   UNL     1       2.345   8.267  18.117  0.00  0.00    +0.000 A 
ATOM      7  C   UNL     1       1.555   9.403  17.901  0.00  0.00    +0.000 A 
BRANCH   5   8
ATOM      8  O   UNL     1       2.979   6.437  19.600  0.00  0.00    +0.000 OA
BRANCH   8   9
ATOM      9  C   UNL     1       2.280   5.247  19.590  0.00  0.00    +0.000 A 
ATOM     10  C   UNL     1       2.092   4.650  18.341  0.00  0.00    +0.000 A 
ATOM     11  C   UNL     1       1.372   3.457  18.234  0.00  0.00    +0.000 A 
ATOM     12  C   UNL     1       0.838   2.858  19.375  0.00  0.00    +0.000 A 
ATOM     13  C   UNL     1       1.054   3.430  20.626  0.00  0.00    +0.000 A 
ATOM     14  C   UNL     1       1.801   4.603  20.737  0.00  0.00    +0.000 A 
ENDBRANCH   8   9
ENDBRANCH   5   8
ENDBRANCH   1   2
BRANCH   1  15
ATOM     15  C   UNL     1      -1.533  10.929  18.957  0.00  0.00    +0.000 C 
BRANCH  15  16
ATOM     16  C   UNL     1      -2.440  10.248  17.924  0.00  0.00    +0.000 C 
BRANCH  16  18
ATOM     17  C   UNL     1      -2.781  10.039  15.433  0.00  0.00    +0.000 C 
ATOM     18  C   UNL     1      -2.570  10.998  16.599  0.00  0.00    +0.000 C 
ENDBRANCH  16  18
ENDBRANCH  15  16
ENDBRANCH   1  15
BRANCH   1  19
ATOM     19  C   UNL     1       0.518  12.421  18.591  0.00  0.00    +0.000 C 
BRANCH  19  20
ATOM     20  C   UNL     1       0.614  13.131  19.914  0.00  0.00    +0.000 A 
ATOM     21  C   UNL     1       0.333  12.684  21.193  0.00  0.00    +0.000 A 
ATOM     22  N   UNL     1       0.535  13.663  22.127  0.00  0.00    +0.000 NA
ATOM     23  C   UNL     1       0.934  14.708  21.443  0.00  0.00    +0.000 A 
ATOM     24  N   UNL     1       1.001  14.441  20.101  0.00  0.00    +0.000 N 
BRANCH  24  25
ATOM     25  C   UNL     1       1.395  15.429  19.105  0.00  0.00    +0.000 C 
BRANCH  25  26
ATOM     26  C   UNL     1       2.891  15.522  18.897  0.00  0.00    +0.000 A 
ATOM     27  C   UNL     1       3.605  16.532  19.563  0.00  0.00    +0.000 A 
ATOM     28  C   UNL     1       4.988  16.662  19.394  0.00  0.00    +0.000 A 
ATOM     29  C   UNL     1       5.680  15.773  18.570  0.00  0.00    +0.000 A 
ATOM     30  C   UNL     1       4.988  14.735  17.941  0.00  0.00    +0.000 A 
ATOM     31  C   UNL     1       3.610  14.603  18.115  0.00  0.00    +0.000 A 
BRANCH  29  32
ATOM     32  C   UNL     1       7.087  15.925  18.366  0.00  0.00    +0.000 C 
ATOM     33  N   UNL     1       8.230  16.047  18.191  0.00  0.00    +0.000 NA
ENDBRANCH  29  32
ENDBRANCH  25  26
ENDBRANCH  24  25
ENDBRANCH  19  20
ENDBRANCH   1  19
TORSDOF 11
ENDMDL
MODEL 5
REMARK VINA RESULT:      -7.0      4.531      9.100
REMARK  Name = 
REMARK  12 active torsions:
REMARK  status: ('A' for Active; 'I' for Inactive)
REMARK    1  A    between atoms: C_1  and  C_2
REMARK    2  A    between atoms: C_2  and  C_3
REMARK    3  A    between atoms: C_3  and  C_4
REMARK    4  A    between atoms: C_4  and  N_5
REMARK    5  A    between atoms: N_5  and  C_6
REMARK    6  A    between atoms: N_5  and  C_21
REMARK    7  A    between atoms: C_6  and  C_7
REMARK    8  A    between atoms: N_11  and  C_12
REMARK    9  A    between atoms: C_12  and  C_13
REMARK   10  A    between atoms: C_16  and  C_17
REMARK   11  A    between atoms: C_24  and  O_25
REMARK   12  A    between atoms: O_25  and  C_26
REMARK                            x       y       z     vdW  Elec       q    Type
REMARK                         _______ _______ _______ _____ _____    ______ ____
ROOT
ATOM      1  N   UNL     1       2.373   6.353  18.860  0.00  0.00    +0.000 N 
ENDROOT
BRANCH   1   2
ATOM      2  C   UNL     1       3.459   5.900  18.077  0.00  0.00    +0.000 A 
ATOM      3  C   UNL     1       4.289   6.767  17.331  0.00  0.00    +0.000 A 
ATOM      4  C   UNL     1       5.423   6.315  16.637  0.00  0.00    +0.000 A 
ATOM      5  C   UNL     1       5.777   4.972  16.667  0.00  0.00    +0.000 A 
ATOM      6  C   UNL     1       4.931   4.077  17.308  0.00  0.00    +0.000 A 
ATOM      7  C   UNL     1       3.819   4.542  18.020  0.00  0.00    +0.000 A 
BRANCH   5   8
ATOM      8  O   UNL     1       6.939   4.605  16.028  0.00  0.00    +0.000 OA
BRANCH   8   9
ATOM      9  C   UNL     1       6.958   4.548  14.649  0.00  0.00    +0.000 A 
ATOM     10  C   UNL     1       6.083   3.634  14.056  0.00  0.00    +0.000 A 
ATOM     11  C   UNL     1       6.054   3.490  12.666  0.00  0.00    +0.000 A 
ATOM     12  C   UNL     1       6.900   4.258  11.866  0.00  0.00    +0.000 A 
ATOM     13  C   UNL     1       7.747   5.196  12.450  0.00  0.00    +0.000 A 
ATOM     14  C   UNL     1       7.752   5.364  13.835  0.00  0.00    +0.000 A 
ENDBRANCH   8   9
ENDBRANCH   5   8
ENDBRANCH   1   2
BRANCH   1  15
ATOM     15  C   UNL     1       2.104   5.638  20.127  0.00  0.00    +0.000 C 
BRANCH  15  16
ATOM     16  C   UNL     1       0.904   4.685  20.183  0.00  0.00    +0.000 C 
BRANCH  16  18
ATOM     17  C   UNL     1       2.445   3.221  21.543  0.00  0.00    +0.000 C 
ATOM     18  C   UNL     1       1.245   3.256  20.604  0.00  0.00    +0.000 C 
ENDBRANCH  16  18
ENDBRANCH  15  16
ENDBRANCH   1  15
BRANCH   1  19
ATOM     19  C   UNL     1       1.933   7.753  18.689  0.00  0.00    +0.000 C 
BRANCH  19  20
ATOM     20  C   UNL     1       1.560   8.470  19.958  0.00  0.00    +0.000 A 
ATOM     21  C   UNL     1       1.607   8.044  21.274  0.00  0.00    +0.000 A 
ATOM     22  N   UNL     1       1.154   9.008  22.133  0.00  0.00    +0.000 NA
ATOM     23  C   UNL     1       0.827  10.021  21.367  0.00  0.00    +0.000 A 
ATOM     24  N   UNL     1       1.055   9.749  20.043  0.00  0.00    +0.000 N 
BRANCH  24  25
ATOM     25  C   UNL     1       0.761  10.690  18.970  0.00  0.00    +0.000 C 
BRANCH  25  26
ATOM     26  C   UNL     1      -0.712  10.800  18.644  0.00  0.00    +0.000 A 
ATOM     27  C   UNL     1      -1.467  11.816  19.254  0.00  0.00    +0.000 A 
ATOM     28  C   UNL     1      -2.834  11.951  18.989  0.00  0.00    +0.000 A 
ATOM     29  C   UNL     1      -3.464  11.082  18.098  0.00  0.00    +0.000 A 
ATOM     30  C   UNL     1      -2.715  10.098  17.448  0.00  0.00    +0.000 A 
ATOM     31  C   UNL     1      -1.350   9.968  17.708  0.00  0.00    +0.000 A 
BRANCH  29  32
ATOM     32  C   UNL     1      -4.869  11.192  17.853  0.00  0.00    +0.000 C 
ATOM     33  N   UNL     1      -6.011  11.274  17.654  0.00  0.00    +0.000 NA
ENDBRANCH  29  32
ENDBRANCH  25  26
ENDBRANCH  24  25
ENDBRANCH  19  20
ENDBRANCH   1  19
TORSDOF 11
ENDMDL
MODEL 6
REMARK VINA RESULT:      -7.0      3.816      8.336
REMARK  Name = 
REMARK  12 active torsions:
REMARK  status: ('A' for Active; 'I' for Inactive)
REMARK    1  A    between atoms: C_1  and  C_2
REMARK    2  A    between atoms: C_2  and  C_3
REMARK    3  A    between atoms: C_3  and  C_4
REMARK    4  A    between atoms: C_4  and  N_5
REMARK    5  A    between atoms: N_5  and  C_6
REMARK    6  A    between atoms: N_5  and  C_21
REMARK    7  A    between atoms: C_6  and  C_7
REMARK    8  A    between atoms: N_11  and  C_12
REMARK    9  A    between atoms: C_12  and  C_13
REMARK   10  A    between atoms: C_16  and  C_17
REMARK   11  A    between atoms: C_24  and  O_25
REMARK   12  A    between atoms: O_25  and  C_26
REMARK                            x       y       z     vdW  Elec       q    Type
REMARK                         _______ _______ _______ _____ _____    ______ ____
ROOT
ATOM      1  N   UNL     1       0.047  10.959  18.612  0.00  0.00    +0.000 N 
ENDROOT
BRANCH   1   2
ATOM      2  C   UNL     1       0.875   9.845  18.881  0.00  0.00    +0.000 A 
ATOM      3  C   UNL     1       0.905   9.187  20.131  0.00  0.00    +0.000 A 
ATOM      4  C   UNL     1       1.658   8.023  20.355  0.00  0.00    +0.000 A 
ATOM      5  C   UNL     1       2.409   7.464  19.328  0.00  0.00    +0.000 A 
ATOM      6  C   UNL     1       2.481   8.136  18.116  0.00  0.00    +0.000 A 
ATOM      7  C   UNL     1       1.704   9.280  17.895  0.00  0.00    +0.000 A 
BRANCH   5   8
ATOM      8  O   UNL     1       3.065   6.283  19.590  0.00  0.00    +0.000 OA
BRANCH   8   9
ATOM      9  C   UNL     1       2.341   5.109  19.640  0.00  0.00    +0.000 A 
ATOM     10  C   UNL     1       2.007   4.535  18.410  0.00  0.00    +0.000 A 
ATOM     11  C   UNL     1       1.252   3.360  18.365  0.00  0.00    +0.000 A 
ATOM     12  C   UNL     1       0.827   2.756  19.549  0.00  0.00    +0.000 A 
ATOM     13  C   UNL     1       1.188   3.304  20.777  0.00  0.00    +0.000 A 
ATOM     14  C   UNL     1       1.970   4.459  20.822  0.00  0.00    +0.000 A 
ENDBRANCH   8   9
ENDBRANCH   5   8
ENDBRANCH   1   2
BRANCH   1  15
ATOM     15  C   UNL     1      -1.415  10.732  18.600  0.00  0.00    +0.000 C 
BRANCH  15  16
ATOM     16  C   UNL     1      -2.037  10.068  17.366  0.00  0.00    +0.000 C 
BRANCH  16  18
ATOM     17  C   UNL     1      -4.218  11.131  16.673  0.00  0.00    +0.000 C 
ATOM     18  C   UNL     1      -2.722  11.035  16.400  0.00  0.00    +0.000 C 
ENDBRANCH  16  18
ENDBRANCH  15  16
ENDBRANCH   1  15
BRANCH   1  19
ATOM     19  C   UNL     1       0.588  12.305  18.890  0.00  0.00    +0.000 C 
BRANCH  19  20
ATOM     20  C   UNL     1       0.300  12.843  20.265  0.00  0.00    +0.000 A 
ATOM     21  C   UNL     1      -0.166  12.201  21.398  0.00  0.00    +0.000 A 
ATOM     22  N   UNL     1      -0.313  13.068  22.447  0.00  0.00    +0.000 NA
ATOM     23  C   UNL     1       0.054  14.236  21.976  0.00  0.00    +0.000 A 
ATOM     24  N   UNL     1       0.436  14.156  20.663  0.00  0.00    +0.000 N 
BRANCH  24  25
ATOM     25  C   UNL     1       0.871  15.307  19.883  0.00  0.00    +0.000 C 
BRANCH  25  26
ATOM     26  C   UNL     1       2.316  15.232  19.440  0.00  0.00    +0.000 A 
ATOM     27  C   UNL     1       2.623  15.466  18.090  0.00  0.00    +0.000 A 
ATOM     28  C   UNL     1       3.944  15.399  17.633  0.00  0.00    +0.000 A 
ATOM     29  C   UNL     1       4.980  15.113  18.524  0.00  0.00    +0.000 A 
ATOM     30  C   UNL     1       4.692  14.926  19.879  0.00  0.00    +0.000 A 
ATOM     31  C   UNL     1       3.375  14.999  20.334  0.00  0.00    +0.000 A 
BRANCH  29  32
ATOM     32  C   UNL     1       6.326  15.006  18.055  0.00  0.00    +0.000 C 
ATOM     33  N   UNL     1       7.421  14.912  17.674  0.00  0.00    +0.000 NA
ENDBRANCH  29  32
ENDBRANCH  25  26
ENDBRANCH  24  25
ENDBRANCH  19  20
ENDBRANCH   1  19
TORSDOF 11
ENDMDL
MODEL 7
REMARK VINA RESULT:      -7.0      4.547      9.107
REMARK  Name = 
REMARK  12 active torsions:
REMARK  status: ('A' for Active; 'I' for Inactive)
REMARK    1  A    between atoms: C_1  and  C_2
REMARK    2  A    between atoms: C_2  and  C_3
REMARK    3  A    between atoms: C_3  and  C_4
REMARK    4  A    between atoms: C_4  and  N_5
REMARK    5  A    between atoms: N_5  and  C_6
REMARK    6  A    between atoms: N_5  and  C_21
REMARK    7  A    between atoms: C_6  and  C_7
REMARK    8  A    between atoms: N_11  and  C_12
REMARK    9  A    between atoms: C_12  and  C_13
REMARK   10  A    between atoms: C_16  and  C_17
REMARK   11  A    between atoms: C_24  and  O_25
REMARK   12  A    between atoms: O_25  and  C_26
REMARK                            x       y       z     vdW  Elec       q    Type
REMARK                         _______ _______ _______ _____ _____    ______ ____
ROOT
ATOM      1  N   UNL     1       2.722   6.447  18.789  0.00  0.00    +0.000 N 
ENDROOT
BRANCH   1   2
ATOM      2  C   UNL     1       3.921   6.258  18.064  0.00  0.00    +0.000 A 
ATOM      3  C   UNL     1       4.914   5.326  18.442  0.00  0.00    +0.000 A 
ATOM      4  C   UNL     1       6.054   5.079  17.660  0.00  0.00    +0.000 A 
ATOM      5  C   UNL     1       6.242   5.752  16.459  0.00  0.00    +0.000 A 
ATOM      6  C   UNL     1       5.338   6.744  16.105  0.00  0.00    +0.000 A 
ATOM      7  C   UNL     1       4.191   6.962  16.877  0.00  0.00    +0.000 A 
BRANCH   5   8
ATOM      8  O   UNL     1       7.342   5.411  15.704  0.00  0.00    +0.000 OA
BRANCH   8   9
ATOM      9  C   UNL     1       7.153   4.913  14.431  0.00  0.00    +0.000 A 
ATOM     10  C   UNL     1       6.237   3.865  14.306  0.00  0.00    +0.000 A 
ATOM     11  C   UNL     1       6.003   3.281  13.058  0.00  0.00    +0.000 A 
ATOM     12  C   UNL     1       6.685   3.742  11.932  0.00  0.00    +0.000 A 
ATOM     13  C   UNL     1       7.571   4.811  12.045  0.00  0.00    +0.000 A 
ATOM     14  C   UNL     1       7.780   5.415  13.284  0.00  0.00    +0.000 A 
ENDBRANCH   8   9
ENDBRANCH   5   8
ENDBRANCH   1   2
BRANCH   1  15
ATOM     15  C   UNL     1       2.580   5.718  20.069  0.00  0.00    +0.000 C 
BRANCH  15  16
ATOM     16  C   UNL     1       2.096   4.263  20.026  0.00  0.00    +0.000 C 
BRANCH  16  18
ATOM     17  C   UNL     1       0.734   2.497  18.848  0.00  0.00    +0.000 C 
ATOM     18  C   UNL     1       1.399   3.862  18.727  0.00  0.00    +0.000 C 
ENDBRANCH  16  18
ENDBRANCH  15  16
ENDBRANCH   1  15
BRANCH   1  19
ATOM     19  C   UNL     1       1.961   7.690  18.553  0.00  0.00    +0.000 C 
BRANCH  19  20
ATOM     20  C   UNL     1       1.541   8.432  19.793  0.00  0.00    +0.000 A 
ATOM     21  C   UNL     1       1.602   8.060  21.124  0.00  0.00    +0.000 A 
ATOM     22  N   UNL     1       1.092   9.029  21.944  0.00  0.00    +0.000 NA
ATOM     23  C   UNL     1       0.715   9.992  21.140  0.00  0.00    +0.000 A 
ATOM     24  N   UNL     1       0.966   9.685  19.828  0.00  0.00    +0.000 N 
BRANCH  24  25
ATOM     25  C   UNL     1       0.628  10.567  18.719  0.00  0.00    +0.000 C 
BRANCH  25  26
ATOM     26  C   UNL     1      -0.860  10.701  18.479  0.00  0.00    +0.000 A 
ATOM     27  C   UNL     1      -1.555  11.751  19.102  0.00  0.00    +0.000 A 
ATOM     28  C   UNL     1      -2.932  11.908  18.915  0.00  0.00    +0.000 A 
ATOM     29  C   UNL     1      -3.633  11.028  18.091  0.00  0.00    +0.000 A 
ATOM     30  C   UNL     1      -2.946  10.008  17.428  0.00  0.00    +0.000 A 
ATOM     31  C   UNL     1      -1.570   9.856  17.609  0.00  0.00    +0.000 A 
BRANCH  29  32
ATOM     32  C   UNL     1      -5.048  11.163  17.928  0.00  0.00    +0.000 C 
ATOM     33  N   UNL     1      -6.196  11.273  17.788  0.00  0.00    +0.000 NA
ENDBRANCH  29  32
ENDBRANCH  25  26
ENDBRANCH  24  25
ENDBRANCH  19  20
ENDBRANCH   1  19
TORSDOF 11
ENDMDL
MODEL 8
REMARK VINA RESULT:      -7.0      4.064      9.223
REMARK  Name = 
REMARK  12 active torsions:
REMARK  status: ('A' for Active; 'I' for Inactive)
REMARK    1  A    between atoms: C_1  and  C_2
REMARK    2  A    between atoms: C_2  and  C_3
REMARK    3  A    between atoms: C_3  and  C_4
REMARK    4  A    between atoms: C_4  and  N_5
REMARK    5  A    between atoms: N_5  and  C_6
REMARK    6  A    between atoms: N_5  and  C_21
REMARK    7  A    between atoms: C_6  and  C_7
REMARK    8  A    between atoms: N_11  and  C_12
REMARK    9  A    between atoms: C_12  and  C_13
REMARK   10  A    between atoms: C_16  and  C_17
REMARK   11  A    between atoms: C_24  and  O_25
REMARK   12  A    between atoms: O_25  and  C_26
REMARK                            x       y       z     vdW  Elec       q    Type
REMARK                         _______ _______ _______ _____ _____    ______ ____
ROOT
ATOM      1  N   UNL     1       2.666   6.053  20.304  0.00  0.00    +0.000 N 
ENDROOT
BRANCH   1   2
ATOM      2  C   UNL     1       2.061   7.264  19.894  0.00  0.00    +0.000 A 
ATOM      3  C   UNL     1       1.259   8.055  20.747  0.00  0.00    +0.000 A 
ATOM      4  C   UNL     1       0.746   9.302  20.358  0.00  0.00    +0.000 A 
ATOM      5  C   UNL     1       1.023   9.814  19.096  0.00  0.00    +0.000 A 
ATOM      6  C   UNL     1       1.725   9.022  18.198  0.00  0.00    +0.000 A 
ATOM      7  C   UNL     1       2.256   7.793  18.606  0.00  0.00    +0.000 A 
BRANCH   5   8
ATOM      8  O   UNL     1       0.553  11.074  18.803  0.00  0.00    +0.000 OA
BRANCH   8   9
ATOM      9  C   UNL     1      -0.810  11.287  18.752  0.00  0.00    +0.000 A 
ATOM     10  C   UNL     1      -1.514  10.555  17.793  0.00  0.00    +0.000 A 
ATOM     11  C   UNL     1      -2.895  10.727  17.652  0.00  0.00    +0.000 A 
ATOM     12  C   UNL     1      -3.573  11.632  18.469  0.00  0.00    +0.000 A 
ATOM     13  C   UNL     1      -2.881  12.337  19.450  0.00  0.00    +0.000 A 
ATOM     14  C   UNL     1      -1.509  12.141  19.613  0.00  0.00    +0.000 A 
ENDBRANCH   8   9
ENDBRANCH   5   8
ENDBRANCH   1   2
BRANCH   1  15
ATOM     15  C   UNL     1       1.813   5.072  21.011  0.00  0.00    +0.000 C 
BRANCH  15  16
ATOM     16  C   UNL     1       2.465   3.786  21.534  0.00  0.00    +0.000 C 
BRANCH  16  18
ATOM     17  C   UNL     1       0.900   2.489  20.040  0.00  0.00    +0.000 C 
ATOM     18  C   UNL     1       1.603   2.532  21.391  0.00  0.00    +0.000 C 
ENDBRANCH  16  18
ENDBRANCH  15  16
ENDBRANCH   1  15
BRANCH   1  19
ATOM     19  C   UNL     1       3.872   5.603  19.580  0.00  0.00    +0.000 C 
BRANCH  19  20
ATOM     20  C   UNL     1       3.615   4.729  18.382  0.00  0.00    +0.000 A 
ATOM     21  C   UNL     1       2.424   4.372  17.773  0.00  0.00    +0.000 A 
ATOM     22  N   UNL     1       2.632   3.534  16.711  0.00  0.00    +0.000 NA
ATOM     23  C   UNL     1       3.931   3.368  16.657  0.00  0.00    +0.000 A 
ATOM     24  N   UNL     1       4.574   4.070  17.643  0.00  0.00    +0.000 N 
BRANCH  24  25
ATOM     25  C   UNL     1       6.018   4.050  17.830  0.00  0.00    +0.000 C 
BRANCH  25  26
ATOM     26  C   UNL     1       6.646   5.426  17.871  0.00  0.00    +0.000 A 
ATOM     27  C   UNL     1       7.644   5.687  18.825  0.00  0.00    +0.000 A 
ATOM     28  C   UNL     1       8.246   6.947  18.905  0.00  0.00    +0.000 A 
ATOM     29  C   UNL     1       7.872   7.961  18.023  0.00  0.00    +0.000 A 
ATOM     30  C   UNL     1       6.914   7.700  17.039  0.00  0.00    +0.000 A 
ATOM     31  C   UNL     1       6.319   6.441  16.955  0.00  0.00    +0.000 A 
BRANCH  29  32
ATOM     32  C   UNL     1       8.458   9.261  18.126  0.00  0.00    +0.000 C 
ATOM     33  N   UNL     1       8.927  10.322  18.208  0.00  0.00    +0.000 NA
ENDBRANCH  29  32
ENDBRANCH  25  26
ENDBRANCH  24  25
ENDBRANCH  19  20
ENDBRANCH   1  19
TORSDOF 11
ENDMDL
MODEL 9
REMARK VINA RESULT:      -7.0      3.306      7.841
REMARK  Name = 
REMARK  12 active torsions:
REMARK  status: ('A' for Active; 'I' for Inactive)
REMARK    1  A    between atoms: C_1  and  C_2
REMARK    2  A    between atoms: C_2  and  C_3
REMARK    3  A    between atoms: C_3  and  C_4
REMARK    4  A    between atoms: C_4  and  N_5
REMARK    5  A    between atoms: N_5  and  C_6
REMARK    6  A    between atoms: N_5  and  C_21
REMARK    7  A    between atoms: C_6  and  C_7
REMARK    8  A    between atoms: N_11  and  C_12
REMARK    9  A    between atoms: C_12  and  C_13
REMARK   10  A    between atoms: C_16  and  C_17
REMARK   11  A    between atoms: C_24  and  O_25
REMARK   12  A    between atoms: O_25  and  C_26
REMARK                            x       y       z     vdW  Elec       q    Type
REMARK                         _______ _______ _______ _____ _____    ______ ____
ROOT
ATOM      1  N   UNL     1       1.017  10.255  19.863  0.00  0.00    +0.000 N 
ENDROOT
BRANCH   1   2
ATOM      2  C   UNL     1       1.657   9.106  19.344  0.00  0.00    +0.000 A 
ATOM      3  C   UNL     1       1.856   7.926  20.095  0.00  0.00    +0.000 A 
ATOM      4  C   UNL     1       2.403   6.759  19.538  0.00  0.00    +0.000 A 
ATOM      5  C   UNL     1       2.769   6.724  18.198  0.00  0.00    +0.000 A 
ATOM      6  C   UNL     1       2.679   7.893  17.455  0.00  0.00    +0.000 A 
ATOM      7  C   UNL     1       2.106   9.042  18.012  0.00  0.00    +0.000 A 
BRANCH   5   8
ATOM      8  O   UNL     1       3.231   5.529  17.695  0.00  0.00    +0.000 OA
BRANCH   8   9
ATOM      9  C   UNL     1       2.739   4.348  18.212  0.00  0.00    +0.000 A 
ATOM     10  C   UNL     1       3.656   3.540  18.890  0.00  0.00    +0.000 A 
ATOM     11  C   UNL     1       3.251   2.313  19.423  0.00  0.00    +0.000 A 
ATOM     12  C   UNL     1       1.930   1.890  19.280  0.00  0.00    +0.000 A 
ATOM     13  C   UNL     1       1.004   2.709  18.637  0.00  0.00    +0.000 A 
ATOM     14  C   UNL     1       1.400   3.948  18.134  0.00  0.00    +0.000 A 
ENDBRANCH   8   9
ENDBRANCH   5   8
ENDBRANCH   1   2
BRANCH   1  15
ATOM     15  C   UNL     1       1.100  10.477  21.323  0.00  0.00    +0.000 C 
BRANCH  15  16
ATOM     16  C   UNL     1       0.518   9.407  22.255  0.00  0.00    +0.000 C 
BRANCH  16  18
ATOM     17  C   UNL     1      -0.998  11.306  22.935  0.00  0.00    +0.000 C 
ATOM     18  C   UNL     1      -0.801   9.795  22.924  0.00  0.00    +0.000 C 
ENDBRANCH  16  18
ENDBRANCH  15  16
ENDBRANCH   1  15
BRANCH   1  19
ATOM     19  C   UNL     1       0.794  11.394  18.949  0.00  0.00    +0.000 C 
BRANCH  19  20
ATOM     20  C   UNL     1      -0.179  12.431  19.440  0.00  0.00    +0.000 A 
ATOM     21  C   UNL     1       0.027  13.749  19.808  0.00  0.00    +0.000 A 
ATOM     22  N   UNL     1      -1.133  14.346  20.220  0.00  0.00    +0.000 NA
ATOM     23  C   UNL     1      -2.051  13.416  20.113  0.00  0.00    +0.000 A 
ATOM     24  N   UNL     1      -1.528  12.239  19.644  0.00  0.00    +0.000 N 
BRANCH  24  25
ATOM     25  C   UNL     1      -2.320  11.032  19.449  0.00  0.00    +0.000 C 
BRANCH  25  26
ATOM     26  C   UNL     1      -2.732  10.800  18.012  0.00  0.00    +0.000 A 
ATOM     27  C   UNL     1      -2.014   9.867  17.244  0.00  0.00    +0.000 A 
ATOM     28  C   UNL     1      -2.354   9.625  15.909  0.00  0.00    +0.000 A 
ATOM     29  C   UNL     1      -3.425  10.301  15.324  0.00  0.00    +0.000 A 
ATOM     30  C   UNL     1      -4.176  11.197  16.091  0.00  0.00    +0.000 A 
ATOM     31  C   UNL     1      -3.841  11.432  17.425  0.00  0.00    +0.000 A 
BRANCH  29  32
ATOM     32  C   UNL     1      -3.751  10.086  13.949  0.00  0.00    +0.000 C 
ATOM     33  N   UNL     1      -4.023   9.906  12.833  0.00  0.00    +0.000 NA
ENDBRANCH  29  32
ENDBRANCH  25  26
ENDBRANCH  24  25
ENDBRANCH  19  20
ENDBRANCH   1  19
TORSDOF 11
ENDMDL
