MODEL 1
REMARK VINA RESULT:      -8.2      0.000      0.000
REMARK  Name = 
REMARK  7 active torsions:
REMARK  status: ('A' for Active; 'I' for Inactive)
REMARK    1  A    between atoms: C_1  and  C_2
REMARK    2  A    between atoms: C_2  and  C_3
REMARK    3  A    between atoms: C_2  and  N_4
REMARK    4  A    between atoms: N_4  and  C_5
REMARK    5  A    between atoms: C_5  and  C_6
REMARK    6  A    between atoms: C_5  and  C_17
REMARK    7  A    between atoms: N_8  and  C_9
REMARK                            x       y       z     vdW  Elec       q    Type
REMARK                         _______ _______ _______ _____ _____    ______ ____
ROOT
ATOM      1  C   UNL     1       6.747   5.091  16.180  0.00  0.00    +0.000 C 
ENDROOT
BRANCH   1   2
ATOM      2  C   UNL     1       6.784   4.808  14.682  0.00  0.00    +0.000 A 
ATOM      3  C   UNL     1       5.962   3.804  14.144  0.00  0.00    +0.000 A 
ATOM      4  C   UNL     1       6.060   3.446  12.797  0.00  0.00    +0.000 A 
ATOM      5  C   UNL     1       6.967   4.096  11.965  0.00  0.00    +0.000 A 
ATOM      6  C   UNL     1       7.777   5.107  12.477  0.00  0.00    +0.000 A 
ATOM      7  C   UNL     1       7.689   5.457  13.826  0.00  0.00    +0.000 A 
ENDBRANCH   1   2
BRANCH   1   8
ATOM      8  C   UNL     1       5.315   5.158  16.767  0.00  0.00    +0.000 C 
ATOM      9  O   UNL     1       4.502   5.973  16.331  0.00  0.00    +0.000 OA
ATOM     10  N   UNL     1       5.052   4.315  17.842  0.00  0.00    +0.000 N 
ATOM     11  H   UNL     1       5.862   3.957  18.329  0.00  0.00    +0.000 HD
BRANCH  10  12
ATOM     12  C   UNL     1       3.812   4.326  18.518  0.00  0.00    +0.000 A 
ATOM     13  C   UNL     1       2.885   3.292  18.358  0.00  0.00    +0.000 A 
ATOM     14  C   UNL     1       1.637   3.367  18.979  0.00  0.00    +0.000 A 
ATOM     15 CL   UNL     1       0.516   2.073  18.802  0.00  0.00    +0.000 Cl
ATOM     16  C   UNL     1       1.287   4.483  19.734  0.00  0.00    +0.000 A 
ATOM     17  C   UNL     1       2.222   5.500  19.908  0.00  0.00    +0.000 A 
ATOM     18 CL   UNL     1       1.784   6.907  20.796  0.00  0.00    +0.000 Cl
ATOM     19  C   UNL     1       3.496   5.414  19.336  0.00  0.00    +0.000 A 
ENDBRANCH  10  12
ENDBRANCH   1   8
BRANCH   1  20
ATOM     20  N   UNL     1       7.554   6.302  16.459  0.00  0.00    +0.000 NA
ATOM     21  H   UNL     1       8.534   6.017  16.384  0.00  0.00    +0.000 HD
BRANCH  20  23
ATOM     22  C   UNL     1       7.984   6.187  18.950  0.00  0.00    +0.000 C 
ATOM     23  C   UNL     1       7.355   6.933  17.769  0.00  0.00    +0.000 C 
ATOM     24  C   UNL     1       7.964   8.338  17.682  0.00  0.00    +0.000 C 
ENDBRANCH  20  23
ENDBRANCH   1  20
TORSDOF 5
ENDMDL
MODEL 2
REMARK VINA RESULT:      -8.1      0.135      2.181
REMARK  Name = 
REMARK  7 active torsions:
REMARK  status: ('A' for Active; 'I' for Inactive)
REMARK    1  A    between atoms: C_1  and  C_2
REMARK    2  A    between atoms: C_2  and  C_3
REMARK    3  A    between atoms: C_2  and  N_4
REMARK    4  A    between atoms: N_4  and  C_5
REMARK    5  A    between atoms: C_5  and  C_6
REMARK    6  A    between atoms: C_5  and  C_17
REMARK    7  A    between atoms: N_8  and  C_9
REMARK                            x       y       z     vdW  Elec       q    Type
REMARK                         _______ _______ _______ _____ _____    ______ ____
ROOT
ATOM      1  C   UNL     1       6.748   5.156  16.241  0.00  0.00    +0.000 C 
ENDROOT
BRANCH   1   2
ATOM      2  C   UNL     1       6.850   4.752  14.774  0.00  0.00    +0.000 A 
ATOM      3  C   UNL     1       7.741   5.432  13.927  0.00  0.00    +0.000 A 
ATOM      4  C   UNL     1       7.770   5.161  12.556  0.00  0.00    +0.000 A 
ATOM      5  C   UNL     1       6.925   4.196  12.015  0.00  0.00    +0.000 A 
ATOM      6  C   UNL     1       6.050   3.498  12.844  0.00  0.00    +0.000 A 
ATOM      7  C   UNL     1       6.010   3.778  14.211  0.00  0.00    +0.000 A 
ENDBRANCH   1   2
BRANCH   1   8
ATOM      8  C   UNL     1       5.291   5.264  16.757  0.00  0.00    +0.000 C 
ATOM      9  O   UNL     1       4.522   6.096  16.278  0.00  0.00    +0.000 OA
ATOM     10  N   UNL     1       4.955   4.435  17.824  0.00  0.00    +0.000 N 
ATOM     11  H   UNL     1       5.731   4.060  18.351  0.00  0.00    +0.000 HD
BRANCH  10  12
ATOM     12  C   UNL     1       3.685   4.483  18.438  0.00  0.00    +0.000 A 
ATOM     13  C   UNL     1       3.319   5.540  19.277  0.00  0.00    +0.000 A 
ATOM     14  C   UNL     1       2.086   5.522  19.931  0.00  0.00    +0.000 A 
ATOM     15 CL   UNL     1       1.634   6.845  20.935  0.00  0.00    +0.000 Cl
ATOM     16  C   UNL     1       1.221   4.441  19.784  0.00  0.00    +0.000 A 
ATOM     17  C   UNL     1       1.580   3.402  18.930  0.00  0.00    +0.000 A 
ATOM     18 CL   UNL     1       0.544   2.037  18.779  0.00  0.00    +0.000 Cl
ATOM     19  C   UNL     1       2.789   3.430  18.227  0.00  0.00    +0.000 A 
ENDBRANCH  10  12
ENDBRANCH   1   8
BRANCH   1  20
ATOM     20  N   UNL     1       7.542   6.388  16.456  0.00  0.00    +0.000 NA
ATOM     21  H   UNL     1       8.522   6.122  16.338  0.00  0.00    +0.000 HD
BRANCH  20  23
ATOM     22  C   UNL     1       8.018   6.286  18.939  0.00  0.00    +0.000 C 
ATOM     23  C   UNL     1       7.393   7.041  17.761  0.00  0.00    +0.000 C 
ATOM     24  C   UNL     1       8.052   8.422  17.645  0.00  0.00    +0.000 C 
ENDBRANCH  20  23
ENDBRANCH   1  20
TORSDOF 5
ENDMDL
MODEL 3
REMARK VINA RESULT:      -8.1      0.156      1.926
REMARK  Name = 
REMARK  7 active torsions:
REMARK  status: ('A' for Active; 'I' for Inactive)
REMARK    1  A    between atoms: C_1  and  C_2
REMARK    2  A    between atoms: C_2  and  C_3
REMARK    3  A    between atoms: C_2  and  N_4
REMARK    4  A    between atoms: N_4  and  C_5
REMARK    5  A    between atoms: C_5  and  C_6
REMARK    6  A    between atoms: C_5  and  C_17
REMARK    7  A    between atoms: N_8  and  C_9
REMARK                            x       y       z     vdW  Elec       q    Type
REMARK                         _______ _______ _______ _____ _____    ______ ____
ROOT
ATOM      1  C   UNL     1       6.700   5.228  16.161  0.00  0.00    +0.000 C 
ENDROOT
BRANCH   1   2
ATOM      2  C   UNL     1       6.763   4.892  14.675  0.00  0.00    +0.000 A 
ATOM      3  C   UNL     1       5.936   3.883  14.155  0.00  0.00    +0.000 A 
ATOM      4  C   UNL     1       6.057   3.476  12.823  0.00  0.00    +0.000 A 
ATOM      5  C   UNL     1       6.992   4.083  11.988  0.00  0.00    +0.000 A 
ATOM      6  C   UNL     1       7.807   5.098  12.483  0.00  0.00    +0.000 A 
ATOM      7  C   UNL     1       7.696   5.496  13.816  0.00  0.00    +0.000 A 
ENDBRANCH   1   2
BRANCH   1   8
ATOM      8  C   UNL     1       5.257   5.344  16.713  0.00  0.00    +0.000 C 
ATOM      9  O   UNL     1       4.500   6.218  16.294  0.00  0.00    +0.000 OA
ATOM     10  N   UNL     1       4.921   4.469  17.742  0.00  0.00    +0.000 N 
ATOM     11  H   UNL     1       5.698   4.048  18.233  0.00  0.00    +0.000 HD
BRANCH  10  12
ATOM     12  C   UNL     1       3.664   4.515  18.384  0.00  0.00    +0.000 A 
ATOM     13  C   UNL     1       3.314   5.576  19.225  0.00  0.00    +0.000 A 
ATOM     14  C   UNL     1       2.096   5.557  19.906  0.00  0.00    +0.000 A 
ATOM     15 CL   UNL     1       1.660   6.884  20.913  0.00  0.00    +0.000 Cl
ATOM     16  C   UNL     1       1.232   4.471  19.785  0.00  0.00    +0.000 A 
ATOM     17  C   UNL     1       1.576   3.429  18.929  0.00  0.00    +0.000 A 
ATOM     18 CL   UNL     1       0.542   2.058  18.810  0.00  0.00    +0.000 Cl
ATOM     19  C   UNL     1       2.769   3.458  18.199  0.00  0.00    +0.000 A 
ENDBRANCH  10  12
ENDBRANCH   1   8
BRANCH   1  20
ATOM     20  N   UNL     1       7.526   6.431  16.416  0.00  0.00    +0.000 NA
ATOM     21  H   UNL     1       8.499   6.141  16.293  0.00  0.00    +0.000 HD
BRANCH  20  23
ATOM     22  C   UNL     1       7.994   6.240  18.896  0.00  0.00    +0.000 C 
ATOM     23  C   UNL     1       7.391   7.047  17.741  0.00  0.00    +0.000 C 
ATOM     24  C   UNL     1       8.084   8.413  17.668  0.00  0.00    +0.000 C 
ENDBRANCH  20  23
ENDBRANCH   1  20
TORSDOF 5
ENDMDL
MODEL 4
REMARK VINA RESULT:      -8.1      0.121      1.035
REMARK  Name = 
REMARK  7 active torsions:
REMARK  status: ('A' for Active; 'I' for Inactive)
REMARK    1  A    between atoms: C_1  and  C_2
REMARK    2  A    between atoms: C_2  and  C_3
REMARK    3  A    between atoms: C_2  and  N_4
REMARK    4  A    between atoms: N_4  and  C_5
REMARK    5  A    between atoms: C_5  and  C_6
REMARK    6  A    between atoms: C_5  and  C_17
REMARK    7  A    between atoms: N_8  and  C_9
REMARK                            x       y       z     vdW  Elec       q    Type
REMARK                         _______ _______ _______ _____ _____    ______ ____
ROOT
ATOM      1  C   UNL     1       6.754   5.196  16.275  0.00  0.00    +0.000 C 
ENDROOT
BRANCH   1   2
ATOM      2  C   UNL     1       6.843   4.770  14.814  0.00  0.00    +0.000 A 
ATOM      3  C   UNL     1       7.735   5.429  13.951  0.00  0.00    +0.000 A 
ATOM      4  C   UNL     1       7.753   5.137  12.584  0.00  0.00    +0.000 A 
ATOM      5  C   UNL     1       6.895   4.171  12.063  0.00  0.00    +0.000 A 
ATOM      6  C   UNL     1       6.018   3.495  12.908  0.00  0.00    +0.000 A 
ATOM      7  C   UNL     1       5.990   3.795  14.271  0.00  0.00    +0.000 A 
ENDBRANCH   1   2
BRANCH   1   8
ATOM      8  C   UNL     1       5.309   5.219  16.830  0.00  0.00    +0.000 C 
ATOM      9  O   UNL     1       4.469   5.977  16.346  0.00  0.00    +0.000 OA
ATOM     10  N   UNL     1       5.062   4.408  17.934  0.00  0.00    +0.000 N 
ATOM     11  H   UNL     1       5.878   4.108  18.451  0.00  0.00    +0.000 HD
BRANCH  10  12
ATOM     12  C   UNL     1       3.809   4.388  18.585  0.00  0.00    +0.000 A 
ATOM     13  C   UNL     1       2.906   3.339  18.395  0.00  0.00    +0.000 A 
ATOM     14  C   UNL     1       1.644   3.383  18.991  0.00  0.00    +0.000 A 
ATOM     15 CL   UNL     1       0.552   2.070  18.776  0.00  0.00    +0.000 Cl
ATOM     16  C   UNL     1       1.258   4.484  19.752  0.00  0.00    +0.000 A 
ATOM     17  C   UNL     1       2.170   5.515  19.957  0.00  0.00    +0.000 A 
ATOM     18 CL   UNL     1       1.688   6.904  20.851  0.00  0.00    +0.000 Cl
ATOM     19  C   UNL     1       3.456   5.460  19.409  0.00  0.00    +0.000 A 
ENDBRANCH  10  12
ENDBRANCH   1   8
BRANCH   1  20
ATOM     20  N   UNL     1       7.470   6.483  16.443  0.00  0.00    +0.000 NA
ATOM     21  H   UNL     1       8.454   6.293  16.238  0.00  0.00    +0.000 HD
BRANCH  20  23
ATOM     22  C   UNL     1       8.036   6.310  18.904  0.00  0.00    +0.000 C 
ATOM     23  C   UNL     1       7.387   7.108  17.768  0.00  0.00    +0.000 C 
ATOM     24  C   UNL     1       8.076   8.474  17.659  0.00  0.00    +0.000 C 
ENDBRANCH  20  23
ENDBRANCH   1  20
TORSDOF 5
ENDMDL
MODEL 5
REMARK VINA RESULT:      -7.2      4.250      6.953
REMARK  Name = 
REMARK  7 active torsions:
REMARK  status: ('A' for Active; 'I' for Inactive)
REMARK    1  A    between atoms: C_1  and  C_2
REMARK    2  A    between atoms: C_2  and  C_3
REMARK    3  A    between atoms: C_2  and  N_4
REMARK    4  A    between atoms: N_4  and  C_5
REMARK    5  A    between atoms: C_5  and  C_6
REMARK    6  A    between atoms: C_5  and  C_17
REMARK    7  A    between atoms: N_8  and  C_9
REMARK                            x       y       z     vdW  Elec       q    Type
REMARK                         _______ _______ _______ _____ _____    ______ ____
ROOT
ATOM      1  C   UNL     1       2.971   6.516  19.059  0.00  0.00    +0.000 C 
ENDROOT
BRANCH   1   2
ATOM      2  C   UNL     1       2.157   5.235  19.214  0.00  0.00    +0.000 A 
ATOM      3  C   UNL     1       1.857   4.753  20.498  0.00  0.00    +0.000 A 
ATOM      4  C   UNL     1       1.215   3.523  20.668  0.00  0.00    +0.000 A 
ATOM      5  C   UNL     1       0.847   2.767  19.557  0.00  0.00    +0.000 A 
ATOM      6  C   UNL     1       1.120   3.240  18.276  0.00  0.00    +0.000 A 
ATOM      7  C   UNL     1       1.774   4.461  18.106  0.00  0.00    +0.000 A 
ENDBRANCH   1   2
BRANCH   1   8
ATOM      8  C   UNL     1       2.153   7.807  19.308  0.00  0.00    +0.000 C 
ATOM      9  O   UNL     1       1.711   8.057  20.429  0.00  0.00    +0.000 OA
ATOM     10  N   UNL     1       1.893   8.594  18.190  0.00  0.00    +0.000 N 
ATOM     11  H   UNL     1       1.994   8.134  17.295  0.00  0.00    +0.000 HD
BRANCH  10  12
ATOM     12  C   UNL     1       1.098   9.759  18.262  0.00  0.00    +0.000 A 
ATOM     13  C   UNL     1       1.649  10.998  18.603  0.00  0.00    +0.000 A 
ATOM     14  C   UNL     1       0.825  12.116  18.740  0.00  0.00    +0.000 A 
ATOM     15 CL   UNL     1       1.518  13.644  19.129  0.00  0.00    +0.000 Cl
ATOM     16  C   UNL     1      -0.553  12.008  18.573  0.00  0.00    +0.000 A 
ATOM     17  C   UNL     1      -1.093  10.777  18.210  0.00  0.00    +0.000 A 
ATOM     18 CL   UNL     1      -2.798  10.617  18.051  0.00  0.00    +0.000 Cl
ATOM     19  C   UNL     1      -0.275   9.659  18.018  0.00  0.00    +0.000 A 
ENDBRANCH  10  12
ENDBRANCH   1   8
BRANCH   1  20
ATOM     20  N   UNL     1       3.654   6.495  17.744  0.00  0.00    +0.000 NA
ATOM     21  H   UNL     1       3.098   5.881  17.143  0.00  0.00    +0.000 HD
BRANCH  20  23
ATOM     22  C   UNL     1       5.527   5.415  19.058  0.00  0.00    +0.000 C 
ATOM     23  C   UNL     1       5.041   6.018  17.736  0.00  0.00    +0.000 C 
ATOM     24  C   UNL     1       5.140   4.956  16.634  0.00  0.00    +0.000 C 
ENDBRANCH  20  23
ENDBRANCH   1  20
TORSDOF 5
ENDMDL
MODEL 6
REMARK VINA RESULT:      -7.2      4.242      6.908
REMARK  Name = 
REMARK  7 active torsions:
REMARK  status: ('A' for Active; 'I' for Inactive)
REMARK    1  A    between atoms: C_1  and  C_2
REMARK    2  A    between atoms: C_2  and  C_3
REMARK    3  A    between atoms: C_2  and  N_4
REMARK    4  A    between atoms: N_4  and  C_5
REMARK    5  A    between atoms: C_5  and  C_6
REMARK    6  A    between atoms: C_5  and  C_17
REMARK    7  A    between atoms: N_8  and  C_9
REMARK                            x       y       z     vdW  Elec       q    Type
REMARK                         _______ _______ _______ _____ _____    ______ ____
ROOT
ATOM      1  C   UNL     1       3.042   6.559  18.955  0.00  0.00    +0.000 C 
ENDROOT
BRANCH   1   2
ATOM      2  C   UNL     1       2.311   5.242  19.189  0.00  0.00    +0.000 A 
ATOM      3  C   UNL     1       1.898   4.472  18.089  0.00  0.00    +0.000 A 
ATOM      4  C   UNL     1       1.126   3.321  18.272  0.00  0.00    +0.000 A 
ATOM      5  C   UNL     1       0.770   2.914  19.556  0.00  0.00    +0.000 A 
ATOM      6  C   UNL     1       1.187   3.656  20.659  0.00  0.00    +0.000 A 
ATOM      7  C   UNL     1       1.947   4.812  20.476  0.00  0.00    +0.000 A 
ENDBRANCH   1   2
BRANCH   1   8
ATOM      8  C   UNL     1       2.173   7.812  19.227  0.00  0.00    +0.000 C 
ATOM      9  O   UNL     1       1.730   8.029  20.354  0.00  0.00    +0.000 OA
ATOM     10  N   UNL     1       1.870   8.601  18.121  0.00  0.00    +0.000 N 
ATOM     11  H   UNL     1       1.983   8.157  17.220  0.00  0.00    +0.000 HD
BRANCH  10  12
ATOM     12  C   UNL     1       1.027   9.730  18.214  0.00  0.00    +0.000 A 
ATOM     13  C   UNL     1       1.514  10.970  18.636  0.00  0.00    +0.000 A 
ATOM     14  C   UNL     1       0.642  12.049  18.791  0.00  0.00    +0.000 A 
ATOM     15 CL   UNL     1       1.257  13.581  19.280  0.00  0.00    +0.000 Cl
ATOM     16  C   UNL     1      -0.723  11.897  18.561  0.00  0.00    +0.000 A 
ATOM     17  C   UNL     1      -1.199  10.666  18.119  0.00  0.00    +0.000 A 
ATOM     18 CL   UNL     1      -2.889  10.449  17.880  0.00  0.00    +0.000 Cl
ATOM     19  C   UNL     1      -0.330   9.590  17.908  0.00  0.00    +0.000 A 
ENDBRANCH  10  12
ENDBRANCH   1   8
BRANCH   1  20
ATOM     20  N   UNL     1       3.642   6.541  17.600  0.00  0.00    +0.000 NA
ATOM     21  H   UNL     1       3.163   5.799  17.085  0.00  0.00    +0.000 HD
BRANCH  20  23
ATOM     22  C   UNL     1       5.678   5.550  18.729  0.00  0.00    +0.000 C 
ATOM     23  C   UNL     1       5.087   6.296  17.529  0.00  0.00    +0.000 C 
ATOM     24  C   UNL     1       5.336   5.476  16.256  0.00  0.00    +0.000 C 
ENDBRANCH  20  23
ENDBRANCH   1  20
TORSDOF 5
ENDMDL
MODEL 7
REMARK VINA RESULT:      -7.2      3.649      5.567
REMARK  Name = 
REMARK  7 active torsions:
REMARK  status: ('A' for Active; 'I' for Inactive)
REMARK    1  A    between atoms: C_1  and  C_2
REMARK    2  A    between atoms: C_2  and  C_3
REMARK    3  A    between atoms: C_2  and  N_4
REMARK    4  A    between atoms: N_4  and  C_5
REMARK    5  A    between atoms: C_5  and  C_6
REMARK    6  A    between atoms: C_5  and  C_17
REMARK    7  A    between atoms: N_8  and  C_9
REMARK                            x       y       z     vdW  Elec       q    Type
REMARK                         _______ _______ _______ _____ _____    ______ ____
ROOT
ATOM      1  C   UNL     1       3.748   4.917  18.592  0.00  0.00    +0.000 C 
ENDROOT
BRANCH   1   2
ATOM      2  C   UNL     1       5.119   5.571  18.462  0.00  0.00    +0.000 A 
ATOM      3  C   UNL     1       5.360   6.478  17.416  0.00  0.00    +0.000 A 
ATOM      4  C   UNL     1       6.638   7.002  17.205  0.00  0.00    +0.000 A 
ATOM      5  C   UNL     1       7.689   6.642  18.046  0.00  0.00    +0.000 A 
ATOM      6  C   UNL     1       7.464   5.759  19.099  0.00  0.00    +0.000 A 
ATOM      7  C   UNL     1       6.190   5.225  19.302  0.00  0.00    +0.000 A 
ENDBRANCH   1   2
BRANCH   1   8
ATOM      8  C   UNL     1       2.593   5.927  18.809  0.00  0.00    +0.000 C 
ATOM      9  O   UNL     1       1.615   5.923  18.063  0.00  0.00    +0.000 OA
ATOM     10  N   UNL     1       2.778   6.862  19.824  0.00  0.00    +0.000 N 
ATOM     11  H   UNL     1       3.732   6.996  20.130  0.00  0.00    +0.000 HD
BRANCH  10  12
ATOM     12  C   UNL     1       1.838   7.884  20.081  0.00  0.00    +0.000 A 
ATOM     13  C   UNL     1       1.486   8.814  19.100  0.00  0.00    +0.000 A 
ATOM     14  C   UNL     1       0.612   9.859  19.406  0.00  0.00    +0.000 A 
ATOM     15 CL   UNL     1       0.159  10.980  18.181  0.00  0.00    +0.000 Cl
ATOM     16  C   UNL     1       0.108  10.007  20.696  0.00  0.00    +0.000 A 
ATOM     17  C   UNL     1       0.445   9.065  21.664  0.00  0.00    +0.000 A 
ATOM     18 CL   UNL     1      -0.129   9.265  23.273  0.00  0.00    +0.000 Cl
ATOM     19  C   UNL     1       1.278   7.983  21.358  0.00  0.00    +0.000 A 
ENDBRANCH  10  12
ENDBRANCH   1   8
BRANCH   1  20
ATOM     20  N   UNL     1       3.815   3.866  19.635  0.00  0.00    +0.000 NA
ATOM     21  H   UNL     1       4.808   3.677  19.787  0.00  0.00    +0.000 HD
BRANCH  20  23
ATOM     22  C   UNL     1       1.731   2.458  19.906  0.00  0.00    +0.000 C 
ATOM     23  C   UNL     1       3.143   2.598  19.328  0.00  0.00    +0.000 C 
ATOM     24  C   UNL     1       3.073   2.490  17.800  0.00  0.00    +0.000 C 
ENDBRANCH  20  23
ENDBRANCH   1  20
TORSDOF 5
ENDMDL
MODEL 8
REMARK VINA RESULT:      -7.1      3.656      5.660
REMARK  Name = 
REMARK  7 active torsions:
REMARK  status: ('A' for Active; 'I' for Inactive)
REMARK    1  A    between atoms: C_1  and  C_2
REMARK    2  A    between atoms: C_2  and  C_3
REMARK    3  A    between atoms: C_2  and  N_4
REMARK    4  A    between atoms: N_4  and  C_5
REMARK    5  A    between atoms: C_5  and  C_6
REMARK    6  A    between atoms: C_5  and  C_17
REMARK    7  A    between atoms: N_8  and  C_9
REMARK                            x       y       z     vdW  Elec       q    Type
REMARK                         _______ _______ _______ _____ _____    ______ ____
ROOT
ATOM      1  C   UNL     1       3.662   4.917  18.499  0.00  0.00    +0.000 C 
ENDROOT
BRANCH   1   2
ATOM      2  C   UNL     1       5.074   5.474  18.351  0.00  0.00    +0.000 A 
ATOM      3  C   UNL     1       6.062   5.118  19.283  0.00  0.00    +0.000 A 
ATOM      4  C   UNL     1       7.331   5.704  19.238  0.00  0.00    +0.000 A 
ATOM      5  C   UNL     1       7.634   6.639  18.251  0.00  0.00    +0.000 A 
ATOM      6  C   UNL     1       6.672   6.988  17.307  0.00  0.00    +0.000 A 
ATOM      7  C   UNL     1       5.401   6.414  17.360  0.00  0.00    +0.000 A 
ENDBRANCH   1   2
BRANCH   1   8
ATOM      8  C   UNL     1       2.580   6.007  18.699  0.00  0.00    +0.000 C 
ATOM      9  O   UNL     1       1.686   6.156  17.866  0.00  0.00    +0.000 OA
ATOM     10  N   UNL     1       2.737   6.832  19.809  0.00  0.00    +0.000 N 
ATOM     11  H   UNL     1       3.662   6.852  20.215  0.00  0.00    +0.000 HD
BRANCH  10  12
ATOM     12  C   UNL     1       1.865   7.911  20.070  0.00  0.00    +0.000 A 
ATOM     13  C   UNL     1       1.648   8.919  19.126  0.00  0.00    +0.000 A 
ATOM     14  C   UNL     1       0.840  10.013  19.441  0.00  0.00    +0.000 A 
ATOM     15 CL   UNL     1       0.555  11.232  18.260  0.00  0.00    +0.000 Cl
ATOM     16  C   UNL     1       0.268  10.131  20.705  0.00  0.00    +0.000 A 
ATOM     17  C   UNL     1       0.468   9.113  21.634  0.00  0.00    +0.000 A 
ATOM     18 CL   UNL     1      -0.190   9.271  23.215  0.00  0.00    +0.000 Cl
ATOM     19  C   UNL     1       1.232   7.985  21.315  0.00  0.00    +0.000 A 
ENDBRANCH  10  12
ENDBRANCH   1   8
BRANCH   1  20
ATOM     20  N   UNL     1       3.662   3.886  19.563  0.00  0.00    +0.000 NA
ATOM     21  H   UNL     1       4.270   3.132  19.232  0.00  0.00    +0.000 HD
BRANCH  20  23
ATOM     22  C   UNL     1       2.005   2.012  19.181  0.00  0.00    +0.000 C 
ATOM     23  C   UNL     1       2.360   3.309  19.915  0.00  0.00    +0.000 C 
ATOM     24  C   UNL     1       2.387   3.039  21.425  0.00  0.00    +0.000 C 
ENDBRANCH  20  23
ENDBRANCH   1  20
TORSDOF 5
ENDMDL
MODEL 9
REMARK VINA RESULT:      -7.1      4.322      6.791
REMARK  Name = 
REMARK  7 active torsions:
REMARK  status: ('A' for Active; 'I' for Inactive)
REMARK    1  A    between atoms: C_1  and  C_2
REMARK    2  A    between atoms: C_2  and  C_3
REMARK    3  A    between atoms: C_2  and  N_4
REMARK    4  A    between atoms: N_4  and  C_5
REMARK    5  A    between atoms: C_5  and  C_6
REMARK    6  A    between atoms: C_5  and  C_17
REMARK    7  A    between atoms: N_8  and  C_9
REMARK                            x       y       z     vdW  Elec       q    Type
REMARK                         _______ _______ _______ _____ _____    ______ ____
ROOT
ATOM      1  C   UNL     1       2.995   6.623  18.980  0.00  0.00    +0.000 C 
ENDROOT
BRANCH   1   2
ATOM      2  C   UNL     1       2.297   5.293  19.242  0.00  0.00    +0.000 A 
ATOM      3  C   UNL     1       1.889   4.497  18.159  0.00  0.00    +0.000 A 
ATOM      4  C   UNL     1       1.145   3.332  18.369  0.00  0.00    +0.000 A 
ATOM      5  C   UNL     1       0.815   2.936  19.662  0.00  0.00    +0.000 A 
ATOM      6  C   UNL     1       1.229   3.703  20.749  0.00  0.00    +0.000 A 
ATOM      7  C   UNL     1       1.960   4.874  20.540  0.00  0.00    +0.000 A 
ENDBRANCH   1   2
BRANCH   1   8
ATOM      8  C   UNL     1       2.119   7.860  19.297  0.00  0.00    +0.000 C 
ATOM      9  O   UNL     1       1.679   8.035  20.433  0.00  0.00    +0.000 OA
ATOM     10  N   UNL     1       1.807   8.685  18.221  0.00  0.00    +0.000 N 
ATOM     11  H   UNL     1       1.920   8.273  17.304  0.00  0.00    +0.000 HD
BRANCH  10  12
ATOM     12  C   UNL     1       0.958   9.805  18.355  0.00  0.00    +0.000 A 
ATOM     13  C   UNL     1      -0.413   9.715  18.101  0.00  0.00    +0.000 A 
ATOM     14  C   UNL     1      -1.215  10.856  18.168  0.00  0.00    +0.000 A 
ATOM     15 CL   UNL     1      -2.908  10.728  17.884  0.00  0.00    +0.000 Cl
ATOM     16  C   UNL     1      -0.657  12.099  18.456  0.00  0.00    +0.000 A 
ATOM     17  C   UNL     1       0.705  12.179  18.731  0.00  0.00    +0.000 A 
ATOM     18 CL   UNL     1       1.417  13.715  19.038  0.00  0.00    +0.000 Cl
ATOM     19  C   UNL     1       1.513  11.035  18.719  0.00  0.00    +0.000 A 
ENDBRANCH  10  12
ENDBRANCH   1   8
BRANCH   1  20
ATOM     20  N   UNL     1       3.530   6.619  17.598  0.00  0.00    +0.000 NA
ATOM     21  H   UNL     1       3.011   5.898  17.091  0.00  0.00    +0.000 HD
BRANCH  20  23
ATOM     22  C   UNL     1       5.603   5.598  18.629  0.00  0.00    +0.000 C 
ATOM     23  C   UNL     1       4.964   6.345  17.454  0.00  0.00    +0.000 C 
ATOM     24  C   UNL     1       5.131   5.508  16.179  0.00  0.00    +0.000 C 
ENDBRANCH  20  23
ENDBRANCH   1  20
TORSDOF 5
ENDMDL
