MODEL 1
REMARK VINA RESULT:      -7.8      0.000      0.000
REMARK  Name = 
REMARK  4 active torsions:
REMARK  status: ('A' for Active; 'I' for Inactive)
REMARK    1  A    between atoms: C_1  and  C_2
REMARK    2  A    between atoms: C_3  and  C_4
REMARK    3  A    between atoms: N_6  and  C_7
REMARK    4  A    between atoms: N_12  and  C_13
REMARK                            x       y       z     vdW  Elec       q    Type
REMARK                         _______ _______ _______ _____ _____    ______ ____
ROOT
ATOM      1  C   UNL     1       2.445   7.322  19.136  0.00  0.00    +0.000 A 
ATOM      2  C   UNL     1       3.307   7.848  18.176  0.00  0.00    +0.000 A 
ATOM      3  C   UNL     1       4.091   7.011  17.391  0.00  0.00    +0.000 A 
ATOM      4  C   UNL     1       4.034   5.617  17.556  0.00  0.00    +0.000 A 
ATOM      5  C   UNL     1       4.762   4.705  16.772  0.00  0.00    +0.000 A 
ATOM      6  N   UNL     1       5.667   5.210  15.808  0.00  0.00    +0.000 N 
ATOM      7  N   UNL     1       4.610   3.378  16.909  0.00  0.00    +0.000 NA
ATOM      8  C   UNL     1       3.755   2.969  17.851  0.00  0.00    +0.000 A 
ATOM      9  N   UNL     1       3.048   3.749  18.682  0.00  0.00    +0.000 NA
ATOM     10  C   UNL     1       3.179   5.070  18.523  0.00  0.00    +0.000 A 
ATOM     11  C   UNL     1       2.422   5.934  19.321  0.00  0.00    +0.000 A 
ATOM     12  H   UNL     1       6.356   5.819  16.232  0.00  0.00    +0.000 HD
ENDROOT
BRANCH   6  13
ATOM     13  C   UNL     1       6.042   4.688  14.556  0.00  0.00    +0.000 A 
ATOM     14  C   UNL     1       7.332   4.953  14.068  0.00  0.00    +0.000 A 
ATOM     15  C   UNL     1       7.693   4.619  12.759  0.00  0.00    +0.000 A 
ATOM     16  C   UNL     1       6.764   4.021  11.913  0.00  0.00    +0.000 A 
ATOM     17  C   UNL     1       5.487   3.740  12.391  0.00  0.00    +0.000 A 
ATOM     18 BR   UNL     1       4.209   2.945  11.244  0.00  0.00    +0.000 Br
ATOM     19  C   UNL     1       5.127   4.070  13.698  0.00  0.00    +0.000 A 
ENDBRANCH   6  13
BRANCH   1  22
ATOM     20  C   UNL     1       0.906   9.239  19.410  0.00  0.00    +0.000 C 
ATOM     21  O   UNL     1       0.902   9.608  18.240  0.00  0.00    +0.000 OA
ATOM     22  N   UNL     1       1.586   8.143  19.909  0.00  0.00    +0.000 N 
ATOM     23  H   UNL     1       1.374   7.833  20.850  0.00  0.00    +0.000 HD
BRANCH  20  26
ATOM     24  C   UNL     1      -0.621  10.119  22.830  0.00  0.00    +0.000 C 
ATOM     25  C   UNL     1       0.132   9.536  21.685  0.00  0.00    +0.000 C 
ATOM     26  C   UNL     1       0.092   9.976  20.415  0.00  0.00    +0.000 C 
ENDBRANCH  20  26
ENDBRANCH   1  22
TORSDOF 3
ENDMDL
MODEL 2
REMARK VINA RESULT:      -7.6      4.532      8.835
REMARK  Name = 
REMARK  4 active torsions:
REMARK  status: ('A' for Active; 'I' for Inactive)
REMARK    1  A    between atoms: C_1  and  C_2
REMARK    2  A    between atoms: C_3  and  C_4
REMARK    3  A    between atoms: N_6  and  C_7
REMARK    4  A    between atoms: N_12  and  C_13
REMARK                            x       y       z     vdW  Elec       q    Type
REMARK                         _______ _______ _______ _____ _____    ______ ____
ROOT
ATOM      1  C   UNL     1       2.415   6.639  18.553  0.00  0.00    +0.000 A 
ATOM      2  C   UNL     1       2.296   7.626  17.577  0.00  0.00    +0.000 A 
ATOM      3  C   UNL     1       1.822   8.891  17.902  0.00  0.00    +0.000 A 
ATOM      4  C   UNL     1       1.446   9.197  19.221  0.00  0.00    +0.000 A 
ATOM      5  C   UNL     1       1.000  10.464  19.635  0.00  0.00    +0.000 A 
ATOM      6  N   UNL     1       0.842  11.479  18.661  0.00  0.00    +0.000 N 
ATOM      7  N   UNL     1       0.734  10.733  20.923  0.00  0.00    +0.000 NA
ATOM      8  C   UNL     1       0.886   9.724  21.787  0.00  0.00    +0.000 A 
ATOM      9  N   UNL     1       1.259   8.470  21.493  0.00  0.00    +0.000 NA
ATOM     10  C   UNL     1       1.551   8.214  20.214  0.00  0.00    +0.000 A 
ATOM     11  C   UNL     1       2.003   6.939  19.858  0.00  0.00    +0.000 A 
ATOM     12  H   UNL     1       0.207  11.190  17.927  0.00  0.00    +0.000 HD
ENDROOT
BRANCH   6  13
ATOM     13  C   UNL     1       1.016  12.871  18.766  0.00  0.00    +0.000 A 
ATOM     14  C   UNL     1      -0.108  13.683  18.992  0.00  0.00    +0.000 A 
ATOM     15  C   UNL     1      -0.021  15.076  18.921  0.00  0.00    +0.000 A 
ATOM     16  C   UNL     1       1.194  15.682  18.615  0.00  0.00    +0.000 A 
ATOM     17  C   UNL     1       2.318  14.889  18.404  0.00  0.00    +0.000 A 
ATOM     18 BR   UNL     1       3.970  15.700  17.967  0.00  0.00    +0.000 Br
ATOM     19  C   UNL     1       2.233  13.498  18.477  0.00  0.00    +0.000 A 
ENDBRANCH   6  13
BRANCH   1  22
ATOM     20  C   UNL     1       2.234   4.325  17.697  0.00  0.00    +0.000 C 
ATOM     21  O   UNL     1       1.073   4.392  17.305  0.00  0.00    +0.000 OA
ATOM     22  N   UNL     1       2.954   5.358  18.269  0.00  0.00    +0.000 N 
ATOM     23  H   UNL     1       3.952   5.240  18.389  0.00  0.00    +0.000 HD
BRANCH  20  26
ATOM     24  C   UNL     1       3.964   1.031  18.675  0.00  0.00    +0.000 C 
ATOM     25  C   UNL     1       3.212   2.315  18.628  0.00  0.00    +0.000 C 
ATOM     26  C   UNL     1       2.995   3.057  17.528  0.00  0.00    +0.000 C 
ENDBRANCH  20  26
ENDBRANCH   1  22
TORSDOF 3
ENDMDL
MODEL 3
REMARK VINA RESULT:      -7.6      4.970      8.877
REMARK  Name = 
REMARK  4 active torsions:
REMARK  status: ('A' for Active; 'I' for Inactive)
REMARK    1  A    between atoms: C_1  and  C_2
REMARK    2  A    between atoms: C_3  and  C_4
REMARK    3  A    between atoms: N_6  and  C_7
REMARK    4  A    between atoms: N_12  and  C_13
REMARK                            x       y       z     vdW  Elec       q    Type
REMARK                         _______ _______ _______ _____ _____    ______ ____
ROOT
ATOM      1  C   UNL     1       2.419   6.648  18.996  0.00  0.00    +0.000 A 
ATOM      2  C   UNL     1       2.450   7.527  17.915  0.00  0.00    +0.000 A 
ATOM      3  C   UNL     1       2.000   8.835  18.051  0.00  0.00    +0.000 A 
ATOM      4  C   UNL     1       1.497   9.293  19.281  0.00  0.00    +0.000 A 
ATOM      5  C   UNL     1       1.064  10.612  19.508  0.00  0.00    +0.000 A 
ATOM      6  N   UNL     1       1.057  11.519  18.422  0.00  0.00    +0.000 N 
ATOM      7  N   UNL     1       0.673  11.026  20.723  0.00  0.00    +0.000 NA
ATOM      8  C   UNL     1       0.685  10.113  21.698  0.00  0.00    +0.000 A 
ATOM      9  N   UNL     1       1.033   8.823  21.581  0.00  0.00    +0.000 NA
ATOM     10  C   UNL     1       1.450   8.420  20.377  0.00  0.00    +0.000 A 
ATOM     11  C   UNL     1       1.882   7.101  20.207  0.00  0.00    +0.000 A 
ATOM     12  H   UNL     1       0.494  11.174  17.655  0.00  0.00    +0.000 HD
ENDROOT
BRANCH   6  13
ATOM     13  C   UNL     1       1.280  12.909  18.401  0.00  0.00    +0.000 A 
ATOM     14  C   UNL     1       2.591  13.385  18.236  0.00  0.00    +0.000 A 
ATOM     15  C   UNL     1       2.893  14.741  18.392  0.00  0.00    +0.000 A 
ATOM     16  C   UNL     1       1.888  15.643  18.726  0.00  0.00    +0.000 A 
ATOM     17  C   UNL     1       0.582  15.186  18.877  0.00  0.00    +0.000 A 
ATOM     18 BR   UNL     1      -0.790  16.400  19.350  0.00  0.00    +0.000 Br
ATOM     19  C   UNL     1       0.278  13.833  18.719  0.00  0.00    +0.000 A 
ENDBRANCH   6  13
BRANCH   1  22
ATOM     20  C   UNL     1       4.255   4.994  19.120  0.00  0.00    +0.000 C 
ATOM     21  O   UNL     1       5.142   5.768  19.467  0.00  0.00    +0.000 OA
ATOM     22  N   UNL     1       2.929   5.328  18.909  0.00  0.00    +0.000 N 
ATOM     23  H   UNL     1       2.257   4.579  18.800  0.00  0.00    +0.000 HD
BRANCH  20  26
ATOM     24  C   UNL     1       3.653   1.263  18.403  0.00  0.00    +0.000 C 
ATOM     25  C   UNL     1       3.552   2.734  18.611  0.00  0.00    +0.000 C 
ATOM     26  C   UNL     1       4.569   3.551  18.937  0.00  0.00    +0.000 C 
ENDBRANCH  20  26
ENDBRANCH   1  22
TORSDOF 3
ENDMDL
MODEL 4
REMARK VINA RESULT:      -7.5      3.909      6.362
REMARK  Name = 
REMARK  4 active torsions:
REMARK  status: ('A' for Active; 'I' for Inactive)
REMARK    1  A    between atoms: C_1  and  C_2
REMARK    2  A    between atoms: C_3  and  C_4
REMARK    3  A    between atoms: N_6  and  C_7
REMARK    4  A    between atoms: N_12  and  C_13
REMARK                            x       y       z     vdW  Elec       q    Type
REMARK                         _______ _______ _______ _____ _____    ______ ____
ROOT
ATOM      1  C   UNL     1      -1.903  11.295  18.925  0.00  0.00    +0.000 A 
ATOM      2  C   UNL     1      -1.235  10.825  17.796  0.00  0.00    +0.000 A 
ATOM      3  C   UNL     1      -0.122  10.002  17.922  0.00  0.00    +0.000 A 
ATOM      4  C   UNL     1       0.356   9.635  19.191  0.00  0.00    +0.000 A 
ATOM      5  C   UNL     1       1.447   8.773  19.399  0.00  0.00    +0.000 A 
ATOM      6  N   UNL     1       2.163   8.302  18.272  0.00  0.00    +0.000 N 
ATOM      7  N   UNL     1       1.813   8.381  20.629  0.00  0.00    +0.000 NA
ATOM      8  C   UNL     1       1.107   8.879  21.649  0.00  0.00    +0.000 A 
ATOM      9  N   UNL     1       0.083   9.741  21.566  0.00  0.00    +0.000 NA
ATOM     10  C   UNL     1      -0.299  10.105  20.338  0.00  0.00    +0.000 A 
ATOM     11  C   UNL     1      -1.399  10.955  20.187  0.00  0.00    +0.000 A 
ATOM     12  H   UNL     1       2.520   9.068  17.715  0.00  0.00    +0.000 HD
ENDROOT
BRANCH   6  13
ATOM     13  C   UNL     1       2.819   7.074  18.063  0.00  0.00    +0.000 A 
ATOM     14  C   UNL     1       4.075   7.073  17.435  0.00  0.00    +0.000 A 
ATOM     15  C   UNL     1       4.684   5.878  17.038  0.00  0.00    +0.000 A 
ATOM     16  C   UNL     1       4.040   4.664  17.257  0.00  0.00    +0.000 A 
ATOM     17  C   UNL     1       2.802   4.652  17.892  0.00  0.00    +0.000 A 
ATOM     18 BR   UNL     1       1.908   3.009  18.176  0.00  0.00    +0.000 Br
ATOM     19  C   UNL     1       2.194   5.843  18.291  0.00  0.00    +0.000 A 
ENDBRANCH   6  13
BRANCH   1  22
ATOM     20  C   UNL     1      -4.298  11.605  18.390  0.00  0.00    +0.000 C 
ATOM     21  O   UNL     1      -4.543  10.443  18.082  0.00  0.00    +0.000 OA
ATOM     22  N   UNL     1      -3.078  12.083  18.833  0.00  0.00    +0.000 N 
ATOM     23  H   UNL     1      -3.041  13.016  19.225  0.00  0.00    +0.000 HD
BRANCH  20  26
ATOM     24  C   UNL     1      -7.199  13.677  16.941  0.00  0.00    +0.000 C 
ATOM     25  C   UNL     1      -6.091  12.716  17.200  0.00  0.00    +0.000 C 
ATOM     26  C   UNL     1      -5.383  12.623  18.339  0.00  0.00    +0.000 C 
ENDBRANCH  20  26
ENDBRANCH   1  22
TORSDOF 3
ENDMDL
MODEL 5
REMARK VINA RESULT:      -7.4      4.399      8.912
REMARK  Name = 
REMARK  4 active torsions:
REMARK  status: ('A' for Active; 'I' for Inactive)
REMARK    1  A    between atoms: C_1  and  C_2
REMARK    2  A    between atoms: C_3  and  C_4
REMARK    3  A    between atoms: N_6  and  C_7
REMARK    4  A    between atoms: N_12  and  C_13
REMARK                            x       y       z     vdW  Elec       q    Type
REMARK                         _______ _______ _______ _____ _____    ______ ____
ROOT
ATOM      1  C   UNL     1       2.348   6.792  18.781  0.00  0.00    +0.000 A 
ATOM      2  C   UNL     1       2.295   7.756  17.776  0.00  0.00    +0.000 A 
ATOM      3  C   UNL     1       1.825   9.036  18.044  0.00  0.00    +0.000 A 
ATOM      4  C   UNL     1       1.387   9.380  19.334  0.00  0.00    +0.000 A 
ATOM      5  C   UNL     1       0.941  10.665  19.693  0.00  0.00    +0.000 A 
ATOM      6  N   UNL     1       0.849  11.656  18.687  0.00  0.00    +0.000 N 
ATOM      7  N   UNL     1       0.614  10.970  20.958  0.00  0.00    +0.000 NA
ATOM      8  C   UNL     1       0.704   9.982  21.854  0.00  0.00    +0.000 A 
ATOM      9  N   UNL     1       1.072   8.715  21.611  0.00  0.00    +0.000 NA
ATOM     10  C   UNL     1       1.426   8.421  20.356  0.00  0.00    +0.000 A 
ATOM     11  C   UNL     1       1.875   7.132  20.054  0.00  0.00    +0.000 A 
ATOM     12  H   UNL     1       0.248  11.358  17.929  0.00  0.00    +0.000 HD
ENDROOT
BRANCH   6  13
ATOM     13  C   UNL     1       1.040  13.048  18.767  0.00  0.00    +0.000 A 
ATOM     14  C   UNL     1      -0.081  13.881  18.919  0.00  0.00    +0.000 A 
ATOM     15  C   UNL     1       0.031  15.271  18.819  0.00  0.00    +0.000 A 
ATOM     16  C   UNL     1       1.268  15.851  18.556  0.00  0.00    +0.000 A 
ATOM     17  C   UNL     1       2.389  15.037  18.418  0.00  0.00    +0.000 A 
ATOM     18 BR   UNL     1       4.072  15.813  18.040  0.00  0.00    +0.000 Br
ATOM     19  C   UNL     1       2.279  13.650  18.521  0.00  0.00    +0.000 A 
ENDBRANCH   6  13
BRANCH   1  22
ATOM     20  C   UNL     1       4.214   5.244  18.290  0.00  0.00    +0.000 C 
ATOM     21  O   UNL     1       5.113   6.079  18.273  0.00  0.00    +0.000 OA
ATOM     22  N   UNL     1       2.881   5.497  18.557  0.00  0.00    +0.000 N 
ATOM     23  H   UNL     1       2.264   4.710  18.718  0.00  0.00    +0.000 HD
BRANCH  20  26
ATOM     24  C   UNL     1       3.739   1.426  18.240  0.00  0.00    +0.000 C 
ATOM     25  C   UNL     1       3.604   2.902  18.382  0.00  0.00    +0.000 C 
ATOM     26  C   UNL     1       4.538   3.811  18.050  0.00  0.00    +0.000 C 
ENDBRANCH  20  26
ENDBRANCH   1  22
TORSDOF 3
ENDMDL
MODEL 6
REMARK VINA RESULT:      -7.4      4.366      9.606
REMARK  Name = 
REMARK  4 active torsions:
REMARK  status: ('A' for Active; 'I' for Inactive)
REMARK    1  A    between atoms: C_1  and  C_2
REMARK    2  A    between atoms: C_3  and  C_4
REMARK    3  A    between atoms: N_6  and  C_7
REMARK    4  A    between atoms: N_12  and  C_13
REMARK                            x       y       z     vdW  Elec       q    Type
REMARK                         _______ _______ _______ _____ _____    ______ ____
ROOT
ATOM      1  C   UNL     1       2.497   7.426  18.540  0.00  0.00    +0.000 A 
ATOM      2  C   UNL     1       2.029   8.460  17.730  0.00  0.00    +0.000 A 
ATOM      3  C   UNL     1       1.273   9.494  18.268  0.00  0.00    +0.000 A 
ATOM      4  C   UNL     1       0.960   9.514  19.637  0.00  0.00    +0.000 A 
ATOM      5  C   UNL     1       0.238  10.547  20.261  0.00  0.00    +0.000 A 
ATOM      6  N   UNL     1      -0.274  11.596  19.461  0.00  0.00    +0.000 N 
ATOM      7  N   UNL     1       0.037  10.566  21.588  0.00  0.00    +0.000 NA
ATOM      8  C   UNL     1       0.531   9.535  22.282  0.00  0.00    +0.000 A 
ATOM      9  N   UNL     1       1.191   8.480  21.783  0.00  0.00    +0.000 NA
ATOM     10  C   UNL     1       1.415   8.478  20.465  0.00  0.00    +0.000 A 
ATOM     11  C   UNL     1       2.149   7.433  19.896  0.00  0.00    +0.000 A 
ATOM     12  H   UNL     1      -0.879  11.241  18.730  0.00  0.00    +0.000 HD
ENDROOT
BRANCH   6  13
ATOM     13  C   UNL     1      -0.463  12.957  19.762  0.00  0.00    +0.000 A 
ATOM     14  C   UNL     1      -1.622  13.347  20.453  0.00  0.00    +0.000 A 
ATOM     15  C   UNL     1      -1.949  14.697  20.615  0.00  0.00    +0.000 A 
ATOM     16  C   UNL     1      -1.122  15.681  20.081  0.00  0.00    +0.000 A 
ATOM     17  C   UNL     1       0.037  15.307  19.408  0.00  0.00    +0.000 A 
ATOM     18 BR   UNL     1       1.158  16.635  18.659  0.00  0.00    +0.000 Br
ATOM     19  C   UNL     1       0.366  13.961  19.247  0.00  0.00    +0.000 A 
ENDBRANCH   6  13
BRANCH   1  22
ATOM     20  C   UNL     1       2.877   5.110  17.759  0.00  0.00    +0.000 C 
ATOM     21  O   UNL     1       1.717   4.721  17.846  0.00  0.00    +0.000 OA
ATOM     22  N   UNL     1       3.324   6.389  18.037  0.00  0.00    +0.000 N 
ATOM     23  H   UNL     1       4.265   6.641  17.760  0.00  0.00    +0.000 HD
BRANCH  20  26
ATOM     24  C   UNL     1       5.941   3.883  15.783  0.00  0.00    +0.000 C 
ATOM     25  C   UNL     1       4.827   4.656  16.397  0.00  0.00    +0.000 C 
ATOM     26  C   UNL     1       3.931   4.176  17.277  0.00  0.00    +0.000 C 
ENDBRANCH  20  26
ENDBRANCH   1  22
TORSDOF 3
ENDMDL
MODEL 7
REMARK VINA RESULT:      -7.4      4.608      7.456
REMARK  Name = 
REMARK  4 active torsions:
REMARK  status: ('A' for Active; 'I' for Inactive)
REMARK    1  A    between atoms: C_1  and  C_2
REMARK    2  A    between atoms: C_3  and  C_4
REMARK    3  A    between atoms: N_6  and  C_7
REMARK    4  A    between atoms: N_12  and  C_13
REMARK                            x       y       z     vdW  Elec       q    Type
REMARK                         _______ _______ _______ _____ _____    ______ ____
ROOT
ATOM      1  C   UNL     1      -2.716  11.601  18.292  0.00  0.00    +0.000 A 
ATOM      2  C   UNL     1      -1.996  10.851  17.364  0.00  0.00    +0.000 A 
ATOM      3  C   UNL     1      -0.822  10.204  17.732  0.00  0.00    +0.000 A 
ATOM      4  C   UNL     1      -0.336  10.300  19.047  0.00  0.00    +0.000 A 
ATOM      5  C   UNL     1       0.818   9.639  19.505  0.00  0.00    +0.000 A 
ATOM      6  N   UNL     1       1.586   8.894  18.579  0.00  0.00    +0.000 N 
ATOM      7  N   UNL     1       1.196   9.691  20.792  0.00  0.00    +0.000 NA
ATOM      8  C   UNL     1       0.438  10.429  21.608  0.00  0.00    +0.000 A 
ATOM      9  N   UNL     1      -0.651  11.134  21.268  0.00  0.00    +0.000 NA
ATOM     10  C   UNL     1      -1.042  11.057  19.992  0.00  0.00    +0.000 A 
ATOM     11  C   UNL     1      -2.205  11.722  19.590  0.00  0.00    +0.000 A 
ATOM     12  H   UNL     1       1.889   9.469  17.803  0.00  0.00    +0.000 HD
ENDROOT
BRANCH   6  13
ATOM     13  C   UNL     1       2.341   7.721  18.765  0.00  0.00    +0.000 A 
ATOM     14  C   UNL     1       3.325   7.388  17.819  0.00  0.00    +0.000 A 
ATOM     15  C   UNL     1       3.973   6.150  17.854  0.00  0.00    +0.000 A 
ATOM     16  C   UNL     1       3.639   5.218  18.832  0.00  0.00    +0.000 A 
ATOM     17  C   UNL     1       2.676   5.541  19.783  0.00  0.00    +0.000 A 
ATOM     18 BR   UNL     1       2.199   4.275  21.105  0.00  0.00    +0.000 Br
ATOM     19  C   UNL     1       2.031   6.778  19.752  0.00  0.00    +0.000 A 
ENDBRANCH   6  13
BRANCH   1  22
ATOM     20  C   UNL     1      -5.160  11.555  17.911  0.00  0.00    +0.000 C 
ATOM     21  O   UNL     1      -5.341  10.374  18.190  0.00  0.00    +0.000 OA
ATOM     22  N   UNL     1      -3.949  12.221  17.967  0.00  0.00    +0.000 N 
ATOM     23  H   UNL     1      -3.951  13.231  17.886  0.00  0.00    +0.000 HD
BRANCH  20  26
ATOM     24  C   UNL     1      -7.916  14.222  18.208  0.00  0.00    +0.000 C 
ATOM     25  C   UNL     1      -6.765  13.299  18.406  0.00  0.00    +0.000 C 
ATOM     26  C   UNL     1      -6.316  12.402  17.510  0.00  0.00    +0.000 C 
ENDBRANCH  20  26
ENDBRANCH   1  22
TORSDOF 3
ENDMDL
MODEL 8
REMARK VINA RESULT:      -7.3      4.967      8.847
REMARK  Name = 
REMARK  4 active torsions:
REMARK  status: ('A' for Active; 'I' for Inactive)
REMARK    1  A    between atoms: C_1  and  C_2
REMARK    2  A    between atoms: C_3  and  C_4
REMARK    3  A    between atoms: N_6  and  C_7
REMARK    4  A    between atoms: N_12  and  C_13
REMARK                            x       y       z     vdW  Elec       q    Type
REMARK                         _______ _______ _______ _____ _____    ______ ____
ROOT
ATOM      1  C   UNL     1       2.405   6.663  18.814  0.00  0.00    +0.000 A 
ATOM      2  C   UNL     1       2.413   7.567  17.754  0.00  0.00    +0.000 A 
ATOM      3  C   UNL     1       1.967   8.871  17.930  0.00  0.00    +0.000 A 
ATOM      4  C   UNL     1       1.493   9.302  19.181  0.00  0.00    +0.000 A 
ATOM      5  C   UNL     1       1.067  10.615  19.448  0.00  0.00    +0.000 A 
ATOM      6  N   UNL     1       1.037  11.548  18.384  0.00  0.00    +0.000 N 
ATOM      7  N   UNL     1       0.704  11.002  20.681  0.00  0.00    +0.000 NA
ATOM      8  C   UNL     1       0.737  10.067  21.635  0.00  0.00    +0.000 A 
ATOM      9  N   UNL     1       1.080   8.779  21.480  0.00  0.00    +0.000 NA
ATOM     10  C   UNL     1       1.470   8.404  20.257  0.00  0.00    +0.000 A 
ATOM     11  C   UNL     1       1.896   7.089  20.048  0.00  0.00    +0.000 A 
ATOM     12  H   UNL     1       0.456  11.220  17.622  0.00  0.00    +0.000 HD
ENDROOT
BRANCH   6  13
ATOM     13  C   UNL     1       1.261  12.937  18.390  0.00  0.00    +0.000 A 
ATOM     14  C   UNL     1       2.574  13.415  18.245  0.00  0.00    +0.000 A 
ATOM     15  C   UNL     1       2.876  14.768  18.428  0.00  0.00    +0.000 A 
ATOM     16  C   UNL     1       1.868  15.665  18.768  0.00  0.00    +0.000 A 
ATOM     17  C   UNL     1       0.561  15.206  18.901  0.00  0.00    +0.000 A 
ATOM     18 BR   UNL     1      -0.814  16.412  19.384  0.00  0.00    +0.000 Br
ATOM     19  C   UNL     1       0.257  13.857  18.715  0.00  0.00    +0.000 A 
ENDBRANCH   6  13
BRANCH   1  22
ATOM     20  C   UNL     1       2.253   4.324  18.024  0.00  0.00    +0.000 C 
ATOM     21  O   UNL     1       1.193   4.432  17.414  0.00  0.00    +0.000 OA
ATOM     22  N   UNL     1       2.911   5.345  18.686  0.00  0.00    +0.000 N 
ATOM     23  H   UNL     1       3.860   5.181  19.000  0.00  0.00    +0.000 HD
BRANCH  20  26
ATOM     24  C   UNL     1       4.405   1.443  19.390  0.00  0.00    +0.000 C 
ATOM     25  C   UNL     1       3.625   2.693  19.171  0.00  0.00    +0.000 C 
ATOM     26  C   UNL     1       2.955   3.012  18.050  0.00  0.00    +0.000 C 
ENDBRANCH  20  26
ENDBRANCH   1  22
TORSDOF 3
ENDMDL
MODEL 9
REMARK VINA RESULT:      -7.3      4.628      9.674
REMARK  Name = 
REMARK  4 active torsions:
REMARK  status: ('A' for Active; 'I' for Inactive)
REMARK    1  A    between atoms: C_1  and  C_2
REMARK    2  A    between atoms: C_3  and  C_4
REMARK    3  A    between atoms: N_6  and  C_7
REMARK    4  A    between atoms: N_12  and  C_13
REMARK                            x       y       z     vdW  Elec       q    Type
REMARK                         _______ _______ _______ _____ _____    ______ ____
ROOT
ATOM      1  C   UNL     1       2.549   7.411  18.506  0.00  0.00    +0.000 A 
ATOM      2  C   UNL     1       2.061   8.409  17.664  0.00  0.00    +0.000 A 
ATOM      3  C   UNL     1       1.273   9.437  18.166  0.00  0.00    +0.000 A 
ATOM      4  C   UNL     1       0.947   9.486  19.532  0.00  0.00    +0.000 A 
ATOM      5  C   UNL     1       0.192  10.516  20.121  0.00  0.00    +0.000 A 
ATOM      6  N   UNL     1      -0.341  11.528  19.287  0.00  0.00    +0.000 N 
ATOM      7  N   UNL     1      -0.021  10.566  21.445  0.00  0.00    +0.000 NA
ATOM      8  C   UNL     1       0.494   9.569  22.171  0.00  0.00    +0.000 A 
ATOM      9  N   UNL     1       1.186   8.518  21.708  0.00  0.00    +0.000 NA
ATOM     10  C   UNL     1       1.422   8.486  20.392  0.00  0.00    +0.000 A 
ATOM     11  C   UNL     1       2.189   7.446  19.859  0.00  0.00    +0.000 A 
ATOM     12  H   UNL     1      -0.929  11.137  18.562  0.00  0.00    +0.000 HD
ENDROOT
BRANCH   6  13
ATOM     13  C   UNL     1      -0.569  12.892  19.550  0.00  0.00    +0.000 A 
ATOM     14  C   UNL     1       0.472  13.809  19.332  0.00  0.00    +0.000 A 
ATOM     15  C   UNL     1       0.364  15.139  19.747  0.00  0.00    +0.000 A 
ATOM     16  C   UNL     1      -0.788  15.572  20.397  0.00  0.00    +0.000 A 
ATOM     17  C   UNL     1      -1.832  14.676  20.606  0.00  0.00    +0.000 A 
ATOM     18 BR   UNL     1      -3.394  15.248  21.508  0.00  0.00    +0.000 Br
ATOM     19  C   UNL     1      -1.726  13.349  20.189  0.00  0.00    +0.000 A 
ENDBRANCH   6  13
BRANCH   1  22
ATOM     20  C   UNL     1       2.985   5.103  17.728  0.00  0.00    +0.000 C 
ATOM     21  O   UNL     1       1.824   4.707  17.752  0.00  0.00    +0.000 OA
ATOM     22  N   UNL     1       3.408   6.383  18.039  0.00  0.00    +0.000 N 
ATOM     23  H   UNL     1       4.360   6.643  17.814  0.00  0.00    +0.000 HD
BRANCH  20  26
ATOM     24  C   UNL     1       5.987   3.810  15.700  0.00  0.00    +0.000 C 
ATOM     25  C   UNL     1       4.865   4.589  16.291  0.00  0.00    +0.000 C 
ATOM     26  C   UNL     1       4.068   4.180  17.295  0.00  0.00    +0.000 C 
ENDBRANCH  20  26
ENDBRANCH   1  22
TORSDOF 3
ENDMDL
