MODEL 1
REMARK VINA RESULT:      -8.4      0.000      0.000
REMARK  Name = 
REMARK  5 active torsions:
REMARK  status: ('A' for Active; 'I' for Inactive)
REMARK    1  A    between atoms: C_1  and  C_2
REMARK    2  A    between atoms: C_2  and  C_3
REMARK    3  A    between atoms: N_5  and  C_6
REMARK    4  A    between atoms: C_15  and  C_16
REMARK    5  A    between atoms: C_20  and  C_21
REMARK                            x       y       z     vdW  Elec       q    Type
REMARK                         _______ _______ _______ _____ _____    ______ ____
ROOT
ATOM      1  C   UNL     1      -0.159   9.080  22.760  0.00  0.00    +0.000 C 
ATOM      2  C   UNL     1       0.457   9.485  21.412  0.00  0.00    +0.000 C 
ATOM      3  C   UNL     1      -0.636   9.804  20.369  0.00  0.00    +0.000 C 
ATOM      4  C   UNL     1      -0.530  11.280  20.280  0.00  0.00    +0.000 A 
ATOM      5  C   UNL     1      -1.306  12.234  19.613  0.00  0.00    +0.000 A 
ATOM      6  C   UNL     1      -0.872  13.566  19.771  0.00  0.00    +0.000 A 
ATOM      7  C   UNL     1       0.250  13.861  20.547  0.00  0.00    +0.000 A 
ATOM      8  N   UNL     1       0.999  12.934  21.174  0.00  0.00    +0.000 NA
ATOM      9  C   UNL     1       0.571  11.680  21.015  0.00  0.00    +0.000 A 
ATOM     10  O   UNL     1       1.276  10.651  21.607  0.00  0.00    +0.000 OA
ENDROOT
BRANCH   5  11
ATOM     11  C   UNL     1      -2.511  11.919  18.799  0.00  0.00    +0.000 A 
ATOM     12  C   UNL     1      -3.813  12.202  19.243  0.00  0.00    +0.000 A 
ATOM     13  C   UNL     1      -4.941  11.938  18.459  0.00  0.00    +0.000 A 
ATOM     14  C   UNL     1      -4.802  11.325  17.220  0.00  0.00    +0.000 A 
ATOM     15  C   UNL     1      -3.532  10.971  16.755  0.00  0.00    +0.000 A 
ATOM     16  C   UNL     1      -2.404  11.292  17.539  0.00  0.00    +0.000 A 
BRANCH  15  17
ATOM     17  C   UNL     1      -3.361  10.235  15.449  0.00  0.00    +0.000 C 
ATOM     18  F   UNL     1      -2.848   8.981  15.590  0.00  0.00    +0.000 F 
ATOM     19  F   UNL     1      -4.533  10.088  14.772  0.00  0.00    +0.000 F 
ATOM     20  F   UNL     1      -2.519  10.887  14.598  0.00  0.00    +0.000 F 
ENDBRANCH  15  17
ENDBRANCH   5  11
BRANCH   2  21
ATOM     21  C   UNL     1       1.297   8.300  20.894  0.00  0.00    +0.000 C 
ATOM     22  O   UNL     1       1.446   7.305  21.606  0.00  0.00    +0.000 OA
ATOM     23  N   UNL     1       1.757   8.421  19.591  0.00  0.00    +0.000 N 
ATOM     24  H   UNL     1       1.708   9.353  19.183  0.00  0.00    +0.000 HD
BRANCH  23  25
ATOM     25  C   UNL     1       2.455   7.425  18.868  0.00  0.00    +0.000 A 
ATOM     26  C   UNL     1       2.320   6.054  19.138  0.00  0.00    +0.000 A 
ATOM     27  C   UNL     1       3.045   5.100  18.418  0.00  0.00    +0.000 A 
ATOM     28  C   UNL     1       3.903   5.502  17.408  0.00  0.00    +0.000 A 
ATOM     29 CL   UNL     1       4.792   4.323  16.527  0.00  0.00    +0.000 Cl
ATOM     30  C   UNL     1       4.038   6.857  17.107  0.00  0.00    +0.000 A 
ATOM     31  C   UNL     1       3.311   7.814  17.829  0.00  0.00    +0.000 A 
ENDBRANCH  23  25
ENDBRANCH   2  21
TORSDOF 4
ENDMDL
MODEL 2
REMARK VINA RESULT:      -8.4      1.703      2.179
REMARK  Name = 
REMARK  5 active torsions:
REMARK  status: ('A' for Active; 'I' for Inactive)
REMARK    1  A    between atoms: C_1  and  C_2
REMARK    2  A    between atoms: C_2  and  C_3
REMARK    3  A    between atoms: N_5  and  C_6
REMARK    4  A    between atoms: C_15  and  C_16
REMARK    5  A    between atoms: C_20  and  C_21
REMARK                            x       y       z     vdW  Elec       q    Type
REMARK                         _______ _______ _______ _____ _____    ______ ____
ROOT
ATOM      1  C   UNL     1      -0.055   9.158  22.119  0.00  0.00    +0.000 C 
ATOM      2  C   UNL     1       0.599   9.464  20.764  0.00  0.00    +0.000 C 
ATOM      3  C   UNL     1      -0.463   9.689  19.666  0.00  0.00    +0.000 C 
ATOM      4  C   UNL     1      -0.368  11.155  19.466  0.00  0.00    +0.000 A 
ATOM      5  C   UNL     1      -1.131  12.045  18.704  0.00  0.00    +0.000 A 
ATOM      6  C   UNL     1      -0.715  13.391  18.771  0.00  0.00    +0.000 A 
ATOM      7  C   UNL     1       0.379  13.758  19.555  0.00  0.00    +0.000 A 
ATOM      8  N   UNL     1       1.117  12.891  20.275  0.00  0.00    +0.000 NA
ATOM      9  C   UNL     1       0.705  11.623  20.201  0.00  0.00    +0.000 A 
ATOM     10  O   UNL     1       1.401  10.651  20.893  0.00  0.00    +0.000 OA
ENDROOT
BRANCH   5  11
ATOM     11  C   UNL     1      -2.307  11.654  17.880  0.00  0.00    +0.000 A 
ATOM     12  C   UNL     1      -2.191  11.298  16.527  0.00  0.00    +0.000 A 
ATOM     13  C   UNL     1      -3.294  10.896  15.765  0.00  0.00    +0.000 A 
ATOM     14  C   UNL     1      -4.566  10.892  16.326  0.00  0.00    +0.000 A 
ATOM     15  C   UNL     1      -4.744  11.291  17.653  0.00  0.00    +0.000 A 
ATOM     16  C   UNL     1      -3.612  11.645  18.419  0.00  0.00    +0.000 A 
BRANCH  15  17
ATOM     17  C   UNL     1      -6.123  11.370  18.262  0.00  0.00    +0.000 C 
ATOM     18  F   UNL     1      -7.031  12.016  17.477  0.00  0.00    +0.000 F 
ATOM     19  F   UNL     1      -6.653  10.144  18.520  0.00  0.00    +0.000 F 
ATOM     20  F   UNL     1      -6.123  12.034  19.451  0.00  0.00    +0.000 F 
ENDBRANCH  15  17
ENDBRANCH   5  11
BRANCH   2  21
ATOM     21  C   UNL     1       1.466   8.253  20.365  0.00  0.00    +0.000 C 
ATOM     22  O   UNL     1       1.667   7.355  21.186  0.00  0.00    +0.000 OA
ATOM     23  N   UNL     1       1.888   8.231  19.044  0.00  0.00    +0.000 N 
ATOM     24  H   UNL     1       1.796   9.105  18.530  0.00  0.00    +0.000 HD
BRANCH  23  25
ATOM     25  C   UNL     1       2.600   7.178  18.424  0.00  0.00    +0.000 A 
ATOM     26  C   UNL     1       2.189   5.837  18.491  0.00  0.00    +0.000 A 
ATOM     27  C   UNL     1       2.932   4.821  17.886  0.00  0.00    +0.000 A 
ATOM     28  C   UNL     1       4.091   5.131  17.193  0.00  0.00    +0.000 A 
ATOM     29 CL   UNL     1       5.001   3.875  16.451  0.00  0.00    +0.000 Cl
ATOM     30  C   UNL     1       4.509   6.458  17.094  0.00  0.00    +0.000 A 
ATOM     31  C   UNL     1       3.763   7.478  17.701  0.00  0.00    +0.000 A 
ENDBRANCH  23  25
ENDBRANCH   2  21
TORSDOF 4
ENDMDL
MODEL 3
REMARK VINA RESULT:      -8.3      0.091      1.120
REMARK  Name = 
REMARK  5 active torsions:
REMARK  status: ('A' for Active; 'I' for Inactive)
REMARK    1  A    between atoms: C_1  and  C_2
REMARK    2  A    between atoms: C_2  and  C_3
REMARK    3  A    between atoms: N_5  and  C_6
REMARK    4  A    between atoms: C_15  and  C_16
REMARK    5  A    between atoms: C_20  and  C_21
REMARK                            x       y       z     vdW  Elec       q    Type
REMARK                         _______ _______ _______ _____ _____    ______ ____
ROOT
ATOM      1  C   UNL     1      -0.110   9.111  22.763  0.00  0.00    +0.000 C 
ATOM      2  C   UNL     1       0.497   9.514  21.411  0.00  0.00    +0.000 C 
ATOM      3  C   UNL     1      -0.603   9.821  20.372  0.00  0.00    +0.000 C 
ATOM      4  C   UNL     1      -0.508  11.298  20.276  0.00  0.00    +0.000 A 
ATOM      5  C   UNL     1      -1.293  12.244  19.610  0.00  0.00    +0.000 A 
ATOM      6  C   UNL     1      -0.868  13.580  19.760  0.00  0.00    +0.000 A 
ATOM      7  C   UNL     1       0.256  13.885  20.529  0.00  0.00    +0.000 A 
ATOM      8  N   UNL     1       1.015  12.966  21.156  0.00  0.00    +0.000 NA
ATOM      9  C   UNL     1       0.594  11.708  21.004  0.00  0.00    +0.000 A 
ATOM     10  O   UNL     1       1.309  10.686  21.597  0.00  0.00    +0.000 OA
ENDROOT
BRANCH   5  11
ATOM     11  C   UNL     1      -2.500  11.917  18.803  0.00  0.00    +0.000 A 
ATOM     12  C   UNL     1      -3.802  12.180  19.259  0.00  0.00    +0.000 A 
ATOM     13  C   UNL     1      -4.933  11.904  18.482  0.00  0.00    +0.000 A 
ATOM     14  C   UNL     1      -4.796  11.303  17.237  0.00  0.00    +0.000 A 
ATOM     15  C   UNL     1      -3.525  10.969  16.760  0.00  0.00    +0.000 A 
ATOM     16  C   UNL     1      -2.394  11.301  17.537  0.00  0.00    +0.000 A 
BRANCH  15  17
ATOM     17  C   UNL     1      -3.354  10.245  15.447  0.00  0.00    +0.000 C 
ATOM     18  F   UNL     1      -2.539  10.892  14.567  0.00  0.00    +0.000 F 
ATOM     19  F   UNL     1      -2.828   8.999  15.600  0.00  0.00    +0.000 F 
ATOM     20  F   UNL     1      -4.539  10.073  14.797  0.00  0.00    +0.000 F 
ENDBRANCH  15  17
ENDBRANCH   5  11
BRANCH   2  21
ATOM     21  C   UNL     1       1.343   8.333  20.893  0.00  0.00    +0.000 C 
ATOM     22  O   UNL     1       1.531   7.356  21.622  0.00  0.00    +0.000 OA
ATOM     23  N   UNL     1       1.760   8.432  19.574  0.00  0.00    +0.000 N 
ATOM     24  H   UNL     1       1.681   9.353  19.147  0.00  0.00    +0.000 HD
BRANCH  23  25
ATOM     25  C   UNL     1       2.453   7.432  18.852  0.00  0.00    +0.000 A 
ATOM     26  C   UNL     1       3.397   7.727  17.856  0.00  0.00    +0.000 A 
ATOM     27  C   UNL     1       4.044   6.711  17.147  0.00  0.00    +0.000 A 
ATOM     28  C   UNL     1       3.767   5.385  17.434  0.00  0.00    +0.000 A 
ATOM     29 CL   UNL     1       4.566   4.140  16.558  0.00  0.00    +0.000 Cl
ATOM     30  C   UNL     1       2.848   5.066  18.434  0.00  0.00    +0.000 A 
ATOM     31  C   UNL     1       2.200   6.084  19.145  0.00  0.00    +0.000 A 
ENDBRANCH  23  25
ENDBRANCH   2  21
TORSDOF 4
ENDMDL
MODEL 4
REMARK VINA RESULT:      -8.3      1.625      2.293
REMARK  Name = 
REMARK  5 active torsions:
REMARK  status: ('A' for Active; 'I' for Inactive)
REMARK    1  A    between atoms: C_1  and  C_2
REMARK    2  A    between atoms: C_2  and  C_3
REMARK    3  A    between atoms: N_5  and  C_6
REMARK    4  A    between atoms: C_15  and  C_16
REMARK    5  A    between atoms: C_20  and  C_21
REMARK                            x       y       z     vdW  Elec       q    Type
REMARK                         _______ _______ _______ _____ _____    ______ ____
ROOT
ATOM      1  C   UNL     1      -0.342   9.001  22.374  0.00  0.00    +0.000 C 
ATOM      2  C   UNL     1       0.377   9.492  21.109  0.00  0.00    +0.000 C 
ATOM      3  C   UNL     1      -0.621   9.751  19.960  0.00  0.00    +0.000 C 
ATOM      4  C   UNL     1      -0.631  11.233  19.911  0.00  0.00    +0.000 A 
ATOM      5  C   UNL     1      -1.409  12.138  19.184  0.00  0.00    +0.000 A 
ATOM      6  C   UNL     1      -1.109  13.497  19.414  0.00  0.00    +0.000 A 
ATOM      7  C   UNL     1      -0.104  13.860  20.312  0.00  0.00    +0.000 A 
ATOM      8  N   UNL     1       0.650  12.980  20.998  0.00  0.00    +0.000 NA
ATOM      9  C   UNL     1       0.348  11.700  20.769  0.00  0.00    +0.000 A 
ATOM     10  O   UNL     1       1.070  10.716  21.414  0.00  0.00    +0.000 OA
ENDROOT
BRANCH   5  11
ATOM     11  C   UNL     1      -2.490  11.749  18.238  0.00  0.00    +0.000 A 
ATOM     12  C   UNL     1      -2.227  11.371  16.911  0.00  0.00    +0.000 A 
ATOM     13  C   UNL     1      -3.243  10.971  16.036  0.00  0.00    +0.000 A 
ATOM     14  C   UNL     1      -4.569  10.991  16.449  0.00  0.00    +0.000 A 
ATOM     15  C   UNL     1      -4.891  11.413  17.742  0.00  0.00    +0.000 A 
ATOM     16  C   UNL     1      -3.848  11.764  18.626  0.00  0.00    +0.000 A 
BRANCH  15  17
ATOM     17  C   UNL     1      -6.328  11.518  18.189  0.00  0.00    +0.000 C 
ATOM     18  F   UNL     1      -6.488  12.192  19.363  0.00  0.00    +0.000 F 
ATOM     19  F   UNL     1      -7.115  12.156  17.280  0.00  0.00    +0.000 F 
ATOM     20  F   UNL     1      -6.897  10.296  18.383  0.00  0.00    +0.000 F 
ENDBRANCH  15  17
ENDBRANCH   5  11
BRANCH   2  21
ATOM     21  C   UNL     1       1.365   8.395  20.662  0.00  0.00    +0.000 C 
ATOM     22  O   UNL     1       1.761   7.565  21.483  0.00  0.00    +0.000 OA
ATOM     23  N   UNL     1       1.666   8.381  19.308  0.00  0.00    +0.000 N 
ATOM     24  H   UNL     1       1.409   9.215  18.783  0.00  0.00    +0.000 HD
BRANCH  23  25
ATOM     25  C   UNL     1       2.460   7.411  18.651  0.00  0.00    +0.000 A 
ATOM     26  C   UNL     1       3.523   7.747  17.799  0.00  0.00    +0.000 A 
ATOM     27  C   UNL     1       4.269   6.761  17.149  0.00  0.00    +0.000 A 
ATOM     28  C   UNL     1       3.972   5.423  17.352  0.00  0.00    +0.000 A 
ATOM     29 CL   UNL     1       4.894   4.215  16.548  0.00  0.00    +0.000 Cl
ATOM     30  C   UNL     1       2.934   5.063  18.211  0.00  0.00    +0.000 A 
ATOM     31  C   UNL     1       2.185   6.053  18.863  0.00  0.00    +0.000 A 
ENDBRANCH  23  25
ENDBRANCH   2  21
TORSDOF 4
ENDMDL
MODEL 5
REMARK VINA RESULT:      -8.2      2.452      3.091
REMARK  Name = 
REMARK  5 active torsions:
REMARK  status: ('A' for Active; 'I' for Inactive)
REMARK    1  A    between atoms: C_1  and  C_2
REMARK    2  A    between atoms: C_2  and  C_3
REMARK    3  A    between atoms: N_5  and  C_6
REMARK    4  A    between atoms: C_15  and  C_16
REMARK    5  A    between atoms: C_20  and  C_21
REMARK                            x       y       z     vdW  Elec       q    Type
REMARK                         _______ _______ _______ _____ _____    ______ ____
ROOT
ATOM      1  C   UNL     1       0.780   8.755  20.878  0.00  0.00    +0.000 C 
ATOM      2  C   UNL     1       0.884   9.620  19.613  0.00  0.00    +0.000 C 
ATOM      3  C   UNL     1      -0.512   9.948  19.042  0.00  0.00    +0.000 C 
ATOM      4  C   UNL     1      -0.640  11.383  19.393  0.00  0.00    +0.000 A 
ATOM      5  C   UNL     1      -1.706  12.281  19.282  0.00  0.00    +0.000 A 
ATOM      6  C   UNL     1      -1.429  13.589  19.730  0.00  0.00    +0.000 A 
ATOM      7  C   UNL     1      -0.171  13.913  20.240  0.00  0.00    +0.000 A 
ATOM      8  N   UNL     1       0.854  13.045  20.330  0.00  0.00    +0.000 NA
ATOM      9  C   UNL     1       0.571  11.812  19.905  0.00  0.00    +0.000 A 
ATOM     10  O   UNL     1       1.558  10.847  19.943  0.00  0.00    +0.000 OA
ENDROOT
BRANCH   5  11
ATOM     11  C   UNL     1      -3.051  11.929  18.751  0.00  0.00    +0.000 A 
ATOM     12  C   UNL     1      -3.251  11.522  17.422  0.00  0.00    +0.000 A 
ATOM     13  C   UNL     1      -4.512  11.157  16.937  0.00  0.00    +0.000 A 
ATOM     14  C   UNL     1      -5.628  11.243  17.759  0.00  0.00    +0.000 A 
ATOM     15  C   UNL     1      -5.493  11.696  19.075  0.00  0.00    +0.000 A 
ATOM     16  C   UNL     1      -4.205  12.011  19.560  0.00  0.00    +0.000 A 
BRANCH  15  17
ATOM     17  C   UNL     1      -6.699  11.872  19.963  0.00  0.00    +0.000 C 
ATOM     18  F   UNL     1      -7.709  12.578  19.381  0.00  0.00    +0.000 F 
ATOM     19  F   UNL     1      -7.244  10.686  20.351  0.00  0.00    +0.000 F 
ATOM     20  F   UNL     1      -6.398  12.537  21.114  0.00  0.00    +0.000 F 
ENDBRANCH  15  17
ENDBRANCH   5  11
BRANCH   2  21
ATOM     21  C   UNL     1       1.672   8.825  18.552  0.00  0.00    +0.000 C 
ATOM     22  O   UNL     1       1.891   9.336  17.451  0.00  0.00    +0.000 OA
ATOM     23  N   UNL     1       2.163   7.597  18.970  0.00  0.00    +0.000 N 
ATOM     24  H   UNL     1       1.770   7.229  19.834  0.00  0.00    +0.000 HD
BRANCH  23  25
ATOM     25  C   UNL     1       2.998   6.743  18.212  0.00  0.00    +0.000 A 
ATOM     26  C   UNL     1       4.111   7.207  17.493  0.00  0.00    +0.000 A 
ATOM     27  C   UNL     1       4.898   6.336  16.736  0.00  0.00    +0.000 A 
ATOM     28  C   UNL     1       4.593   4.985  16.698  0.00  0.00    +0.000 A 
ATOM     29 CL   UNL     1       5.566   3.918  15.764  0.00  0.00    +0.000 Cl
ATOM     30  C   UNL     1       3.506   4.496  17.421  0.00  0.00    +0.000 A 
ATOM     31  C   UNL     1       2.716   5.370  18.181  0.00  0.00    +0.000 A 
ENDBRANCH  23  25
ENDBRANCH   2  21
TORSDOF 4
ENDMDL
MODEL 6
REMARK VINA RESULT:      -8.2      1.892      2.557
REMARK  Name = 
REMARK  5 active torsions:
REMARK  status: ('A' for Active; 'I' for Inactive)
REMARK    1  A    between atoms: C_1  and  C_2
REMARK    2  A    between atoms: C_2  and  C_3
REMARK    3  A    between atoms: N_5  and  C_6
REMARK    4  A    between atoms: C_15  and  C_16
REMARK    5  A    between atoms: C_20  and  C_21
REMARK                            x       y       z     vdW  Elec       q    Type
REMARK                         _______ _______ _______ _____ _____    ______ ____
ROOT
ATOM      1  C   UNL     1      -0.372  10.306  22.824  0.00  0.00    +0.000 C 
ATOM      2  C   UNL     1       0.397  10.283  21.495  0.00  0.00    +0.000 C 
ATOM      3  C   UNL     1      -0.567  10.229  20.290  0.00  0.00    +0.000 C 
ATOM      4  C   UNL     1      -0.437  11.605  19.752  0.00  0.00    +0.000 A 
ATOM      5  C   UNL     1      -1.123  12.280  18.738  0.00  0.00    +0.000 A 
ATOM      6  C   UNL     1      -0.697  13.606  18.515  0.00  0.00    +0.000 A 
ATOM      7  C   UNL     1       0.333  14.159  19.277  0.00  0.00    +0.000 A 
ATOM      8  N   UNL     1       0.997  13.496  20.243  0.00  0.00    +0.000 NA
ATOM      9  C   UNL     1       0.577  12.244  20.441  0.00  0.00    +0.000 A 
ATOM     10  O   UNL     1       1.200  11.472  21.402  0.00  0.00    +0.000 OA
ENDROOT
BRANCH   5  11
ATOM     11  C   UNL     1      -2.231  11.694  17.936  0.00  0.00    +0.000 A 
ATOM     12  C   UNL     1      -2.003  10.987  16.744  0.00  0.00    +0.000 A 
ATOM     13  C   UNL     1      -3.044  10.407  16.012  0.00  0.00    +0.000 A 
ATOM     14  C   UNL     1      -4.361  10.564  16.425  0.00  0.00    +0.000 A 
ATOM     15  C   UNL     1      -4.647  11.306  17.575  0.00  0.00    +0.000 A 
ATOM     16  C   UNL     1      -3.579  11.841  18.327  0.00  0.00    +0.000 A 
BRANCH  15  17
ATOM     17  C   UNL     1      -6.073  11.557  18.002  0.00  0.00    +0.000 C 
ATOM     18  F   UNL     1      -6.790  12.293  17.108  0.00  0.00    +0.000 F 
ATOM     19  F   UNL     1      -6.775  10.406  18.191  0.00  0.00    +0.000 F 
ATOM     20  F   UNL     1      -6.144  12.234  19.182  0.00  0.00    +0.000 F 
ENDBRANCH  15  17
ENDBRANCH   5  11
BRANCH   2  21
ATOM     21  C   UNL     1       1.279   9.018  21.472  0.00  0.00    +0.000 C 
ATOM     22  O   UNL     1       1.835   8.648  22.510  0.00  0.00    +0.000 OA
ATOM     23  N   UNL     1       1.302   8.329  20.269  0.00  0.00    +0.000 N 
ATOM     24  H   UNL     1       0.942   8.830  19.459  0.00  0.00    +0.000 HD
BRANCH  23  25
ATOM     25  C   UNL     1       1.952   7.093  20.040  0.00  0.00    +0.000 A 
ATOM     26  C   UNL     1       2.975   6.934  19.093  0.00  0.00    +0.000 A 
ATOM     27  C   UNL     1       3.577   5.691  18.878  0.00  0.00    +0.000 A 
ATOM     28  C   UNL     1       3.173   4.591  19.617  0.00  0.00    +0.000 A 
ATOM     29 CL   UNL     1       3.916   3.065  19.348  0.00  0.00    +0.000 Cl
ATOM     30  C   UNL     1       2.172   4.728  20.579  0.00  0.00    +0.000 A 
ATOM     31  C   UNL     1       1.569   5.975  20.795  0.00  0.00    +0.000 A 
ENDBRANCH  23  25
ENDBRANCH   2  21
TORSDOF 4
ENDMDL
MODEL 7
REMARK VINA RESULT:      -8.1      2.455      2.982
REMARK  Name = 
REMARK  5 active torsions:
REMARK  status: ('A' for Active; 'I' for Inactive)
REMARK    1  A    between atoms: C_1  and  C_2
REMARK    2  A    between atoms: C_2  and  C_3
REMARK    3  A    between atoms: N_5  and  C_6
REMARK    4  A    between atoms: C_15  and  C_16
REMARK    5  A    between atoms: C_20  and  C_21
REMARK                            x       y       z     vdW  Elec       q    Type
REMARK                         _______ _______ _______ _____ _____    ______ ____
ROOT
ATOM      1  C   UNL     1       0.881   8.826  20.834  0.00  0.00    +0.000 C 
ATOM      2  C   UNL     1       0.962   9.643  19.536  0.00  0.00    +0.000 C 
ATOM      3  C   UNL     1      -0.444   9.961  18.984  0.00  0.00    +0.000 C 
ATOM      4  C   UNL     1      -0.554  11.409  19.285  0.00  0.00    +0.000 A 
ATOM      5  C   UNL     1      -1.616  12.310  19.165  0.00  0.00    +0.000 A 
ATOM      6  C   UNL     1      -1.320  13.632  19.558  0.00  0.00    +0.000 A 
ATOM      7  C   UNL     1      -0.049  13.965  20.029  0.00  0.00    +0.000 A 
ATOM      8  N   UNL     1       0.972  13.093  20.128  0.00  0.00    +0.000 NA
ATOM      9  C   UNL     1       0.671  11.847  19.754  0.00  0.00    +0.000 A 
ATOM     10  O   UNL     1       1.652  10.876  19.806  0.00  0.00    +0.000 OA
ENDROOT
BRANCH   5  11
ATOM     11  C   UNL     1      -2.975  11.950  18.677  0.00  0.00    +0.000 A 
ATOM     12  C   UNL     1      -3.205  11.478  17.375  0.00  0.00    +0.000 A 
ATOM     13  C   UNL     1      -4.479  11.106  16.931  0.00  0.00    +0.000 A 
ATOM     14  C   UNL     1      -5.579  11.248  17.768  0.00  0.00    +0.000 A 
ATOM     15  C   UNL     1      -5.413  11.766  19.056  0.00  0.00    +0.000 A 
ATOM     16  C   UNL     1      -4.113  12.088  19.501  0.00  0.00    +0.000 A 
BRANCH  15  17
ATOM     17  C   UNL     1      -6.600  12.003  19.957  0.00  0.00    +0.000 C 
ATOM     18  F   UNL     1      -6.430  13.038  20.827  0.00  0.00    +0.000 F 
ATOM     19  F   UNL     1      -7.738  12.279  19.263  0.00  0.00    +0.000 F 
ATOM     20  F   UNL     1      -6.888  10.916  20.726  0.00  0.00    +0.000 F 
ENDBRANCH  15  17
ENDBRANCH   5  11
BRANCH   2  21
ATOM     21  C   UNL     1       1.721   8.804  18.488  0.00  0.00    +0.000 C 
ATOM     22  O   UNL     1       1.959   9.290  17.379  0.00  0.00    +0.000 OA
ATOM     23  N   UNL     1       2.166   7.565  18.925  0.00  0.00    +0.000 N 
ATOM     24  H   UNL     1       1.759   7.224  19.794  0.00  0.00    +0.000 HD
BRANCH  23  25
ATOM     25  C   UNL     1       2.969   6.669  18.181  0.00  0.00    +0.000 A 
ATOM     26  C   UNL     1       2.670   5.304  18.053  0.00  0.00    +0.000 A 
ATOM     27  C   UNL     1       3.501   4.445  17.329  0.00  0.00    +0.000 A 
ATOM     28  C   UNL     1       4.636   4.941  16.711  0.00  0.00    +0.000 A 
ATOM     29 CL   UNL     1       5.655   3.879  15.822  0.00  0.00    +0.000 Cl
ATOM     30  C   UNL     1       4.944   6.298  16.805  0.00  0.00    +0.000 A 
ATOM     31  C   UNL     1       4.110   7.160  17.531  0.00  0.00    +0.000 A 
ENDBRANCH  23  25
ENDBRANCH   2  21
TORSDOF 4
ENDMDL
MODEL 8
REMARK VINA RESULT:      -8.1      3.937      5.118
REMARK  Name = 
REMARK  5 active torsions:
REMARK  status: ('A' for Active; 'I' for Inactive)
REMARK    1  A    between atoms: C_1  and  C_2
REMARK    2  A    between atoms: C_2  and  C_3
REMARK    3  A    between atoms: N_5  and  C_6
REMARK    4  A    between atoms: C_15  and  C_16
REMARK    5  A    between atoms: C_20  and  C_21
REMARK                            x       y       z     vdW  Elec       q    Type
REMARK                         _______ _______ _______ _____ _____    ______ ____
ROOT
ATOM      1  C   UNL     1       2.263  10.439  17.957  0.00  0.00    +0.000 C 
ATOM      2  C   UNL     1       1.116   9.688  18.649  0.00  0.00    +0.000 C 
ATOM      3  C   UNL     1       0.544  10.503  19.829  0.00  0.00    +0.000 C 
ATOM      4  C   UNL     1      -0.760  10.941  19.274  0.00  0.00    +0.000 A 
ATOM      5  C   UNL     1      -1.737  11.813  19.764  0.00  0.00    +0.000 A 
ATOM      6  C   UNL     1      -2.862  11.972  18.928  0.00  0.00    +0.000 A 
ATOM      7  C   UNL     1      -2.946  11.291  17.712  0.00  0.00    +0.000 A 
ATOM      8  N   UNL     1      -2.005  10.442  17.256  0.00  0.00    +0.000 NA
ATOM      9  C   UNL     1      -0.948  10.309  18.059  0.00  0.00    +0.000 A 
ATOM     10  O   UNL     1       0.070   9.451  17.690  0.00  0.00    +0.000 OA
ENDROOT
BRANCH   5  11
ATOM     11  C   UNL     1      -1.640  12.549  21.053  0.00  0.00    +0.000 A 
ATOM     12  C   UNL     1      -0.492  13.269  21.422  0.00  0.00    +0.000 A 
ATOM     13  C   UNL     1      -0.417  13.990  22.619  0.00  0.00    +0.000 A 
ATOM     14  C   UNL     1      -1.478  13.966  23.516  0.00  0.00    +0.000 A 
ATOM     15  C   UNL     1      -2.623  13.219  23.222  0.00  0.00    +0.000 A 
ATOM     16  C   UNL     1      -2.698  12.540  21.987  0.00  0.00    +0.000 A 
BRANCH  15  17
ATOM     17  C   UNL     1      -3.756  13.114  24.213  0.00  0.00    +0.000 C 
ATOM     18  F   UNL     1      -3.533  13.793  25.374  0.00  0.00    +0.000 F 
ATOM     19  F   UNL     1      -4.931  13.590  23.719  0.00  0.00    +0.000 F 
ATOM     20  F   UNL     1      -4.001  11.824  24.579  0.00  0.00    +0.000 F 
ENDBRANCH  15  17
ENDBRANCH   5  11
BRANCH   2  21
ATOM     21  C   UNL     1       1.673   8.359  19.197  0.00  0.00    +0.000 C 
ATOM     22  O   UNL     1       1.566   8.106  20.399  0.00  0.00    +0.000 OA
ATOM     23  N   UNL     1       2.186   7.490  18.245  0.00  0.00    +0.000 N 
ATOM     24  H   UNL     1       2.366   7.889  17.326  0.00  0.00    +0.000 HD
BRANCH  23  25
ATOM     25  C   UNL     1       2.654   6.178  18.494  0.00  0.00    +0.000 A 
ATOM     26  C   UNL     1       3.859   5.914  19.164  0.00  0.00    +0.000 A 
ATOM     27  C   UNL     1       4.300   4.604  19.371  0.00  0.00    +0.000 A 
ATOM     28  C   UNL     1       3.537   3.539  18.922  0.00  0.00    +0.000 A 
ATOM     29 CL   UNL     1       4.086   1.930  19.179  0.00  0.00    +0.000 Cl
ATOM     30  C   UNL     1       2.325   3.776  18.272  0.00  0.00    +0.000 A 
ATOM     31  C   UNL     1       1.882   5.089  18.065  0.00  0.00    +0.000 A 
ENDBRANCH  23  25
ENDBRANCH   2  21
TORSDOF 4
ENDMDL
MODEL 9
REMARK VINA RESULT:      -8.0      3.941      5.101
REMARK  Name = 
REMARK  5 active torsions:
REMARK  status: ('A' for Active; 'I' for Inactive)
REMARK    1  A    between atoms: C_1  and  C_2
REMARK    2  A    between atoms: C_2  and  C_3
REMARK    3  A    between atoms: N_5  and  C_6
REMARK    4  A    between atoms: C_15  and  C_16
REMARK    5  A    between atoms: C_20  and  C_21
REMARK                            x       y       z     vdW  Elec       q    Type
REMARK                         _______ _______ _______ _____ _____    ______ ____
ROOT
ATOM      1  C   UNL     1       2.249  10.458  17.916  0.00  0.00    +0.000 C 
ATOM      2  C   UNL     1       1.113   9.699  18.617  0.00  0.00    +0.000 C 
ATOM      3  C   UNL     1       0.543  10.509  19.801  0.00  0.00    +0.000 C 
ATOM      4  C   UNL     1      -0.768  10.937  19.256  0.00  0.00    +0.000 A 
ATOM      5  C   UNL     1      -1.748  11.802  19.752  0.00  0.00    +0.000 A 
ATOM      6  C   UNL     1      -2.880  11.952  18.925  0.00  0.00    +0.000 A 
ATOM      7  C   UNL     1      -2.967  11.271  17.709  0.00  0.00    +0.000 A 
ATOM      8  N   UNL     1      -2.024  10.429  17.247  0.00  0.00    +0.000 NA
ATOM      9  C   UNL     1      -0.959  10.304  18.042  0.00  0.00    +0.000 A 
ATOM     10  O   UNL     1       0.062   9.454  17.665  0.00  0.00    +0.000 OA
ENDROOT
BRANCH   5  11
ATOM     11  C   UNL     1      -1.647  12.539  21.041  0.00  0.00    +0.000 A 
ATOM     12  C   UNL     1      -0.495  13.254  21.408  0.00  0.00    +0.000 A 
ATOM     13  C   UNL     1      -0.417  13.975  22.605  0.00  0.00    +0.000 A 
ATOM     14  C   UNL     1      -1.478  13.957  23.502  0.00  0.00    +0.000 A 
ATOM     15  C   UNL     1      -2.626  13.215  23.210  0.00  0.00    +0.000 A 
ATOM     16  C   UNL     1      -2.705  12.535  21.976  0.00  0.00    +0.000 A 
BRANCH  15  17
ATOM     17  C   UNL     1      -3.759  13.116  24.201  0.00  0.00    +0.000 C 
ATOM     18  F   UNL     1      -4.947  13.582  23.723  0.00  0.00    +0.000 F 
ATOM     19  F   UNL     1      -3.993  11.838  24.605  0.00  0.00    +0.000 F 
ATOM     20  F   UNL     1      -3.513  13.827  25.337  0.00  0.00    +0.000 F 
ENDBRANCH  15  17
ENDBRANCH   5  11
BRANCH   2  21
ATOM     21  C   UNL     1       1.684   8.373  19.161  0.00  0.00    +0.000 C 
ATOM     22  O   UNL     1       1.618   8.135  20.369  0.00  0.00    +0.000 OA
ATOM     23  N   UNL     1       2.160   7.492  18.202  0.00  0.00    +0.000 N 
ATOM     24  H   UNL     1       2.310   7.879  17.272  0.00  0.00    +0.000 HD
BRANCH  23  25
ATOM     25  C   UNL     1       2.632   6.181  18.450  0.00  0.00    +0.000 A 
ATOM     26  C   UNL     1       1.933   5.032  18.049  0.00  0.00    +0.000 A 
ATOM     27  C   UNL     1       2.419   3.753  18.334  0.00  0.00    +0.000 A 
ATOM     28  C   UNL     1       3.618   3.604  19.011  0.00  0.00    +0.000 A 
ATOM     29 CL   UNL     1       4.210   2.028  19.358  0.00  0.00    +0.000 Cl
ATOM     30  C   UNL     1       4.342   4.731  19.401  0.00  0.00    +0.000 A 
ATOM     31  C   UNL     1       3.855   6.014  19.115  0.00  0.00    +0.000 A 
ENDBRANCH  23  25
ENDBRANCH   2  21
TORSDOF 4
ENDMDL
