MODEL 1
REMARK VINA RESULT:      -5.7      0.000      0.000
REMARK  Name = 
REMARK  14 active torsions:
REMARK  status: ('A' for Active; 'I' for Inactive)
REMARK    1  A    between atoms: C_1  and  O_2
REMARK    2  A    between atoms: O_2  and  C_3
REMARK    3  A    between atoms: C_3  and  C_4
REMARK    4  A    between atoms: C_4  and  N_5
REMARK    5  A    between atoms: C_6  and  C_7
REMARK    6  A    between atoms: C_11  and  O_12
REMARK    7  A    between atoms: O_12  and  C_13
REMARK    8  A    between atoms: N_17  and  C_18
REMARK    9  A    between atoms: C_18  and  C_19
REMARK   10  A    between atoms: C_19  and  O_20
REMARK   11  A    between atoms: O_20  and  C_21
REMARK   12  A    between atoms: C_22  and  C_23
REMARK   13  A    between atoms: C_27  and  O_28
REMARK   14  A    between atoms: O_28  and  C_29
REMARK                            x       y       z     vdW  Elec       q    Type
REMARK                         _______ _______ _______ _____ _____    ______ ____
ROOT
ATOM      1  N   UNL     1       2.438   7.169  18.918  0.00  0.00    +0.000 N 
ATOM      2  C   UNL     1       2.027   6.692  20.144  0.00  0.00    +0.000 A 
ATOM      3  N   UNL     1       1.312   7.401  20.947  0.00  0.00    +0.000 NA
ATOM      4  C   UNL     1       0.966   8.728  20.671  0.00  0.00    +0.000 A 
ATOM      5  C   UNL     1       0.212   9.476  21.603  0.00  0.00    +0.000 A 
ATOM      6  C   UNL     1      -0.126  10.821  21.312  0.00  0.00    +0.000 A 
ATOM      7  C   UNL     1      -0.898  11.677  22.265  0.00  0.00    +0.000 A 
ATOM      8  O   UNL     1      -1.170  11.265  23.390  0.00  0.00    +0.000 OA
ATOM      9  N   UNL     1      -1.249  12.974  21.849  0.00  0.00    +0.000 N 
ATOM     10  C   UNL     1      -0.780  13.458  20.652  0.00  0.00    +0.000 A 
ATOM     11  N   UNL     1      -0.067  12.747  19.841  0.00  0.00    +0.000 NA
ATOM     12  C   UNL     1       0.276  11.423  20.116  0.00  0.00    +0.000 A 
ATOM     13  C   UNL     1       1.026  10.674  19.179  0.00  0.00    +0.000 A 
ATOM     14  C   UNL     1       1.355   9.328  19.467  0.00  0.00    +0.000 A 
ATOM     15  C   UNL     1       2.097   8.461  18.500  0.00  0.00    +0.000 A 
ATOM     16  O   UNL     1       2.364   8.854  17.366  0.00  0.00    +0.000 OA
ENDROOT
BRANCH   2  17
ATOM     17  C   UNL     1       2.341   5.250  20.540  0.00  0.00    +0.000 C 
ATOM     18 CL   UNL     1       0.912   4.201  20.441  0.00  0.00    +0.000 Cl
ENDBRANCH   2  17
BRANCH   5  19
ATOM     19  O   UNL     1      -0.262   9.005  22.800  0.00  0.00    +0.000 OA
ATOM     20  C   UNL     1       0.495   9.079  23.994  0.00  0.00    +0.000 C 
ENDBRANCH   5  19
BRANCH  10  21
ATOM     21  C   UNL     1      -1.098  14.856  20.144  0.00  0.00    +0.000 C 
ATOM     22 CL   UNL     1      -0.138  15.273  18.719  0.00  0.00    +0.000 Cl
ENDBRANCH  10  21
BRANCH  13  23
ATOM     23  O   UNL     1       1.500  11.148  17.981  0.00  0.00    +0.000 OA
ATOM     24  C   UNL     1       2.498  12.152  17.908  0.00  0.00    +0.000 C 
ENDBRANCH  13  23
BRANCH   1  25
ATOM     25  C   UNL     1       3.091   6.318  17.910  0.00  0.00    +0.000 C 
BRANCH  25  26
ATOM     26  C   UNL     1       4.611   6.510  17.899  0.00  0.00    +0.000 C 
BRANCH  26  28
ATOM     27  C   UNL     1       5.547   4.402  18.335  0.00  0.00    +0.000 C 
ATOM     28  O   UNL     1       5.216   5.675  18.882  0.00  0.00    +0.000 OA
ENDBRANCH  26  28
ENDBRANCH  25  26
ENDBRANCH   1  25
BRANCH   9  29
ATOM     29  C   UNL     1      -1.948  13.788  22.869  0.00  0.00    +0.000 C 
BRANCH  29  30
ATOM     30  C   UNL     1      -3.477  13.826  22.806  0.00  0.00    +0.000 C 
BRANCH  30  31
ATOM     31  O   UNL     1      -4.037  12.567  23.173  0.00  0.00    +0.000 OA
ATOM     32  C   UNL     1      -4.301  12.511  24.571  0.00  0.00    +0.000 C 
ENDBRANCH  30  31
ENDBRANCH  29  30
ENDBRANCH   9  29
TORSDOF 10
ENDMDL
MODEL 2
REMARK VINA RESULT:      -5.7      1.123      1.318
REMARK  Name = 
REMARK  14 active torsions:
REMARK  status: ('A' for Active; 'I' for Inactive)
REMARK    1  A    between atoms: C_1  and  O_2
REMARK    2  A    between atoms: O_2  and  C_3
REMARK    3  A    between atoms: C_3  and  C_4
REMARK    4  A    between atoms: C_4  and  N_5
REMARK    5  A    between atoms: C_6  and  C_7
REMARK    6  A    between atoms: C_11  and  O_12
REMARK    7  A    between atoms: O_12  and  C_13
REMARK    8  A    between atoms: N_17  and  C_18
REMARK    9  A    between atoms: C_18  and  C_19
REMARK   10  A    between atoms: C_19  and  O_20
REMARK   11  A    between atoms: O_20  and  C_21
REMARK   12  A    between atoms: C_22  and  C_23
REMARK   13  A    between atoms: C_27  and  O_28
REMARK   14  A    between atoms: O_28  and  C_29
REMARK                            x       y       z     vdW  Elec       q    Type
REMARK                         _______ _______ _______ _____ _____    ______ ____
ROOT
ATOM      1  N   UNL     1       2.305   7.303  19.044  0.00  0.00    +0.000 N 
ATOM      2  C   UNL     1       1.859   6.882  20.279  0.00  0.00    +0.000 A 
ATOM      3  N   UNL     1       1.172   7.648  21.054  0.00  0.00    +0.000 NA
ATOM      4  C   UNL     1       0.894   8.981  20.736  0.00  0.00    +0.000 A 
ATOM      5  C   UNL     1       0.167   9.792  21.638  0.00  0.00    +0.000 A 
ATOM      6  C   UNL     1      -0.102  11.143  21.305  0.00  0.00    +0.000 A 
ATOM      7  C   UNL     1      -0.840  12.062  22.225  0.00  0.00    +0.000 A 
ATOM      8  O   UNL     1      -1.143  11.696  23.358  0.00  0.00    +0.000 OA
ATOM      9  N   UNL     1      -1.123  13.362  21.769  0.00  0.00    +0.000 N 
ATOM     10  C   UNL     1      -0.620  13.788  20.564  0.00  0.00    +0.000 A 
ATOM     11  N   UNL     1       0.066  13.020  19.781  0.00  0.00    +0.000 NA
ATOM     12  C   UNL     1       0.341  11.689  20.098  0.00  0.00    +0.000 A 
ATOM     13  C   UNL     1       1.062  10.879  19.190  0.00  0.00    +0.000 A 
ATOM     14  C   UNL     1       1.323   9.527  19.520  0.00  0.00    +0.000 A 
ATOM     15  C   UNL     1       2.031   8.597  18.586  0.00  0.00    +0.000 A 
ATOM     16  O   UNL     1       2.328   8.945  17.445  0.00  0.00    +0.000 OA
ENDROOT
BRANCH   2  17
ATOM     17  C   UNL     1       2.099   5.439  20.719  0.00  0.00    +0.000 C 
ATOM     18 CL   UNL     1       0.784   4.357  20.215  0.00  0.00    +0.000 Cl
ENDBRANCH   2  17
BRANCH   5  19
ATOM     19  O   UNL     1      -0.340   9.379  22.842  0.00  0.00    +0.000 OA
ATOM     20  C   UNL     1       0.480   9.181  23.980  0.00  0.00    +0.000 C 
ENDBRANCH   5  19
BRANCH  10  21
ATOM     21  C   UNL     1      -0.865  15.184  20.012  0.00  0.00    +0.000 C 
ATOM     22 CL   UNL     1      -0.071  15.425  18.451  0.00  0.00    +0.000 Cl
ENDBRANCH  10  21
BRANCH  13  23
ATOM     23  O   UNL     1       1.570  11.294  17.985  0.00  0.00    +0.000 OA
ATOM     24  C   UNL     1       2.606  12.257  17.894  0.00  0.00    +0.000 C 
ENDBRANCH  13  23
BRANCH   1  25
ATOM     25  C   UNL     1       2.926   6.393  18.069  0.00  0.00    +0.000 C 
BRANCH  25  26
ATOM     26  C   UNL     1       4.444   6.310  18.251  0.00  0.00    +0.000 C 
BRANCH  26  28
ATOM     27  C   UNL     1       6.471   6.647  17.117  0.00  0.00    +0.000 C 
ATOM     28  O   UNL     1       5.101   7.027  17.209  0.00  0.00    +0.000 OA
ENDBRANCH  26  28
ENDBRANCH  25  26
ENDBRANCH   1  25
BRANCH   9  29
ATOM     29  C   UNL     1      -1.792  14.238  22.757  0.00  0.00    +0.000 C 
BRANCH  29  30
ATOM     30  C   UNL     1      -0.913  15.237  23.515  0.00  0.00    +0.000 C 
BRANCH  30  31
ATOM     31  O   UNL     1      -0.906  14.957  24.913  0.00  0.00    +0.000 OA
ATOM     32  C   UNL     1      -2.151  15.303  25.512  0.00  0.00    +0.000 C 
ENDBRANCH  30  31
ENDBRANCH  29  30
ENDBRANCH   9  29
TORSDOF 10
ENDMDL
MODEL 3
REMARK VINA RESULT:      -5.5      0.827      1.090
REMARK  Name = 
REMARK  14 active torsions:
REMARK  status: ('A' for Active; 'I' for Inactive)
REMARK    1  A    between atoms: C_1  and  O_2
REMARK    2  A    between atoms: O_2  and  C_3
REMARK    3  A    between atoms: C_3  and  C_4
REMARK    4  A    between atoms: C_4  and  N_5
REMARK    5  A    between atoms: C_6  and  C_7
REMARK    6  A    between atoms: C_11  and  O_12
REMARK    7  A    between atoms: O_12  and  C_13
REMARK    8  A    between atoms: N_17  and  C_18
REMARK    9  A    between atoms: C_18  and  C_19
REMARK   10  A    between atoms: C_19  and  O_20
REMARK   11  A    between atoms: O_20  and  C_21
REMARK   12  A    between atoms: C_22  and  C_23
REMARK   13  A    between atoms: C_27  and  O_28
REMARK   14  A    between atoms: O_28  and  C_29
REMARK                            x       y       z     vdW  Elec       q    Type
REMARK                         _______ _______ _______ _____ _____    ______ ____
ROOT
ATOM      1  N   UNL     1       2.330   7.218  19.008  0.00  0.00    +0.000 N 
ATOM      2  C   UNL     1       1.885   6.799  20.244  0.00  0.00    +0.000 A 
ATOM      3  N   UNL     1       1.198   7.567  21.017  0.00  0.00    +0.000 NA
ATOM      4  C   UNL     1       0.919   8.899  20.696  0.00  0.00    +0.000 A 
ATOM      5  C   UNL     1       0.192   9.711  21.597  0.00  0.00    +0.000 A 
ATOM      6  C   UNL     1      -0.078  11.061  21.261  0.00  0.00    +0.000 A 
ATOM      7  C   UNL     1      -0.817  11.982  22.179  0.00  0.00    +0.000 A 
ATOM      8  O   UNL     1      -1.119  11.618  23.314  0.00  0.00    +0.000 OA
ATOM      9  N   UNL     1      -1.101  13.280  21.721  0.00  0.00    +0.000 N 
ATOM     10  C   UNL     1      -0.598  13.704  20.514  0.00  0.00    +0.000 A 
ATOM     11  N   UNL     1       0.087  12.935  19.733  0.00  0.00    +0.000 NA
ATOM     12  C   UNL     1       0.364  11.605  20.052  0.00  0.00    +0.000 A 
ATOM     13  C   UNL     1       1.085  10.793  19.147  0.00  0.00    +0.000 A 
ATOM     14  C   UNL     1       1.347   9.442  19.479  0.00  0.00    +0.000 A 
ATOM     15  C   UNL     1       2.055   8.511  18.547  0.00  0.00    +0.000 A 
ATOM     16  O   UNL     1       2.351   8.856  17.405  0.00  0.00    +0.000 OA
ENDROOT
BRANCH   2  17
ATOM     17  C   UNL     1       2.126   5.357  20.686  0.00  0.00    +0.000 C 
ATOM     18 CL   UNL     1       0.778   4.287  20.250  0.00  0.00    +0.000 Cl
ENDBRANCH   2  17
BRANCH   5  19
ATOM     19  O   UNL     1      -0.315   9.300  22.802  0.00  0.00    +0.000 OA
ATOM     20  C   UNL     1       0.498   9.153  23.953  0.00  0.00    +0.000 C 
ENDBRANCH   5  19
BRANCH  10  21
ATOM     21  C   UNL     1      -0.844  15.099  19.960  0.00  0.00    +0.000 C 
ATOM     22 CL   UNL     1       0.309  15.515  18.686  0.00  0.00    +0.000 Cl
ENDBRANCH  10  21
BRANCH  13  23
ATOM     23  O   UNL     1       1.592  11.206  17.940  0.00  0.00    +0.000 OA
ATOM     24  C   UNL     1       2.614  12.185  17.846  0.00  0.00    +0.000 C 
ENDBRANCH  13  23
BRANCH   1  25
ATOM     25  C   UNL     1       2.951   6.306  18.034  0.00  0.00    +0.000 C 
BRANCH  25  26
ATOM     26  C   UNL     1       4.473   6.248  18.195  0.00  0.00    +0.000 C 
BRANCH  26  28
ATOM     27  C   UNL     1       6.521   6.919  17.266  0.00  0.00    +0.000 C 
ATOM     28  O   UNL     1       5.105   6.921  17.110  0.00  0.00    +0.000 OA
ENDBRANCH  26  28
ENDBRANCH  25  26
ENDBRANCH   1  25
BRANCH   9  29
ATOM     29  C   UNL     1      -1.770  14.158  22.707  0.00  0.00    +0.000 C 
BRANCH  29  30
ATOM     30  C   UNL     1      -3.295  14.066  22.805  0.00  0.00    +0.000 C 
BRANCH  30  31
ATOM     31  O   UNL     1      -3.869  13.713  21.548  0.00  0.00    +0.000 OA
ATOM     32  C   UNL     1      -4.459  14.844  20.916  0.00  0.00    +0.000 C 
ENDBRANCH  30  31
ENDBRANCH  29  30
ENDBRANCH   9  29
TORSDOF 10
ENDMDL
MODEL 4
REMARK VINA RESULT:      -5.4      0.943      8.608
REMARK  Name = 
REMARK  14 active torsions:
REMARK  status: ('A' for Active; 'I' for Inactive)
REMARK    1  A    between atoms: C_1  and  O_2
REMARK    2  A    between atoms: O_2  and  C_3
REMARK    3  A    between atoms: C_3  and  C_4
REMARK    4  A    between atoms: C_4  and  N_5
REMARK    5  A    between atoms: C_6  and  C_7
REMARK    6  A    between atoms: C_11  and  O_12
REMARK    7  A    between atoms: O_12  and  C_13
REMARK    8  A    between atoms: N_17  and  C_18
REMARK    9  A    between atoms: C_18  and  C_19
REMARK   10  A    between atoms: C_19  and  O_20
REMARK   11  A    between atoms: O_20  and  C_21
REMARK   12  A    between atoms: C_22  and  C_23
REMARK   13  A    between atoms: C_27  and  O_28
REMARK   14  A    between atoms: O_28  and  C_29
REMARK                            x       y       z     vdW  Elec       q    Type
REMARK                         _______ _______ _______ _____ _____    ______ ____
ROOT
ATOM      1  N   UNL     1      -1.204  13.006  21.644  0.00  0.00    +0.000 N 
ATOM      2  C   UNL     1      -0.648  13.425  20.455  0.00  0.00    +0.000 A 
ATOM      3  N   UNL     1       0.026  12.629  19.699  0.00  0.00    +0.000 NA
ATOM      4  C   UNL     1       0.309  11.309  20.062  0.00  0.00    +0.000 A 
ATOM      5  C   UNL     1       1.086  10.488  19.214  0.00  0.00    +0.000 A 
ATOM      6  C   UNL     1       1.370   9.154  19.599  0.00  0.00    +0.000 A 
ATOM      7  C   UNL     1       2.207   8.240  18.762  0.00  0.00    +0.000 A 
ATOM      8  O   UNL     1       2.773   8.663  17.756  0.00  0.00    +0.000 OA
ATOM      9  N   UNL     1       2.366   6.911  19.195  0.00  0.00    +0.000 N 
ATOM     10  C   UNL     1       1.859   6.524  20.412  0.00  0.00    +0.000 A 
ATOM     11  N   UNL     1       1.178   7.318  21.171  0.00  0.00    +0.000 NA
ATOM     12  C   UNL     1       0.894   8.635  20.806  0.00  0.00    +0.000 A 
ATOM     13  C   UNL     1       0.111   9.453  21.654  0.00  0.00    +0.000 A 
ATOM     14  C   UNL     1      -0.179  10.782  21.265  0.00  0.00    +0.000 A 
ATOM     15  C   UNL     1      -1.046  11.686  22.084  0.00  0.00    +0.000 A 
ATOM     16  O   UNL     1      -1.628  11.274  23.085  0.00  0.00    +0.000 OA
ENDROOT
BRANCH   2  17
ATOM     17  C   UNL     1      -0.907  14.847  19.958  0.00  0.00    +0.000 C 
ATOM     18 CL   UNL     1       0.215  15.320  18.665  0.00  0.00    +0.000 Cl
ENDBRANCH   2  17
BRANCH   5  19
ATOM     19  O   UNL     1       1.596  10.861  17.998  0.00  0.00    +0.000 OA
ATOM     20  C   UNL     1       2.498  11.945  17.858  0.00  0.00    +0.000 C 
ENDBRANCH   5  19
BRANCH  10  21
ATOM     21  C   UNL     1       2.007   5.112  20.958  0.00  0.00    +0.000 C 
ATOM     22 CL   UNL     1       0.722   4.044  20.382  0.00  0.00    +0.000 Cl
ENDBRANCH  10  21
BRANCH  13  23
ATOM     23  O   UNL     1      -0.399   9.076  22.871  0.00  0.00    +0.000 OA
ATOM     24  C   UNL     1       0.362   9.152  24.064  0.00  0.00    +0.000 C 
ENDBRANCH  13  23
BRANCH   1  25
ATOM     25  C   UNL     1      -2.130  13.839  22.428  0.00  0.00    +0.000 C 
BRANCH  25  26
ATOM     26  C   UNL     1      -3.581  13.664  21.971  0.00  0.00    +0.000 C 
BRANCH  26  28
ATOM     27  C   UNL     1      -4.588  12.929  23.959  0.00  0.00    +0.000 C 
ATOM     28  O   UNL     1      -4.471  14.003  23.031  0.00  0.00    +0.000 OA
ENDBRANCH  26  28
ENDBRANCH  25  26
ENDBRANCH   1  25
BRANCH   9  29
ATOM     29  C   UNL     1       3.265   6.086  18.358  0.00  0.00    +0.000 C 
BRANCH  29  30
ATOM     30  C   UNL     1       2.634   4.917  17.595  0.00  0.00    +0.000 C 
BRANCH  30  31
ATOM     31  O   UNL     1       3.490   3.777  17.606  0.00  0.00    +0.000 OA
ATOM     32  C   UNL     1       2.740   2.573  17.730  0.00  0.00    +0.000 C 
ENDBRANCH  30  31
ENDBRANCH  29  30
ENDBRANCH   9  29
TORSDOF 10
ENDMDL
MODEL 5
REMARK VINA RESULT:      -5.3      1.320      8.555
REMARK  Name = 
REMARK  14 active torsions:
REMARK  status: ('A' for Active; 'I' for Inactive)
REMARK    1  A    between atoms: C_1  and  O_2
REMARK    2  A    between atoms: O_2  and  C_3
REMARK    3  A    between atoms: C_3  and  C_4
REMARK    4  A    between atoms: C_4  and  N_5
REMARK    5  A    between atoms: C_6  and  C_7
REMARK    6  A    between atoms: C_11  and  O_12
REMARK    7  A    between atoms: O_12  and  C_13
REMARK    8  A    between atoms: N_17  and  C_18
REMARK    9  A    between atoms: C_18  and  C_19
REMARK   10  A    between atoms: C_19  and  O_20
REMARK   11  A    between atoms: O_20  and  C_21
REMARK   12  A    between atoms: C_22  and  C_23
REMARK   13  A    between atoms: C_27  and  O_28
REMARK   14  A    between atoms: O_28  and  C_29
REMARK                            x       y       z     vdW  Elec       q    Type
REMARK                         _______ _______ _______ _____ _____    ______ ____
ROOT
ATOM      1  N   UNL     1      -1.044  13.034  21.578  0.00  0.00    +0.000 N 
ATOM      2  C   UNL     1      -0.492  13.422  20.376  0.00  0.00    +0.000 A 
ATOM      3  N   UNL     1       0.158  12.600  19.627  0.00  0.00    +0.000 NA
ATOM      4  C   UNL     1       0.417  11.280  20.010  0.00  0.00    +0.000 A 
ATOM      5  C   UNL     1       1.168  10.428  19.168  0.00  0.00    +0.000 A 
ATOM      6  C   UNL     1       1.427   9.095  19.573  0.00  0.00    +0.000 A 
ATOM      7  C   UNL     1       2.237   8.150  18.743  0.00  0.00    +0.000 A 
ATOM      8  O   UNL     1       2.802   8.544  17.725  0.00  0.00    +0.000 OA
ATOM      9  N   UNL     1       2.372   6.826  19.197  0.00  0.00    +0.000 N 
ATOM     10  C   UNL     1       1.869   6.469  20.425  0.00  0.00    +0.000 A 
ATOM     11  N   UNL     1       1.212   7.290  21.177  0.00  0.00    +0.000 NA
ATOM     12  C   UNL     1       0.952   8.607  20.793  0.00  0.00    +0.000 A 
ATOM     13  C   UNL     1       0.195   9.455  21.634  0.00  0.00    +0.000 A 
ATOM     14  C   UNL     1      -0.071  10.783  21.225  0.00  0.00    +0.000 A 
ATOM     15  C   UNL     1      -0.910  11.719  22.037  0.00  0.00    +0.000 A 
ATOM     16  O   UNL     1      -1.491  11.336  23.051  0.00  0.00    +0.000 OA
ENDROOT
BRANCH   2  17
ATOM     17  C   UNL     1      -0.725  14.840  19.858  0.00  0.00    +0.000 C 
ATOM     18 CL   UNL     1       0.769  15.800  19.835  0.00  0.00    +0.000 Cl
ENDBRANCH   2  17
BRANCH   5  19
ATOM     19  O   UNL     1       1.674  10.771  17.942  0.00  0.00    +0.000 OA
ATOM     20  C   UNL     1       2.557  11.865  17.768  0.00  0.00    +0.000 C 
ENDBRANCH   5  19
BRANCH  10  21
ATOM     21  C   UNL     1       1.993   5.064  20.992  0.00  0.00    +0.000 C 
ATOM     22 CL   UNL     1       0.739   3.987  20.366  0.00  0.00    +0.000 Cl
ENDBRANCH  10  21
BRANCH  13  23
ATOM     23  O   UNL     1      -0.311   9.109  22.862  0.00  0.00    +0.000 OA
ATOM     24  C   UNL     1       0.486   9.113  24.035  0.00  0.00    +0.000 C 
ENDBRANCH  13  23
BRANCH   1  25
ATOM     25  C   UNL     1      -1.945  13.899  22.356  0.00  0.00    +0.000 C 
BRANCH  25  26
ATOM     26  C   UNL     1      -1.309  14.347  23.675  0.00  0.00    +0.000 C 
BRANCH  26  28
ATOM     27  C   UNL     1      -0.554  16.510  23.169  0.00  0.00    +0.000 C 
ATOM     28  O   UNL     1      -0.169  15.162  23.416  0.00  0.00    +0.000 OA
ENDBRANCH  26  28
ENDBRANCH  25  26
ENDBRANCH   1  25
BRANCH   9  29
ATOM     29  C   UNL     1       3.245   5.968  18.365  0.00  0.00    +0.000 C 
BRANCH  29  30
ATOM     30  C   UNL     1       2.586   4.790  17.642  0.00  0.00    +0.000 C 
BRANCH  30  31
ATOM     31  O   UNL     1       3.496   3.701  17.499  0.00  0.00    +0.000 OA
ATOM     32  C   UNL     1       2.846   2.455  17.725  0.00  0.00    +0.000 C 
ENDBRANCH  30  31
ENDBRANCH  29  30
ENDBRANCH   9  29
TORSDOF 10
ENDMDL
MODEL 6
REMARK VINA RESULT:      -5.3      1.029      8.626
REMARK  Name = 
REMARK  14 active torsions:
REMARK  status: ('A' for Active; 'I' for Inactive)
REMARK    1  A    between atoms: C_1  and  O_2
REMARK    2  A    between atoms: O_2  and  C_3
REMARK    3  A    between atoms: C_3  and  C_4
REMARK    4  A    between atoms: C_4  and  N_5
REMARK    5  A    between atoms: C_6  and  C_7
REMARK    6  A    between atoms: C_11  and  O_12
REMARK    7  A    between atoms: O_12  and  C_13
REMARK    8  A    between atoms: N_17  and  C_18
REMARK    9  A    between atoms: C_18  and  C_19
REMARK   10  A    between atoms: C_19  and  O_20
REMARK   11  A    between atoms: O_20  and  C_21
REMARK   12  A    between atoms: C_22  and  C_23
REMARK   13  A    between atoms: C_27  and  O_28
REMARK   14  A    between atoms: O_28  and  C_29
REMARK                            x       y       z     vdW  Elec       q    Type
REMARK                         _______ _______ _______ _____ _____    ______ ____
ROOT
ATOM      1  N   UNL     1      -1.043  13.102  21.353  0.00  0.00    +0.000 N 
ATOM      2  C   UNL     1      -0.436  13.470  20.171  0.00  0.00    +0.000 A 
ATOM      3  N   UNL     1       0.231  12.631  19.457  0.00  0.00    +0.000 NA
ATOM      4  C   UNL     1       0.454  11.312  19.862  0.00  0.00    +0.000 A 
ATOM      5  C   UNL     1       1.226  10.441  19.060  0.00  0.00    +0.000 A 
ATOM      6  C   UNL     1       1.449   9.108  19.486  0.00  0.00    +0.000 A 
ATOM      7  C   UNL     1       2.278   8.143  18.700  0.00  0.00    +0.000 A 
ATOM      8  O   UNL     1       2.889   8.519  17.702  0.00  0.00    +0.000 OA
ATOM      9  N   UNL     1       2.374   6.821  19.170  0.00  0.00    +0.000 N 
ATOM     10  C   UNL     1       1.817   6.484  20.380  0.00  0.00    +0.000 A 
ATOM     11  N   UNL     1       1.141   7.322  21.097  0.00  0.00    +0.000 NA
ATOM     12  C   UNL     1       0.917   8.638  20.691  0.00  0.00    +0.000 A 
ATOM     13  C   UNL     1       0.139   9.505  21.492  0.00  0.00    +0.000 A 
ATOM     14  C   UNL     1      -0.090  10.834  21.061  0.00  0.00    +0.000 A 
ATOM     15  C   UNL     1      -0.948  11.789  21.830  0.00  0.00    +0.000 A 
ATOM     16  O   UNL     1      -1.575  11.424  22.822  0.00  0.00    +0.000 OA
ENDROOT
BRANCH   2  17
ATOM     17  C   UNL     1      -0.627  14.886  19.631  0.00  0.00    +0.000 C 
ATOM     18 CL   UNL     1       0.915  15.747  19.445  0.00  0.00    +0.000 Cl
ENDBRANCH   2  17
BRANCH   5  19
ATOM     19  O   UNL     1       1.787  10.764  17.852  0.00  0.00    +0.000 OA
ATOM     20  C   UNL     1       2.664  11.866  17.697  0.00  0.00    +0.000 C 
ENDBRANCH   5  19
BRANCH  10  21
ATOM     21  C   UNL     1       1.896   5.083  20.965  0.00  0.00    +0.000 C 
ATOM     22 CL   UNL     1       0.766   3.974  20.178  0.00  0.00    +0.000 Cl
ENDBRANCH  10  21
BRANCH  13  23
ATOM     23  O   UNL     1      -0.421   9.179  22.702  0.00  0.00    +0.000 OA
ATOM     24  C   UNL     1       0.304   9.265  23.917  0.00  0.00    +0.000 C 
ENDBRANCH  13  23
BRANCH   1  25
ATOM     25  C   UNL     1      -1.962  13.987  22.086  0.00  0.00    +0.000 C 
BRANCH  25  26
ATOM     26  C   UNL     1      -1.219  14.887  23.078  0.00  0.00    +0.000 C 
BRANCH  26  28
ATOM     27  C   UNL     1      -2.642  14.928  24.943  0.00  0.00    +0.000 C 
ATOM     28  O   UNL     1      -1.424  14.421  24.409  0.00  0.00    +0.000 OA
ENDBRANCH  26  28
ENDBRANCH  25  26
ENDBRANCH   1  25
BRANCH   9  29
ATOM     29  C   UNL     1       3.268   5.943  18.383  0.00  0.00    +0.000 C 
BRANCH  29  30
ATOM     30  C   UNL     1       4.627   5.596  18.996  0.00  0.00    +0.000 C 
BRANCH  30  31
ATOM     31  O   UNL     1       5.561   5.212  17.990  0.00  0.00    +0.000 OA
ATOM     32  C   UNL     1       6.686   6.085  17.973  0.00  0.00    +0.000 C 
ENDBRANCH  30  31
ENDBRANCH  29  30
ENDBRANCH   9  29
TORSDOF 10
ENDMDL
MODEL 7
REMARK VINA RESULT:      -5.2      4.439      6.384
REMARK  Name = 
REMARK  14 active torsions:
REMARK  status: ('A' for Active; 'I' for Inactive)
REMARK    1  A    between atoms: C_1  and  O_2
REMARK    2  A    between atoms: O_2  and  C_3
REMARK    3  A    between atoms: C_3  and  C_4
REMARK    4  A    between atoms: C_4  and  N_5
REMARK    5  A    between atoms: C_6  and  C_7
REMARK    6  A    between atoms: C_11  and  O_12
REMARK    7  A    between atoms: O_12  and  C_13
REMARK    8  A    between atoms: N_17  and  C_18
REMARK    9  A    between atoms: C_18  and  C_19
REMARK   10  A    between atoms: C_19  and  O_20
REMARK   11  A    between atoms: O_20  and  C_21
REMARK   12  A    between atoms: C_22  and  C_23
REMARK   13  A    between atoms: C_27  and  O_28
REMARK   14  A    between atoms: O_28  and  C_29
REMARK                            x       y       z     vdW  Elec       q    Type
REMARK                         _______ _______ _______ _____ _____    ______ ____
ROOT
ATOM      1  N   UNL     1      -2.682  10.745  17.837  0.00  0.00    +0.000 N 
ATOM      2  C   UNL     1      -1.446  10.789  18.446  0.00  0.00    +0.000 A 
ATOM      3  N   UNL     1      -1.258  11.400  19.564  0.00  0.00    +0.000 NA
ATOM      4  C   UNL     1      -2.269  12.125  20.202  0.00  0.00    +0.000 A 
ATOM      5  C   UNL     1      -2.002  12.810  21.409  0.00  0.00    +0.000 A 
ATOM      6  C   UNL     1      -3.035  13.546  22.041  0.00  0.00    +0.000 A 
ATOM      7  C   UNL     1      -2.813  14.315  23.304  0.00  0.00    +0.000 A 
ATOM      8  O   UNL     1      -1.683  14.422  23.777  0.00  0.00    +0.000 OA
ATOM      9  N   UNL     1      -3.922  14.949  23.892  0.00  0.00    +0.000 N 
ATOM     10  C   UNL     1      -5.132  14.949  23.243  0.00  0.00    +0.000 A 
ATOM     11  N   UNL     1      -5.326  14.332  22.124  0.00  0.00    +0.000 NA
ATOM     12  C   UNL     1      -4.317  13.607  21.489  0.00  0.00    +0.000 A 
ATOM     13  C   UNL     1      -4.589  12.917  20.285  0.00  0.00    +0.000 A 
ATOM     14  C   UNL     1      -3.559  12.176  19.659  0.00  0.00    +0.000 A 
ATOM     15  C   UNL     1      -3.789  11.377  18.415  0.00  0.00    +0.000 A 
ATOM     16  O   UNL     1      -4.915  11.251  17.938  0.00  0.00    +0.000 OA
ENDROOT
BRANCH   2  17
ATOM     17  C   UNL     1      -0.274  10.019  17.838  0.00  0.00    +0.000 C 
ATOM     18 CL   UNL     1       0.967   9.623  19.045  0.00  0.00    +0.000 Cl
ENDBRANCH   2  17
BRANCH   5  19
ATOM     19  O   UNL     1      -0.799  12.818  22.067  0.00  0.00    +0.000 OA
ATOM     20  C   UNL     1       0.366  13.393  21.504  0.00  0.00    +0.000 C 
ENDBRANCH   5  19
BRANCH  10  21
ATOM     21  C   UNL     1      -6.372  15.629  23.805  0.00  0.00    +0.000 C 
ATOM     22 CL   UNL     1      -7.646  14.466  24.188  0.00  0.00    +0.000 Cl
ENDBRANCH  10  21
BRANCH  13  23
ATOM     23  O   UNL     1      -5.794  12.911  19.628  0.00  0.00    +0.000 OA
ATOM     24  C   UNL     1      -6.326  14.074  19.016  0.00  0.00    +0.000 C 
ENDBRANCH  13  23
BRANCH   1  25
ATOM     25  C   UNL     1      -2.962   9.901  16.664  0.00  0.00    +0.000 C 
BRANCH  25  26
ATOM     26  C   UNL     1      -2.900  10.698  15.359  0.00  0.00    +0.000 C 
BRANCH  26  28
ATOM     27  C   UNL     1      -3.058   9.698  13.242  0.00  0.00    +0.000 C 
ATOM     28  O   UNL     1      -3.778  10.125  14.394  0.00  0.00    +0.000 OA
ENDBRANCH  26  28
ENDBRANCH  25  26
ENDBRANCH   1  25
BRANCH   9  29
ATOM     29  C   UNL     1      -3.615  15.750  25.099  0.00  0.00    +0.000 C 
BRANCH  29  30
ATOM     30  C   UNL     1      -3.392  17.253  24.903  0.00  0.00    +0.000 C 
BRANCH  30  31
ATOM     31  O   UNL     1      -2.003  17.552  24.772  0.00  0.00    +0.000 OA
ATOM     32  C   UNL     1      -1.305  17.291  25.984  0.00  0.00    +0.000 C 
ENDBRANCH  30  31
ENDBRANCH  29  30
ENDBRANCH   9  29
TORSDOF 10
ENDMDL
MODEL 8
REMARK VINA RESULT:      -5.1      1.414      1.674
REMARK  Name = 
REMARK  14 active torsions:
REMARK  status: ('A' for Active; 'I' for Inactive)
REMARK    1  A    between atoms: C_1  and  O_2
REMARK    2  A    between atoms: O_2  and  C_3
REMARK    3  A    between atoms: C_3  and  C_4
REMARK    4  A    between atoms: C_4  and  N_5
REMARK    5  A    between atoms: C_6  and  C_7
REMARK    6  A    between atoms: C_11  and  O_12
REMARK    7  A    between atoms: O_12  and  C_13
REMARK    8  A    between atoms: N_17  and  C_18
REMARK    9  A    between atoms: C_18  and  C_19
REMARK   10  A    between atoms: C_19  and  O_20
REMARK   11  A    between atoms: O_20  and  C_21
REMARK   12  A    between atoms: C_22  and  C_23
REMARK   13  A    between atoms: C_27  and  O_28
REMARK   14  A    between atoms: O_28  and  C_29
REMARK                            x       y       z     vdW  Elec       q    Type
REMARK                         _______ _______ _______ _____ _____    ______ ____
ROOT
ATOM      1  N   UNL     1       2.581   6.677  19.202  0.00  0.00    +0.000 N 
ATOM      2  C   UNL     1       1.988   6.372  20.408  0.00  0.00    +0.000 A 
ATOM      3  N   UNL     1       1.223   7.206  21.023  0.00  0.00    +0.000 NA
ATOM      4  C   UNL     1       0.999   8.504  20.554  0.00  0.00    +0.000 A 
ATOM      5  C   UNL     1       0.181   9.395  21.285  0.00  0.00    +0.000 A 
ATOM      6  C   UNL     1      -0.033  10.709  20.800  0.00  0.00    +0.000 A 
ATOM      7  C   UNL     1      -0.864  11.710  21.538  0.00  0.00    +0.000 A 
ATOM      8  O   UNL     1      -1.302  11.450  22.657  0.00  0.00    +0.000 OA
ATOM      9  N   UNL     1      -1.077  12.962  20.934  0.00  0.00    +0.000 N 
ATOM     10  C   UNL     1      -0.431  13.275  19.763  0.00  0.00    +0.000 A 
ATOM     11  N   UNL     1       0.334  12.438  19.141  0.00  0.00    +0.000 NA
ATOM     12  C   UNL     1       0.555  11.142  19.609  0.00  0.00    +0.000 A 
ATOM     13  C   UNL     1       1.369  10.251  18.871  0.00  0.00    +0.000 A 
ATOM     14  C   UNL     1       1.574   8.936  19.352  0.00  0.00    +0.000 A 
ATOM     15  C   UNL     1       2.378   7.923  18.598  0.00  0.00    +0.000 A 
ATOM     16  O   UNL     1       2.810   8.164  17.472  0.00  0.00    +0.000 OA
ENDROOT
BRANCH   2  17
ATOM     17  C   UNL     1       2.159   4.975  21.004  0.00  0.00    +0.000 C 
ATOM     18 CL   UNL     1       0.831   3.887  20.552  0.00  0.00    +0.000 Cl
ENDBRANCH   2  17
BRANCH   5  19
ATOM     19  O   UNL     1      -0.470   9.095  22.454  0.00  0.00    +0.000 OA
ATOM     20  C   UNL     1       0.154   9.219  23.719  0.00  0.00    +0.000 C 
ENDBRANCH   5  19
BRANCH  10  21
ATOM     21  C   UNL     1      -0.594  14.614  19.061  0.00  0.00    +0.000 C 
ATOM     22 CL   UNL     1       0.900  15.559  19.090  0.00  0.00    +0.000 Cl
ENDBRANCH  10  21
BRANCH  13  23
ATOM     23  O   UNL     1       2.020  10.553  17.701  0.00  0.00    +0.000 OA
ATOM     24  C   UNL     1       2.843  11.700  17.570  0.00  0.00    +0.000 C 
ENDBRANCH  13  23
BRANCH   1  25
ATOM     25  C   UNL     1       3.302   5.680  18.394  0.00  0.00    +0.000 C 
BRANCH  25  26
ATOM     26  C   UNL     1       2.344   4.757  17.636  0.00  0.00    +0.000 C 
BRANCH  26  28
ATOM     27  C   UNL     1       4.127   3.365  18.261  0.00  0.00    +0.000 C 
ATOM     28  O   UNL     1       2.882   3.439  17.574  0.00  0.00    +0.000 OA
ENDBRANCH  26  28
ENDBRANCH  25  26
ENDBRANCH   1  25
BRANCH   9  29
ATOM     29  C   UNL     1      -1.848  13.925  21.752  0.00  0.00    +0.000 C 
BRANCH  29  30
ATOM     30  C   UNL     1      -1.050  14.894  22.630  0.00  0.00    +0.000 C 
BRANCH  30  31
ATOM     31  O   UNL     1      -1.543  16.226  22.502  0.00  0.00    +0.000 OA
ATOM     32  C   UNL     1      -1.775  16.813  23.778  0.00  0.00    +0.000 C 
ENDBRANCH  30  31
ENDBRANCH  29  30
ENDBRANCH   9  29
TORSDOF 10
ENDMDL
MODEL 9
REMARK VINA RESULT:      -5.0      4.895      7.612
REMARK  Name = 
REMARK  14 active torsions:
REMARK  status: ('A' for Active; 'I' for Inactive)
REMARK    1  A    between atoms: C_1  and  O_2
REMARK    2  A    between atoms: O_2  and  C_3
REMARK    3  A    between atoms: C_3  and  C_4
REMARK    4  A    between atoms: C_4  and  N_5
REMARK    5  A    between atoms: C_6  and  C_7
REMARK    6  A    between atoms: C_11  and  O_12
REMARK    7  A    between atoms: O_12  and  C_13
REMARK    8  A    between atoms: N_17  and  C_18
REMARK    9  A    between atoms: C_18  and  C_19
REMARK   10  A    between atoms: C_19  and  O_20
REMARK   11  A    between atoms: O_20  and  C_21
REMARK   12  A    between atoms: C_22  and  C_23
REMARK   13  A    between atoms: C_27  and  O_28
REMARK   14  A    between atoms: O_28  and  C_29
REMARK                            x       y       z     vdW  Elec       q    Type
REMARK                         _______ _______ _______ _____ _____    ______ ____
ROOT
ATOM      1  N   UNL     1      -5.750  11.855  19.782  0.00  0.00    +0.000 N 
ATOM      2  C   UNL     1      -5.826  12.452  21.023  0.00  0.00    +0.000 A 
ATOM      3  N   UNL     1      -4.806  13.010  21.575  0.00  0.00    +0.000 NA
ATOM      4  C   UNL     1      -3.533  12.987  20.997  0.00  0.00    +0.000 A 
ATOM      5  C   UNL     1      -2.437  13.582  21.662  0.00  0.00    +0.000 A 
ATOM      6  C   UNL     1      -1.152  13.546  21.066  0.00  0.00    +0.000 A 
ATOM      7  C   UNL     1       0.054  14.132  21.728  0.00  0.00    +0.000 A 
ATOM      8  O   UNL     1      -0.017  14.570  22.874  0.00  0.00    +0.000 OA
ATOM      9  N   UNL     1       1.269  14.111  21.020  0.00  0.00    +0.000 N 
ATOM     10  C   UNL     1       1.345  13.460  19.813  0.00  0.00    +0.000 A 
ATOM     11  N   UNL     1       0.322  12.902  19.253  0.00  0.00    +0.000 NA
ATOM     12  C   UNL     1      -0.948  12.928  19.829  0.00  0.00    +0.000 A 
ATOM     13  C   UNL     1      -2.044  12.337  19.159  0.00  0.00    +0.000 A 
ATOM     14  C   UNL     1      -3.329  12.382  19.750  0.00  0.00    +0.000 A 
ATOM     15  C   UNL     1      -4.543  11.827  19.074  0.00  0.00    +0.000 A 
ATOM     16  O   UNL     1      -4.489  11.397  17.923  0.00  0.00    +0.000 OA
ENDROOT
BRANCH   2  17
ATOM     17  C   UNL     1      -7.174  12.543  21.737  0.00  0.00    +0.000 C 
ATOM     18 CL   UNL     1      -7.714  14.222  21.940  0.00  0.00    +0.000 Cl
ENDBRANCH   2  17
BRANCH   5  19
ATOM     19  O   UNL     1      -2.500  14.236  22.865  0.00  0.00    +0.000 OA
ATOM     20  C   UNL     1      -2.901  13.586  24.058  0.00  0.00    +0.000 C 
ENDBRANCH   5  19
BRANCH  10  21
ATOM     21  C   UNL     1       2.626  13.376  18.997  0.00  0.00    +0.000 C 
ATOM     22 CL   UNL     1       2.840  14.791  17.959  0.00  0.00    +0.000 Cl
ENDBRANCH  10  21
BRANCH  13  23
ATOM     23  O   UNL     1      -1.979  11.683  17.954  0.00  0.00    +0.000 OA
ATOM     24  C   UNL     1      -1.392  10.399  17.823  0.00  0.00    +0.000 C 
ENDBRANCH  13  23
BRANCH   1  25
ATOM     25  C   UNL     1      -6.936  11.379  19.053  0.00  0.00    +0.000 C 
BRANCH  25  26
ATOM     26  C   UNL     1      -7.017   9.850  19.030  0.00  0.00    +0.000 C 
BRANCH  26  28
ATOM     27  C   UNL     1      -7.917   8.675  20.851  0.00  0.00    +0.000 C 
ATOM     28  O   UNL     1      -6.763   9.328  20.331  0.00  0.00    +0.000 OA
ENDBRANCH  26  28
ENDBRANCH  25  26
ENDBRANCH   1  25
BRANCH   9  29
ATOM     29  C   UNL     1       2.434  14.642  21.763  0.00  0.00    +0.000 C 
BRANCH  29  30
ATOM     30  C   UNL     1       2.883  16.069  21.434  0.00  0.00    +0.000 C 
BRANCH  30  31
ATOM     31  O   UNL     1       4.302  16.143  21.309  0.00  0.00    +0.000 OA
ATOM     32  C   UNL     1       4.905  14.875  21.544  0.00  0.00    +0.000 C 
ENDBRANCH  30  31
ENDBRANCH  29  30
ENDBRANCH   9  29
TORSDOF 10
ENDMDL
