MODEL 1
REMARK VINA RESULT:      -7.9      0.000      0.000
REMARK  Name = 
REMARK  7 active torsions:
REMARK  status: ('A' for Active; 'I' for Inactive)
REMARK    1  A    between atoms: C_1  and  O_2
REMARK    2  A    between atoms: O_2  and  C_3
REMARK    3  A    between atoms: C_6  and  C_7
REMARK    4  A    between atoms: C_9  and  C_10
REMARK    5  A    between atoms: C_13  and  N_14
REMARK    6  A    between atoms: C_22  and  O_23
REMARK    7  A    between atoms: O_23  and  C_24
REMARK                            x       y       z     vdW  Elec       q    Type
REMARK                         _______ _______ _______ _____ _____    ______ ____
ROOT
ATOM      1  C   UNL     1       3.303   6.179  18.889  0.00  0.00    +0.000 A 
ATOM      2  C   UNL     1       2.674   7.455  18.845  0.00  0.00    +0.000 A 
ATOM      3  C   UNL     1       1.950   7.573  20.008  0.00  0.00    +0.000 A 
ATOM      4  N   UNL     1       2.128   6.374  20.641  0.00  0.00    +0.000 N 
ATOM      5  N   UNL     1       2.933   5.518  19.997  0.00  0.00    +0.000 NA
ATOM      6  H   UNL     1       1.732   6.071  21.522  0.00  0.00    +0.000 HD
ENDROOT
BRANCH   1  10
ATOM      7  C   UNL     1       6.000   4.541  15.991  0.00  0.00    +0.000 A 
ATOM      8  C   UNL     1       4.832   3.853  16.356  0.00  0.00    +0.000 A 
ATOM      9  C   UNL     1       3.936   4.394  17.278  0.00  0.00    +0.000 A 
ATOM     10  C   UNL     1       4.232   5.599  17.920  0.00  0.00    +0.000 A 
ATOM     11  C   UNL     1       5.442   6.230  17.623  0.00  0.00    +0.000 A 
ATOM     12  C   UNL     1       6.333   5.721  16.668  0.00  0.00    +0.000 A 
BRANCH   7  14
ATOM     13  C   UNL     1       6.202   3.987  13.706  0.00  0.00    +0.000 C 
ATOM     14  O   UNL     1       6.810   4.060  14.998  0.00  0.00    +0.000 OA
ENDBRANCH   7  14
BRANCH  12  15
ATOM     15  O   UNL     1       7.428   6.529  16.543  0.00  0.00    +0.000 OA
ATOM     16  C   UNL     1       7.632   7.584  17.464  0.00  0.00    +0.000 C 
ENDBRANCH  12  15
ENDBRANCH   1  10
BRANCH   3  17
ATOM     17  C   UNL     1       1.145   8.665  20.541  0.00  0.00    +0.000 A 
ATOM     18  C   UNL     1       0.748   8.661  21.889  0.00  0.00    +0.000 A 
ATOM     19  C   UNL     1      -0.030   9.704  22.401  0.00  0.00    +0.000 A 
ATOM     20  C   UNL     1      -0.422  10.749  21.561  0.00  0.00    +0.000 A 
ATOM     21  C   UNL     1      -0.040  10.761  20.214  0.00  0.00    +0.000 A 
ATOM     22  C   UNL     1       0.739   9.717  19.712  0.00  0.00    +0.000 A 
BRANCH  20  23
ATOM     23  N   UNL     1      -1.243  11.852  22.083  0.00  0.00    +0.000 N 
ATOM     24  O   UNL     1      -0.887  12.371  23.157  0.00  0.00    +0.000 OA
ATOM     25  O   UNL     1      -2.236  12.206  21.424  0.00  0.00    +0.000 OA
ENDBRANCH  20  23
ENDBRANCH   3  17
TORSDOF 5
ENDMDL
MODEL 2
REMARK VINA RESULT:      -7.8      0.337      1.046
REMARK  Name = 
REMARK  7 active torsions:
REMARK  status: ('A' for Active; 'I' for Inactive)
REMARK    1  A    between atoms: C_1  and  O_2
REMARK    2  A    between atoms: O_2  and  C_3
REMARK    3  A    between atoms: C_6  and  C_7
REMARK    4  A    between atoms: C_9  and  C_10
REMARK    5  A    between atoms: C_13  and  N_14
REMARK    6  A    between atoms: C_22  and  O_23
REMARK    7  A    between atoms: O_23  and  C_24
REMARK                            x       y       z     vdW  Elec       q    Type
REMARK                         _______ _______ _______ _____ _____    ______ ____
ROOT
ATOM      1  C   UNL     1       3.349   6.195  18.850  0.00  0.00    +0.000 A 
ATOM      2  C   UNL     1       2.671   7.446  18.812  0.00  0.00    +0.000 A 
ATOM      3  C   UNL     1       1.958   7.538  19.984  0.00  0.00    +0.000 A 
ATOM      4  N   UNL     1       2.189   6.348  20.616  0.00  0.00    +0.000 N 
ATOM      5  N   UNL     1       3.018   5.522  19.963  0.00  0.00    +0.000 NA
ATOM      6  H   UNL     1       1.815   6.032  21.502  0.00  0.00    +0.000 HD
ENDROOT
BRANCH   1  10
ATOM      7  C   UNL     1       6.074   4.659  15.923  0.00  0.00    +0.000 A 
ATOM      8  C   UNL     1       4.896   3.966  16.242  0.00  0.00    +0.000 A 
ATOM      9  C   UNL     1       3.991   4.475  17.173  0.00  0.00    +0.000 A 
ATOM     10  C   UNL     1       4.287   5.649  17.870  0.00  0.00    +0.000 A 
ATOM     11  C   UNL     1       5.506   6.282  17.617  0.00  0.00    +0.000 A 
ATOM     12  C   UNL     1       6.407   5.807  16.654  0.00  0.00    +0.000 A 
BRANCH   7  14
ATOM     13  C   UNL     1       6.253   4.011  13.661  0.00  0.00    +0.000 C 
ATOM     14  O   UNL     1       6.895   4.215  14.922  0.00  0.00    +0.000 OA
ENDBRANCH   7  14
BRANCH  12  15
ATOM     15  O   UNL     1       7.510   6.610  16.579  0.00  0.00    +0.000 OA
ATOM     16  C   UNL     1       7.675   7.665  17.507  0.00  0.00    +0.000 C 
ENDBRANCH  12  15
ENDBRANCH   1  10
BRANCH   3  17
ATOM     17  C   UNL     1       1.118   8.600  20.526  0.00  0.00    +0.000 A 
ATOM     18  C   UNL     1       0.727   9.679  19.715  0.00  0.00    +0.000 A 
ATOM     19  C   UNL     1      -0.071  10.702  20.234  0.00  0.00    +0.000 A 
ATOM     20  C   UNL     1      -0.472  10.654  21.572  0.00  0.00    +0.000 A 
ATOM     21  C   UNL     1      -0.082   9.588  22.393  0.00  0.00    +0.000 A 
ATOM     22  C   UNL     1       0.713   8.569  21.865  0.00  0.00    +0.000 A 
BRANCH  20  23
ATOM     23  N   UNL     1      -1.310  11.722  22.134  0.00  0.00    +0.000 N 
ATOM     24  O   UNL     1      -1.809  11.526  23.258  0.00  0.00    +0.000 OA
ATOM     25  O   UNL     1      -1.468  12.758  21.464  0.00  0.00    +0.000 OA
ENDBRANCH  20  23
ENDBRANCH   3  17
TORSDOF 5
ENDMDL
MODEL 3
REMARK VINA RESULT:      -7.5      1.378      2.614
REMARK  Name = 
REMARK  7 active torsions:
REMARK  status: ('A' for Active; 'I' for Inactive)
REMARK    1  A    between atoms: C_1  and  O_2
REMARK    2  A    between atoms: O_2  and  C_3
REMARK    3  A    between atoms: C_6  and  C_7
REMARK    4  A    between atoms: C_9  and  C_10
REMARK    5  A    between atoms: C_13  and  N_14
REMARK    6  A    between atoms: C_22  and  O_23
REMARK    7  A    between atoms: O_23  and  C_24
REMARK                            x       y       z     vdW  Elec       q    Type
REMARK                         _______ _______ _______ _____ _____    ______ ____
ROOT
ATOM      1  C   UNL     1       2.485   6.664  19.401  0.00  0.00    +0.000 A 
ATOM      2  C   UNL     1       1.965   7.990  19.422  0.00  0.00    +0.000 A 
ATOM      3  C   UNL     1       1.312   8.133  20.623  0.00  0.00    +0.000 A 
ATOM      4  N   UNL     1       1.417   6.905  21.215  0.00  0.00    +0.000 N 
ATOM      5  N   UNL     1       2.113   6.004  20.509  0.00  0.00    +0.000 NA
ATOM      6  H   UNL     1       1.039   6.610  22.107  0.00  0.00    +0.000 HD
ENDROOT
BRANCH   1  10
ATOM      7  C   UNL     1       4.966   4.802  16.447  0.00  0.00    +0.000 A 
ATOM      8  C   UNL     1       4.873   6.200  16.530  0.00  0.00    +0.000 A 
ATOM      9  C   UNL     1       4.088   6.813  17.507  0.00  0.00    +0.000 A 
ATOM     10  C   UNL     1       3.312   6.037  18.371  0.00  0.00    +0.000 A 
ATOM     11  C   UNL     1       3.335   4.649  18.220  0.00  0.00    +0.000 A 
ATOM     12  C   UNL     1       4.150   4.016  17.271  0.00  0.00    +0.000 A 
BRANCH   7  14
ATOM     13  C   UNL     1       6.977   4.996  15.228  0.00  0.00    +0.000 C 
ATOM     14  O   UNL     1       5.830   4.212  15.564  0.00  0.00    +0.000 OA
ENDBRANCH   7  14
BRANCH  12  15
ATOM     15  O   UNL     1       4.011   2.658  17.337  0.00  0.00    +0.000 OA
ATOM     16  C   UNL     1       2.819   2.097  17.853  0.00  0.00    +0.000 C 
ENDBRANCH  12  15
ENDBRANCH   1  10
BRANCH   3  17
ATOM     17  C   UNL     1       0.631   9.273  21.225  0.00  0.00    +0.000 A 
ATOM     18  C   UNL     1       0.644  10.525  20.587  0.00  0.00    +0.000 A 
ATOM     19  C   UNL     1      -0.002  11.622  21.166  0.00  0.00    +0.000 A 
ATOM     20  C   UNL     1      -0.655  11.470  22.391  0.00  0.00    +0.000 A 
ATOM     21  C   UNL     1      -0.669  10.229  23.041  0.00  0.00    +0.000 A 
ATOM     22  C   UNL     1      -0.024   9.139  22.455  0.00  0.00    +0.000 A 
BRANCH  20  23
ATOM     23  N   UNL     1      -1.338  12.613  23.015  0.00  0.00    +0.000 N 
ATOM     24  O   UNL     1      -2.583  12.614  23.000  0.00  0.00    +0.000 OA
ATOM     25  O   UNL     1      -0.638  13.506  23.524  0.00  0.00    +0.000 OA
ENDBRANCH  20  23
ENDBRANCH   3  17
TORSDOF 5
ENDMDL
MODEL 4
REMARK VINA RESULT:      -7.4      1.349      2.403
REMARK  Name = 
REMARK  7 active torsions:
REMARK  status: ('A' for Active; 'I' for Inactive)
REMARK    1  A    between atoms: C_1  and  O_2
REMARK    2  A    between atoms: O_2  and  C_3
REMARK    3  A    between atoms: C_6  and  C_7
REMARK    4  A    between atoms: C_9  and  C_10
REMARK    5  A    between atoms: C_13  and  N_14
REMARK    6  A    between atoms: C_22  and  O_23
REMARK    7  A    between atoms: O_23  and  C_24
REMARK                            x       y       z     vdW  Elec       q    Type
REMARK                         _______ _______ _______ _____ _____    ______ ____
ROOT
ATOM      1  C   UNL     1       2.561   6.617  19.293  0.00  0.00    +0.000 A 
ATOM      2  C   UNL     1       2.063   7.951  19.276  0.00  0.00    +0.000 A 
ATOM      3  C   UNL     1       1.424   8.143  20.478  0.00  0.00    +0.000 A 
ATOM      4  N   UNL     1       1.516   6.933  21.109  0.00  0.00    +0.000 N 
ATOM      5  N   UNL     1       2.191   5.999  20.425  0.00  0.00    +0.000 NA
ATOM      6  H   UNL     1       1.143   6.673  22.014  0.00  0.00    +0.000 HD
ENDROOT
BRANCH   1  10
ATOM      7  C   UNL     1       4.983   4.622  16.377  0.00  0.00    +0.000 A 
ATOM      8  C   UNL     1       4.913   6.023  16.415  0.00  0.00    +0.000 A 
ATOM      9  C   UNL     1       4.148   6.679  17.380  0.00  0.00    +0.000 A 
ATOM     10  C   UNL     1       3.368   5.945  18.276  0.00  0.00    +0.000 A 
ATOM     11  C   UNL     1       3.369   4.552  18.170  0.00  0.00    +0.000 A 
ATOM     12  C   UNL     1       4.163   3.876  17.234  0.00  0.00    +0.000 A 
BRANCH   7  14
ATOM     13  C   UNL     1       6.922   4.787  15.042  0.00  0.00    +0.000 C 
ATOM     14  O   UNL     1       5.829   3.990  15.505  0.00  0.00    +0.000 OA
ENDBRANCH   7  14
BRANCH  12  15
ATOM     15  O   UNL     1       4.004   2.523  17.344  0.00  0.00    +0.000 OA
ATOM     16  C   UNL     1       2.799   1.998  17.867  0.00  0.00    +0.000 C 
ENDBRANCH  12  15
ENDBRANCH   1  10
BRANCH   3  17
ATOM     17  C   UNL     1       0.766   9.313  21.049  0.00  0.00    +0.000 A 
ATOM     18  C   UNL     1       0.138   9.231  22.303  0.00  0.00    +0.000 A 
ATOM     19  C   UNL     1      -0.500  10.349  22.850  0.00  0.00    +0.000 A 
ATOM     20  C   UNL     1      -0.519  11.550  22.136  0.00  0.00    +0.000 A 
ATOM     21  C   UNL     1       0.097  11.642  20.881  0.00  0.00    +0.000 A 
ATOM     22  C   UNL     1       0.733  10.522  20.345  0.00  0.00    +0.000 A 
BRANCH  20  23
ATOM     23  N   UNL     1      -1.187  12.734  22.695  0.00  0.00    +0.000 N 
ATOM     24  O   UNL     1      -2.346  12.974  22.307  0.00  0.00    +0.000 OA
ATOM     25  O   UNL     1      -0.564  13.422  23.523  0.00  0.00    +0.000 OA
ENDBRANCH  20  23
ENDBRANCH   3  17
TORSDOF 5
ENDMDL
MODEL 5
REMARK VINA RESULT:      -7.4      2.168      3.248
REMARK  Name = 
REMARK  7 active torsions:
REMARK  status: ('A' for Active; 'I' for Inactive)
REMARK    1  A    between atoms: C_1  and  O_2
REMARK    2  A    between atoms: O_2  and  C_3
REMARK    3  A    between atoms: C_6  and  C_7
REMARK    4  A    between atoms: C_9  and  C_10
REMARK    5  A    between atoms: C_13  and  N_14
REMARK    6  A    between atoms: C_22  and  O_23
REMARK    7  A    between atoms: O_23  and  C_24
REMARK                            x       y       z     vdW  Elec       q    Type
REMARK                         _______ _______ _______ _____ _____    ______ ____
ROOT
ATOM      1  C   UNL     1       2.198   8.253  18.341  0.00  0.00    +0.000 A 
ATOM      2  C   UNL     1       1.606   8.465  19.618  0.00  0.00    +0.000 A 
ATOM      3  C   UNL     1       0.915   9.650  19.536  0.00  0.00    +0.000 A 
ATOM      4  N   UNL     1       1.170  10.105  18.271  0.00  0.00    +0.000 N 
ATOM      5  N   UNL     1       1.935   9.290  17.531  0.00  0.00    +0.000 NA
ATOM      6  H   UNL     1       0.850  10.964  17.843  0.00  0.00    +0.000 HD
ENDROOT
BRANCH   1  10
ATOM      7  C   UNL     1       4.526   4.875  17.107  0.00  0.00    +0.000 A 
ATOM      8  C   UNL     1       4.912   6.179  16.762  0.00  0.00    +0.000 A 
ATOM      9  C   UNL     1       4.174   7.285  17.184  0.00  0.00    +0.000 A 
ATOM     10  C   UNL     1       2.983   7.105  17.891  0.00  0.00    +0.000 A 
ATOM     11  C   UNL     1       2.554   5.800  18.149  0.00  0.00    +0.000 A 
ATOM     12  C   UNL     1       3.306   4.680  17.768  0.00  0.00    +0.000 A 
BRANCH   7  14
ATOM     13  C   UNL     1       6.003   3.910  15.540  0.00  0.00    +0.000 C 
ATOM     14  O   UNL     1       5.320   3.806  16.792  0.00  0.00    +0.000 OA
ENDBRANCH   7  14
BRANCH  12  15
ATOM     15  O   UNL     1       2.687   3.524  18.152  0.00  0.00    +0.000 OA
ATOM     16  C   UNL     1       1.293   3.520  18.397  0.00  0.00    +0.000 C 
ENDBRANCH  12  15
ENDBRANCH   1  10
BRANCH   3  17
ATOM     17  C   UNL     1       0.079  10.354  20.502  0.00  0.00    +0.000 A 
ATOM     18  C   UNL     1      -0.633  11.503  20.119  0.00  0.00    +0.000 A 
ATOM     19  C   UNL     1      -1.429  12.183  21.045  0.00  0.00    +0.000 A 
ATOM     20  C   UNL     1      -1.506  11.720  22.361  0.00  0.00    +0.000 A 
ATOM     21  C   UNL     1      -0.794  10.580  22.757  0.00  0.00    +0.000 A 
ATOM     22  C   UNL     1      -0.004   9.906  21.825  0.00  0.00    +0.000 A 
BRANCH  20  23
ATOM     23  N   UNL     1      -2.337  12.425  23.348  0.00  0.00    +0.000 N 
ATOM     24  O   UNL     1      -1.988  13.576  23.673  0.00  0.00    +0.000 OA
ATOM     25  O   UNL     1      -3.338  11.840  23.797  0.00  0.00    +0.000 OA
ENDBRANCH  20  23
ENDBRANCH   3  17
TORSDOF 5
ENDMDL
MODEL 6
REMARK VINA RESULT:      -7.4      1.761      9.139
REMARK  Name = 
REMARK  7 active torsions:
REMARK  status: ('A' for Active; 'I' for Inactive)
REMARK    1  A    between atoms: C_1  and  O_2
REMARK    2  A    between atoms: O_2  and  C_3
REMARK    3  A    between atoms: C_6  and  C_7
REMARK    4  A    between atoms: C_9  and  C_10
REMARK    5  A    between atoms: C_13  and  N_14
REMARK    6  A    between atoms: C_22  and  O_23
REMARK    7  A    between atoms: O_23  and  C_24
REMARK                            x       y       z     vdW  Elec       q    Type
REMARK                         _______ _______ _______ _____ _____    ______ ____
ROOT
ATOM      1  C   UNL     1       1.475   7.992  20.361  0.00  0.00    +0.000 A 
ATOM      2  C   UNL     1       2.276   8.045  19.185  0.00  0.00    +0.000 A 
ATOM      3  C   UNL     1       2.799   6.785  19.013  0.00  0.00    +0.000 A 
ATOM      4  N   UNL     1       2.350   6.081  20.095  0.00  0.00    +0.000 N 
ATOM      5  N   UNL     1       1.555   6.775  20.921  0.00  0.00    +0.000 NA
ATOM      6  H   UNL     1       2.544   5.115  20.333  0.00  0.00    +0.000 HD
ENDROOT
BRANCH   1  10
ATOM      7  C   UNL     1      -0.865  11.160  22.046  0.00  0.00    +0.000 A 
ATOM      8  C   UNL     1      -0.364  10.128  22.854  0.00  0.00    +0.000 A 
ATOM      9  C   UNL     1       0.422   9.109  22.317  0.00  0.00    +0.000 A 
ATOM     10  C   UNL     1       0.654   9.054  20.940  0.00  0.00    +0.000 A 
ATOM     11  C   UNL     1       0.072  10.031  20.129  0.00  0.00    +0.000 A 
ATOM     12  C   UNL     1      -0.685  11.085  20.658  0.00  0.00    +0.000 A 
BRANCH   7  14
ATOM     13  C   UNL     1      -2.659  11.866  23.406  0.00  0.00    +0.000 C 
ATOM     14  O   UNL     1      -1.532  12.219  22.600  0.00  0.00    +0.000 OA
ENDBRANCH   7  14
BRANCH  12  15
ATOM     15  O   UNL     1      -1.124  11.917  19.667  0.00  0.00    +0.000 OA
ATOM     16  C   UNL     1      -2.135  11.480  18.779  0.00  0.00    +0.000 C 
ENDBRANCH  12  15
ENDBRANCH   1  10
BRANCH   3  17
ATOM     17  C   UNL     1       3.646   6.223  17.968  0.00  0.00    +0.000 A 
ATOM     18  C   UNL     1       3.680   4.835  17.752  0.00  0.00    +0.000 A 
ATOM     19  C   UNL     1       4.496   4.292  16.756  0.00  0.00    +0.000 A 
ATOM     20  C   UNL     1       5.291   5.139  15.978  0.00  0.00    +0.000 A 
ATOM     21  C   UNL     1       5.273   6.524  16.189  0.00  0.00    +0.000 A 
ATOM     22  C   UNL     1       4.453   7.057  17.184  0.00  0.00    +0.000 A 
BRANCH  20  23
ATOM     23  N   UNL     1       6.158   4.585  14.928  0.00  0.00    +0.000 N 
ATOM     24  O   UNL     1       7.380   4.805  15.019  0.00  0.00    +0.000 OA
ATOM     25  O   UNL     1       5.626   3.926  14.017  0.00  0.00    +0.000 OA
ENDBRANCH  20  23
ENDBRANCH   3  17
TORSDOF 5
ENDMDL
MODEL 7
REMARK VINA RESULT:      -7.4      2.188      3.111
REMARK  Name = 
REMARK  7 active torsions:
REMARK  status: ('A' for Active; 'I' for Inactive)
REMARK    1  A    between atoms: C_1  and  O_2
REMARK    2  A    between atoms: O_2  and  C_3
REMARK    3  A    between atoms: C_6  and  C_7
REMARK    4  A    between atoms: C_9  and  C_10
REMARK    5  A    between atoms: C_13  and  N_14
REMARK    6  A    between atoms: C_22  and  O_23
REMARK    7  A    between atoms: O_23  and  C_24
REMARK                            x       y       z     vdW  Elec       q    Type
REMARK                         _______ _______ _______ _____ _____    ______ ____
ROOT
ATOM      1  C   UNL     1       2.137   8.228  18.389  0.00  0.00    +0.000 A 
ATOM      2  C   UNL     1       1.527   8.434  19.659  0.00  0.00    +0.000 A 
ATOM      3  C   UNL     1       0.884   9.647  19.591  0.00  0.00    +0.000 A 
ATOM      4  N   UNL     1       1.183  10.119  18.343  0.00  0.00    +0.000 N 
ATOM      5  N   UNL     1       1.931   9.293  17.599  0.00  0.00    +0.000 NA
ATOM      6  H   UNL     1       0.905  11.001  17.928  0.00  0.00    +0.000 HD
ENDROOT
BRANCH   1  10
ATOM      7  C   UNL     1       4.354   4.788  17.123  0.00  0.00    +0.000 A 
ATOM      8  C   UNL     1       4.827   6.084  16.863  0.00  0.00    +0.000 A 
ATOM      9  C   UNL     1       4.123   7.208  17.297  0.00  0.00    +0.000 A 
ATOM     10  C   UNL     1       2.886   7.060  17.928  0.00  0.00    +0.000 A 
ATOM     11  C   UNL     1       2.376   5.771  18.098  0.00  0.00    +0.000 A 
ATOM     12  C   UNL     1       3.089   4.630  17.705  0.00  0.00    +0.000 A 
BRANCH   7  14
ATOM     13  C   UNL     1       5.926   3.845  15.638  0.00  0.00    +0.000 C 
ATOM     14  O   UNL     1       5.109   3.693  16.800  0.00  0.00    +0.000 OA
ENDBRANCH   7  14
BRANCH  12  15
ATOM     15  O   UNL     1       2.390   3.492  17.997  0.00  0.00    +0.000 OA
ATOM     16  C   UNL     1       2.422   2.966  19.310  0.00  0.00    +0.000 C 
ENDBRANCH  12  15
ENDBRANCH   1  10
BRANCH   3  17
ATOM     17  C   UNL     1       0.056  10.360  20.557  0.00  0.00    +0.000 A 
ATOM     18  C   UNL     1      -0.005   9.930  21.892  0.00  0.00    +0.000 A 
ATOM     19  C   UNL     1      -0.804  10.607  22.819  0.00  0.00    +0.000 A 
ATOM     20  C   UNL     1      -1.552  11.713  22.406  0.00  0.00    +0.000 A 
ATOM     21  C   UNL     1      -1.506  12.147  21.075  0.00  0.00    +0.000 A 
ATOM     22  C   UNL     1      -0.704  11.466  20.158  0.00  0.00    +0.000 A 
BRANCH  20  23
ATOM     23  N   UNL     1      -2.399  12.435  23.367  0.00  0.00    +0.000 N 
ATOM     24  O   UNL     1      -2.016  13.563  23.731  0.00  0.00    +0.000 OA
ATOM     25  O   UNL     1      -3.445  11.887  23.754  0.00  0.00    +0.000 OA
ENDBRANCH  20  23
ENDBRANCH   3  17
TORSDOF 5
ENDMDL
MODEL 8
REMARK VINA RESULT:      -7.4      0.803      1.441
REMARK  Name = 
REMARK  7 active torsions:
REMARK  status: ('A' for Active; 'I' for Inactive)
REMARK    1  A    between atoms: C_1  and  O_2
REMARK    2  A    between atoms: O_2  and  C_3
REMARK    3  A    between atoms: C_6  and  C_7
REMARK    4  A    between atoms: C_9  and  C_10
REMARK    5  A    between atoms: C_13  and  N_14
REMARK    6  A    between atoms: C_22  and  O_23
REMARK    7  A    between atoms: O_23  and  C_24
REMARK                            x       y       z     vdW  Elec       q    Type
REMARK                         _______ _______ _______ _____ _____    ______ ____
ROOT
ATOM      1  C   UNL     1       3.201   6.636  18.631  0.00  0.00    +0.000 A 
ATOM      2  C   UNL     1       2.484   7.837  18.364  0.00  0.00    +0.000 A 
ATOM      3  C   UNL     1       1.760   8.119  19.498  0.00  0.00    +0.000 A 
ATOM      4  N   UNL     1       2.023   7.072  20.337  0.00  0.00    +0.000 N 
ATOM      5  N   UNL     1       2.883   6.168  19.847  0.00  0.00    +0.000 NA
ATOM      6  H   UNL     1       1.653   6.911  21.266  0.00  0.00    +0.000 HD
ENDROOT
BRANCH   1  10
ATOM      7  C   UNL     1       6.001   4.686  16.041  0.00  0.00    +0.000 A 
ATOM      8  C   UNL     1       4.789   4.067  16.387  0.00  0.00    +0.000 A 
ATOM      9  C   UNL     1       3.861   4.708  17.207  0.00  0.00    +0.000 A 
ATOM     10  C   UNL     1       4.163   5.951  17.769  0.00  0.00    +0.000 A 
ATOM     11  C   UNL     1       5.410   6.518  17.497  0.00  0.00    +0.000 A 
ATOM     12  C   UNL     1       6.336   5.906  16.642  0.00  0.00    +0.000 A 
BRANCH   7  14
ATOM     13  C   UNL     1       6.343   4.008  13.807  0.00  0.00    +0.000 C 
ATOM     14  O   UNL     1       6.850   4.102  15.140  0.00  0.00    +0.000 OA
ENDBRANCH   7  14
BRANCH  12  15
ATOM     15  O   UNL     1       7.466   6.666  16.521  0.00  0.00    +0.000 OA
ATOM     16  C   UNL     1       7.731   7.685  17.466  0.00  0.00    +0.000 C 
ENDBRANCH  12  15
ENDBRANCH   1  10
BRANCH   3  17
ATOM     17  C   UNL     1       0.883   9.234  19.835  0.00  0.00    +0.000 A 
ATOM     18  C   UNL     1       0.391  10.080  18.827  0.00  0.00    +0.000 A 
ATOM     19  C   UNL     1      -0.443  11.155  19.148  0.00  0.00    +0.000 A 
ATOM     20  C   UNL     1      -0.779  11.392  20.484  0.00  0.00    +0.000 A 
ATOM     21  C   UNL     1      -0.288  10.561  21.499  0.00  0.00    +0.000 A 
ATOM     22  C   UNL     1       0.542   9.489  21.169  0.00  0.00    +0.000 A 
BRANCH  20  23
ATOM     23  N   UNL     1      -1.653  12.519  20.840  0.00  0.00    +0.000 N 
ATOM     24  O   UNL     1      -2.834  12.473  20.448  0.00  0.00    +0.000 OA
ATOM     25  O   UNL     1      -1.169  13.447  21.512  0.00  0.00    +0.000 OA
ENDBRANCH  20  23
ENDBRANCH   3  17
TORSDOF 5
ENDMDL
MODEL 9
REMARK VINA RESULT:      -7.4      1.757      9.173
REMARK  Name = 
REMARK  7 active torsions:
REMARK  status: ('A' for Active; 'I' for Inactive)
REMARK    1  A    between atoms: C_1  and  O_2
REMARK    2  A    between atoms: O_2  and  C_3
REMARK    3  A    between atoms: C_6  and  C_7
REMARK    4  A    between atoms: C_9  and  C_10
REMARK    5  A    between atoms: C_13  and  N_14
REMARK    6  A    between atoms: C_22  and  O_23
REMARK    7  A    between atoms: O_23  and  C_24
REMARK                            x       y       z     vdW  Elec       q    Type
REMARK                         _______ _______ _______ _____ _____    ______ ____
ROOT
ATOM      1  C   UNL     1       1.524   7.953  20.374  0.00  0.00    +0.000 A 
ATOM      2  C   UNL     1       2.368   8.039  19.230  0.00  0.00    +0.000 A 
ATOM      3  C   UNL     1       2.852   6.772  19.006  0.00  0.00    +0.000 A 
ATOM      4  N   UNL     1       2.338   6.027  20.031  0.00  0.00    +0.000 N 
ATOM      5  N   UNL     1       1.539   6.705  20.866  0.00  0.00    +0.000 NA
ATOM      6  H   UNL     1       2.488   5.043  20.221  0.00  0.00    +0.000 HD
ENDROOT
BRANCH   1  10
ATOM      7  C   UNL     1      -0.761  11.111  22.149  0.00  0.00    +0.000 A 
ATOM      8  C   UNL     1      -0.301  10.034  22.923  0.00  0.00    +0.000 A 
ATOM      9  C   UNL     1       0.467   9.017  22.356  0.00  0.00    +0.000 A 
ATOM     10  C   UNL     1       0.721   9.012  20.982  0.00  0.00    +0.000 A 
ATOM     11  C   UNL     1       0.179  10.036  20.203  0.00  0.00    +0.000 A 
ATOM     12  C   UNL     1      -0.559  11.088  20.763  0.00  0.00    +0.000 A 
BRANCH   7  14
ATOM     13  C   UNL     1      -2.667  11.840  23.334  0.00  0.00    +0.000 C 
ATOM     14  O   UNL     1      -1.410  12.164  22.736  0.00  0.00    +0.000 OA
ENDBRANCH   7  14
BRANCH  12  15
ATOM     15  O   UNL     1      -0.959  11.971  19.799  0.00  0.00    +0.000 OA
ATOM     16  C   UNL     1      -2.195  11.778  19.138  0.00  0.00    +0.000 C 
ENDBRANCH  12  15
ENDBRANCH   1  10
BRANCH   3  17
ATOM     17  C   UNL     1       3.716   6.236  17.961  0.00  0.00    +0.000 A 
ATOM     18  C   UNL     1       4.517   7.097  17.192  0.00  0.00    +0.000 A 
ATOM     19  C   UNL     1       5.341   6.586  16.185  0.00  0.00    +0.000 A 
ATOM     20  C   UNL     1       5.357   5.211  15.937  0.00  0.00    +0.000 A 
ATOM     21  C   UNL     1       4.557   4.343  16.692  0.00  0.00    +0.000 A 
ATOM     22  C   UNL     1       3.739   4.862  17.697  0.00  0.00    +0.000 A 
BRANCH  20  23
ATOM     23  N   UNL     1       6.215   4.658  14.880  0.00  0.00    +0.000 N 
ATOM     24  O   UNL     1       7.331   5.185  14.714  0.00  0.00    +0.000 OA
ATOM     25  O   UNL     1       5.784   3.697  14.218  0.00  0.00    +0.000 OA
ENDBRANCH  20  23
ENDBRANCH   3  17
TORSDOF 5
ENDMDL
