MODEL 1
REMARK VINA RESULT:      -8.8      0.000      0.000
REMARK  Name = 
REMARK  10 active torsions:
REMARK  status: ('A' for Active; 'I' for Inactive)
REMARK    1  A    between atoms: C_1  and  C_2
REMARK    2  A    between atoms: C_3  and  C_4
REMARK    3  A    between atoms: N_6  and  C_7
REMARK    4  A    between atoms: C_7  and  C_8
REMARK    5  A    between atoms: C_8  and  O_9
REMARK    6  A    between atoms: O_9  and  C_10
REMARK    7  A    between atoms: C_20  and  C_21
REMARK    8  A    between atoms: C_24  and  C_25
REMARK    9  A    between atoms: C_25  and  C_26
REMARK   10  A    between atoms: C_25  and  C_27
REMARK                            x       y       z     vdW  Elec       q    Type
REMARK                         _______ _______ _______ _____ _____    ______ ____
ROOT
ATOM      1  C   UNL     1       0.652   8.543  21.346  0.00  0.00    +0.000 C 
ATOM      2  C   UNL     1       1.238   8.607  19.959  0.00  0.00    +0.000 A 
ATOM      3  C   UNL     1       1.032   9.582  19.038  0.00  0.00    +0.000 A 
ATOM      4  C   UNL     1       1.765   9.376  17.752  0.00  0.00    +0.000 A 
ATOM      5  N   UNL     1       2.546   8.393  17.434  0.00  0.00    +0.000 NA
ATOM      6  C   UNL     1       2.700   7.419  18.382  0.00  0.00    +0.000 A 
ATOM      7  C   UNL     1       3.395   6.220  18.381  0.00  0.00    +0.000 A 
ATOM      8  C   UNL     1       3.160   5.683  19.661  0.00  0.00    +0.000 A 
ATOM      9  N   UNL     1       2.383   6.454  20.420  0.00  0.00    +0.000 NA
ATOM     10  N   UNL     1       2.075   7.518  19.633  0.00  0.00    +0.000 N 
ENDROOT
BRANCH   7  11
ATOM     11  C   UNL     1       4.163   5.677  17.268  0.00  0.00    +0.000 A 
ATOM     12  C   UNL     1       4.897   6.523  16.424  0.00  0.00    +0.000 A 
ATOM     13  C   UNL     1       5.658   5.997  15.370  0.00  0.00    +0.000 A 
ATOM     14  C   UNL     1       5.688   4.619  15.123  0.00  0.00    +0.000 A 
ATOM     15  C   UNL     1       4.952   3.778  15.966  0.00  0.00    +0.000 A 
ATOM     16  C   UNL     1       4.214   4.299  17.029  0.00  0.00    +0.000 A 
BRANCH  14  17
ATOM     17  C   UNL     1       6.486   4.061  13.959  0.00  0.00    +0.000 C 
ATOM     18  C   UNL     1       5.574   3.570  12.830  0.00  0.00    +0.000 C 
ATOM     19  C   UNL     1       7.488   5.092  13.434  0.00  0.00    +0.000 C 
ENDBRANCH  14  17
ENDBRANCH   7  11
BRANCH   3  20
ATOM     20  C   UNL     1       0.120  10.747  19.259  0.00  0.00    +0.000 C 
ATOM     21  O   UNL     1       0.530  11.802  19.738  0.00  0.00    +0.000 OA
ATOM     22  N   UNL     1      -1.201  10.586  18.922  0.00  0.00    +0.000 N 
ATOM     23  H   UNL     1      -1.576   9.691  18.634  0.00  0.00    +0.000 HD
BRANCH  22  24
ATOM     24  C   UNL     1      -2.145  11.686  19.106  0.00  0.00    +0.000 C 
BRANCH  24  25
ATOM     25  C   UNL     1      -3.357  11.563  18.188  0.00  0.00    +0.000 C 
BRANCH  25  26
ATOM     26  O   UNL     1      -4.406  12.431  18.624  0.00  0.00    +0.000 OA
BRANCH  26  27
ATOM     27  C   UNL     1      -5.448  11.819  19.275  0.00  0.00    +0.000 A 
ATOM     28  C   UNL     1      -5.939  10.664  18.658  0.00  0.00    +0.000 A 
ATOM     29  C   UNL     1      -6.990   9.940  19.232  0.00  0.00    +0.000 A 
ATOM     30  C   UNL     1      -7.575  10.375  20.420  0.00  0.00    +0.000 A 
ATOM     31  C   UNL     1      -7.107  11.532  21.033  0.00  0.00    +0.000 A 
ATOM     32  C   UNL     1      -6.050  12.241  20.468  0.00  0.00    +0.000 A 
ATOM     33  F   UNL     1      -5.637  13.338  21.119  0.00  0.00    +0.000 F 
ENDBRANCH  26  27
ENDBRANCH  25  26
ENDBRANCH  24  25
ENDBRANCH  22  24
ENDBRANCH   3  20
TORSDOF 7
ENDMDL
MODEL 2
REMARK VINA RESULT:      -8.5      3.348      4.778
REMARK  Name = 
REMARK  10 active torsions:
REMARK  status: ('A' for Active; 'I' for Inactive)
REMARK    1  A    between atoms: C_1  and  C_2
REMARK    2  A    between atoms: C_3  and  C_4
REMARK    3  A    between atoms: N_6  and  C_7
REMARK    4  A    between atoms: C_7  and  C_8
REMARK    5  A    between atoms: C_8  and  O_9
REMARK    6  A    between atoms: O_9  and  C_10
REMARK    7  A    between atoms: C_20  and  C_21
REMARK    8  A    between atoms: C_24  and  C_25
REMARK    9  A    between atoms: C_25  and  C_26
REMARK   10  A    between atoms: C_25  and  C_27
REMARK                            x       y       z     vdW  Elec       q    Type
REMARK                         _______ _______ _______ _____ _____    ______ ____
ROOT
ATOM      1  C   UNL     1       0.505   8.705  21.332  0.00  0.00    +0.000 C 
ATOM      2  C   UNL     1       1.131   8.764  19.962  0.00  0.00    +0.000 A 
ATOM      3  C   UNL     1       0.962   9.742  19.037  0.00  0.00    +0.000 A 
ATOM      4  C   UNL     1       1.729   9.529  17.772  0.00  0.00    +0.000 A 
ATOM      5  N   UNL     1       2.507   8.537  17.475  0.00  0.00    +0.000 NA
ATOM      6  C   UNL     1       2.624   7.561  18.426  0.00  0.00    +0.000 A 
ATOM      7  C   UNL     1       3.304   6.353  18.443  0.00  0.00    +0.000 A 
ATOM      8  C   UNL     1       3.026   5.818  19.716  0.00  0.00    +0.000 A 
ATOM      9  N   UNL     1       2.238   6.597  20.453  0.00  0.00    +0.000 NA
ATOM     10  N   UNL     1       1.965   7.665  19.659  0.00  0.00    +0.000 N 
ENDROOT
BRANCH   7  11
ATOM     11  C   UNL     1       4.098   5.802  17.352  0.00  0.00    +0.000 A 
ATOM     12  C   UNL     1       4.859   6.641  16.525  0.00  0.00    +0.000 A 
ATOM     13  C   UNL     1       5.643   6.108  15.493  0.00  0.00    +0.000 A 
ATOM     14  C   UNL     1       5.670   4.729  15.250  0.00  0.00    +0.000 A 
ATOM     15  C   UNL     1       4.907   3.895  16.075  0.00  0.00    +0.000 A 
ATOM     16  C   UNL     1       4.145   4.423  17.118  0.00  0.00    +0.000 A 
BRANCH  14  17
ATOM     17  C   UNL     1       6.494   4.162  14.109  0.00  0.00    +0.000 C 
ATOM     18  C   UNL     1       5.614   3.468  13.064  0.00  0.00    +0.000 C 
ATOM     19  C   UNL     1       7.351   5.250  13.456  0.00  0.00    +0.000 C 
ENDBRANCH  14  17
ENDBRANCH   7  11
BRANCH   3  20
ATOM     20  C   UNL     1       0.058  10.917  19.234  0.00  0.00    +0.000 C 
ATOM     21  O   UNL     1      -1.130  10.872  18.925  0.00  0.00    +0.000 OA
ATOM     22  N   UNL     1       0.613  12.058  19.759  0.00  0.00    +0.000 N 
ATOM     23  H   UNL     1       1.609  12.149  19.912  0.00  0.00    +0.000 HD
BRANCH  22  24
ATOM     24  C   UNL     1      -0.215  13.241  19.983  0.00  0.00    +0.000 C 
BRANCH  24  25
ATOM     25  C   UNL     1      -0.078  14.261  18.858  0.00  0.00    +0.000 C 
BRANCH  25  26
ATOM     26  O   UNL     1       0.561  15.448  19.331  0.00  0.00    +0.000 OA
BRANCH  26  27
ATOM     27  C   UNL     1       0.562  16.508  18.458  0.00  0.00    +0.000 A 
ATOM     28  C   UNL     1       1.785  16.755  17.826  0.00  0.00    +0.000 A 
ATOM     29  C   UNL     1       1.912  17.797  16.900  0.00  0.00    +0.000 A 
ATOM     30  C   UNL     1       0.822  18.617  16.613  0.00  0.00    +0.000 A 
ATOM     31  C   UNL     1      -0.394  18.392  17.250  0.00  0.00    +0.000 A 
ATOM     32  C   UNL     1      -0.522  17.343  18.157  0.00  0.00    +0.000 A 
ATOM     33  F   UNL     1      -1.725  17.172  18.723  0.00  0.00    +0.000 F 
ENDBRANCH  26  27
ENDBRANCH  25  26
ENDBRANCH  24  25
ENDBRANCH  22  24
ENDBRANCH   3  20
TORSDOF 7
ENDMDL
MODEL 3
REMARK VINA RESULT:      -8.4      4.346     10.775
REMARK  Name = 
REMARK  10 active torsions:
REMARK  status: ('A' for Active; 'I' for Inactive)
REMARK    1  A    between atoms: C_1  and  C_2
REMARK    2  A    between atoms: C_3  and  C_4
REMARK    3  A    between atoms: N_6  and  C_7
REMARK    4  A    between atoms: C_7  and  C_8
REMARK    5  A    between atoms: C_8  and  O_9
REMARK    6  A    between atoms: O_9  and  C_10
REMARK    7  A    between atoms: C_20  and  C_21
REMARK    8  A    between atoms: C_24  and  C_25
REMARK    9  A    between atoms: C_25  and  C_26
REMARK   10  A    between atoms: C_25  and  C_27
REMARK                            x       y       z     vdW  Elec       q    Type
REMARK                         _______ _______ _______ _____ _____    ______ ____
ROOT
ATOM      1  C   UNL     1       3.038   7.655  17.851  0.00  0.00    +0.000 C 
ATOM      2  C   UNL     1       2.155   7.772  19.066  0.00  0.00    +0.000 A 
ATOM      3  C   UNL     1       1.900   6.800  19.978  0.00  0.00    +0.000 A 
ATOM      4  C   UNL     1       0.992   7.223  21.088  0.00  0.00    +0.000 A 
ATOM      5  N   UNL     1       0.438   8.381  21.260  0.00  0.00    +0.000 NA
ATOM      6  C   UNL     1       0.701   9.320  20.302  0.00  0.00    +0.000 A 
ATOM      7  C   UNL     1       0.254  10.620  20.123  0.00  0.00    +0.000 A 
ATOM      8  C   UNL     1       0.900  11.050  18.948  0.00  0.00    +0.000 A 
ATOM      9  N   UNL     1       1.687  10.120  18.410  0.00  0.00    +0.000 NA
ATOM     10  N   UNL     1       1.555   9.040  19.225  0.00  0.00    +0.000 N 
ENDROOT
BRANCH   7  11
ATOM     11  C   UNL     1      -0.689  11.326  20.981  0.00  0.00    +0.000 A 
ATOM     12  C   UNL     1      -1.659  12.178  20.432  0.00  0.00    +0.000 A 
ATOM     13  C   UNL     1      -2.583  12.835  21.256  0.00  0.00    +0.000 A 
ATOM     14  C   UNL     1      -2.549  12.672  22.647  0.00  0.00    +0.000 A 
ATOM     15  C   UNL     1      -1.578  11.823  23.191  0.00  0.00    +0.000 A 
ATOM     16  C   UNL     1      -0.673  11.151  22.369  0.00  0.00    +0.000 A 
BRANCH  14  17
ATOM     17  C   UNL     1      -3.531  13.413  23.535  0.00  0.00    +0.000 C 
ATOM     18  C   UNL     1      -4.203  12.474  24.542  0.00  0.00    +0.000 C 
ATOM     19  C   UNL     1      -2.849  14.579  24.256  0.00  0.00    +0.000 C 
ENDBRANCH  14  17
ENDBRANCH   7  11
BRANCH   3  20
ATOM     20  C   UNL     1       2.437   5.408  19.873  0.00  0.00    +0.000 C 
ATOM     21  O   UNL     1       3.398   5.039  20.542  0.00  0.00    +0.000 OA
ATOM     22  N   UNL     1       1.823   4.561  18.983  0.00  0.00    +0.000 N 
ATOM     23  H   UNL     1       1.107   4.881  18.344  0.00  0.00    +0.000 HD
BRANCH  22  24
ATOM     24  C   UNL     1       2.293   3.186  18.835  0.00  0.00    +0.000 C 
BRANCH  24  25
ATOM     25  C   UNL     1       3.228   3.022  17.641  0.00  0.00    +0.000 C 
BRANCH  25  26
ATOM     26  O   UNL     1       4.587   3.210  18.040  0.00  0.00    +0.000 OA
BRANCH  26  27
ATOM     27  C   UNL     1       5.188   4.353  17.572  0.00  0.00    +0.000 A 
ATOM     28  C   UNL     1       4.948   4.643  16.225  0.00  0.00    +0.000 A 
ATOM     29  C   UNL     1       5.490   5.790  15.634  0.00  0.00    +0.000 A 
ATOM     30  C   UNL     1       6.298   6.648  16.379  0.00  0.00    +0.000 A 
ATOM     31  C   UNL     1       6.559   6.359  17.714  0.00  0.00    +0.000 A 
ATOM     32  C   UNL     1       6.003   5.227  18.305  0.00  0.00    +0.000 A 
ATOM     33  F   UNL     1       6.281   5.017  19.599  0.00  0.00    +0.000 F 
ENDBRANCH  26  27
ENDBRANCH  25  26
ENDBRANCH  24  25
ENDBRANCH  22  24
ENDBRANCH   3  20
TORSDOF 7
ENDMDL
MODEL 4
REMARK VINA RESULT:      -8.3      3.577      5.333
REMARK  Name = 
REMARK  10 active torsions:
REMARK  status: ('A' for Active; 'I' for Inactive)
REMARK    1  A    between atoms: C_1  and  C_2
REMARK    2  A    between atoms: C_3  and  C_4
REMARK    3  A    between atoms: N_6  and  C_7
REMARK    4  A    between atoms: C_7  and  C_8
REMARK    5  A    between atoms: C_8  and  O_9
REMARK    6  A    between atoms: O_9  and  C_10
REMARK    7  A    between atoms: C_20  and  C_21
REMARK    8  A    between atoms: C_24  and  C_25
REMARK    9  A    between atoms: C_25  and  C_26
REMARK   10  A    between atoms: C_25  and  C_27
REMARK                            x       y       z     vdW  Elec       q    Type
REMARK                         _______ _______ _______ _____ _____    ______ ____
ROOT
ATOM      1  C   UNL     1       0.408   8.727  21.344  0.00  0.00    +0.000 C 
ATOM      2  C   UNL     1       1.107   8.797  20.010  0.00  0.00    +0.000 A 
ATOM      3  C   UNL     1       1.052   9.821  19.121  0.00  0.00    +0.000 A 
ATOM      4  C   UNL     1       1.867   9.605  17.887  0.00  0.00    +0.000 A 
ATOM      5  N   UNL     1       2.592   8.574  17.586  0.00  0.00    +0.000 NA
ATOM      6  C   UNL     1       2.593   7.555  18.499  0.00  0.00    +0.000 A 
ATOM      7  C   UNL     1       3.189   6.304  18.498  0.00  0.00    +0.000 A 
ATOM      8  C   UNL     1       2.811   5.740  19.731  0.00  0.00    +0.000 A 
ATOM      9  N   UNL     1       2.039   6.541  20.462  0.00  0.00    +0.000 NA
ATOM     10  N   UNL     1       1.879   7.656  19.702  0.00  0.00    +0.000 N 
ENDROOT
BRANCH   7  11
ATOM     11  C   UNL     1       3.999   5.743  17.424  0.00  0.00    +0.000 A 
ATOM     12  C   UNL     1       3.972   4.368  17.148  0.00  0.00    +0.000 A 
ATOM     13  C   UNL     1       4.731   3.834  16.097  0.00  0.00    +0.000 A 
ATOM     14  C   UNL     1       5.548   4.656  15.312  0.00  0.00    +0.000 A 
ATOM     15  C   UNL     1       5.576   6.027  15.592  0.00  0.00    +0.000 A 
ATOM     16  C   UNL     1       4.802   6.562  16.622  0.00  0.00    +0.000 A 
BRANCH  14  17
ATOM     17  C   UNL     1       6.393   4.066  14.198  0.00  0.00    +0.000 C 
ATOM     18  C   UNL     1       5.533   3.615  13.013  0.00  0.00    +0.000 C 
ATOM     19  C   UNL     1       7.468   5.055  13.739  0.00  0.00    +0.000 C 
ENDBRANCH  14  17
ENDBRANCH   7  11
BRANCH   3  20
ATOM     20  C   UNL     1       0.220  11.047  19.324  0.00  0.00    +0.000 C 
ATOM     21  O   UNL     1      -0.856  11.194  18.750  0.00  0.00    +0.000 OA
ATOM     22  N   UNL     1       0.715  12.013  20.165  0.00  0.00    +0.000 N 
ATOM     23  H   UNL     1       1.647  11.958  20.554  0.00  0.00    +0.000 HD
BRANCH  22  24
ATOM     24  C   UNL     1      -0.050  13.233  20.412  0.00  0.00    +0.000 C 
BRANCH  24  25
ATOM     25  C   UNL     1       0.728  14.239  21.254  0.00  0.00    +0.000 C 
BRANCH  25  26
ATOM     26  O   UNL     1       2.109  14.238  20.887  0.00  0.00    +0.000 OA
BRANCH  26  27
ATOM     27  C   UNL     1       2.423  14.967  19.766  0.00  0.00    +0.000 A 
ATOM     28  C   UNL     1       2.159  16.338  19.854  0.00  0.00    +0.000 A 
ATOM     29  C   UNL     1       2.452  17.191  18.784  0.00  0.00    +0.000 A 
ATOM     30  C   UNL     1       2.992  16.679  17.606  0.00  0.00    +0.000 A 
ATOM     31  C   UNL     1       3.241  15.315  17.500  0.00  0.00    +0.000 A 
ATOM     32  C   UNL     1       2.966  14.471  18.573  0.00  0.00    +0.000 A 
ATOM     33  F   UNL     1       3.246  13.170  18.410  0.00  0.00    +0.000 F 
ENDBRANCH  26  27
ENDBRANCH  25  26
ENDBRANCH  24  25
ENDBRANCH  22  24
ENDBRANCH   3  20
TORSDOF 7
ENDMDL
MODEL 5
REMARK VINA RESULT:      -8.2      1.897      2.409
REMARK  Name = 
REMARK  10 active torsions:
REMARK  status: ('A' for Active; 'I' for Inactive)
REMARK    1  A    between atoms: C_1  and  C_2
REMARK    2  A    between atoms: C_3  and  C_4
REMARK    3  A    between atoms: N_6  and  C_7
REMARK    4  A    between atoms: C_7  and  C_8
REMARK    5  A    between atoms: C_8  and  O_9
REMARK    6  A    between atoms: O_9  and  C_10
REMARK    7  A    between atoms: C_20  and  C_21
REMARK    8  A    between atoms: C_24  and  C_25
REMARK    9  A    between atoms: C_25  and  C_26
REMARK   10  A    between atoms: C_25  and  C_27
REMARK                            x       y       z     vdW  Elec       q    Type
REMARK                         _______ _______ _______ _____ _____    ______ ____
ROOT
ATOM      1  C   UNL     1       0.367   8.544  21.554  0.00  0.00    +0.000 C 
ATOM      2  C   UNL     1       1.068   8.646  20.224  0.00  0.00    +0.000 A 
ATOM      3  C   UNL     1       1.028   9.698  19.367  0.00  0.00    +0.000 A 
ATOM      4  C   UNL     1       1.842   9.511  18.128  0.00  0.00    +0.000 A 
ATOM      5  N   UNL     1       2.554   8.481  17.796  0.00  0.00    +0.000 NA
ATOM      6  C   UNL     1       2.542   7.435  18.676  0.00  0.00    +0.000 A 
ATOM      7  C   UNL     1       3.123   6.176  18.637  0.00  0.00    +0.000 A 
ATOM      8  C   UNL     1       2.735   5.578  19.851  0.00  0.00    +0.000 A 
ATOM      9  N   UNL     1       1.972   6.366  20.606  0.00  0.00    +0.000 NA
ATOM     10  N   UNL     1       1.827   7.506  19.881  0.00  0.00    +0.000 N 
ENDROOT
BRANCH   7  11
ATOM     11  C   UNL     1       3.927   5.640  17.547  0.00  0.00    +0.000 A 
ATOM     12  C   UNL     1       3.908   4.269  17.249  0.00  0.00    +0.000 A 
ATOM     13  C   UNL     1       4.662   3.758  16.183  0.00  0.00    +0.000 A 
ATOM     14  C   UNL     1       5.466   4.599  15.404  0.00  0.00    +0.000 A 
ATOM     15  C   UNL     1       5.486   5.966  15.706  0.00  0.00    +0.000 A 
ATOM     16  C   UNL     1       4.717   6.478  16.752  0.00  0.00    +0.000 A 
BRANCH  14  17
ATOM     17  C   UNL     1       6.306   4.034  14.273  0.00  0.00    +0.000 C 
ATOM     18  C   UNL     1       5.440   3.604  13.085  0.00  0.00    +0.000 C 
ATOM     19  C   UNL     1       7.375   5.035  13.828  0.00  0.00    +0.000 C 
ENDBRANCH  14  17
ENDBRANCH   7  11
BRANCH   3  20
ATOM     20  C   UNL     1       0.210  10.927  19.607  0.00  0.00    +0.000 C 
ATOM     21  O   UNL     1      -0.824  11.143  18.980  0.00  0.00    +0.000 OA
ATOM     22  N   UNL     1       0.671  11.817  20.546  0.00  0.00    +0.000 N 
ATOM     23  H   UNL     1       1.575  11.711  20.987  0.00  0.00    +0.000 HD
BRANCH  22  24
ATOM     24  C   UNL     1      -0.082  13.036  20.834  0.00  0.00    +0.000 C 
BRANCH  24  25
ATOM     25  C   UNL     1      -0.847  12.942  22.150  0.00  0.00    +0.000 C 
BRANCH  25  26
ATOM     26  O   UNL     1      -1.909  11.992  22.047  0.00  0.00    +0.000 OA
BRANCH  26  27
ATOM     27  C   UNL     1      -3.176  12.520  22.037  0.00  0.00    +0.000 A 
ATOM     28  C   UNL     1      -3.707  12.768  20.766  0.00  0.00    +0.000 A 
ATOM     29  C   UNL     1      -4.998  13.289  20.621  0.00  0.00    +0.000 A 
ATOM     30  C   UNL     1      -5.763  13.589  21.747  0.00  0.00    +0.000 A 
ATOM     31  C   UNL     1      -5.239  13.364  23.015  0.00  0.00    +0.000 A 
ATOM     32  C   UNL     1      -3.961  12.828  23.156  0.00  0.00    +0.000 A 
ATOM     33  F   UNL     1      -3.523  12.621  24.406  0.00  0.00    +0.000 F 
ENDBRANCH  26  27
ENDBRANCH  25  26
ENDBRANCH  24  25
ENDBRANCH  22  24
ENDBRANCH   3  20
TORSDOF 7
ENDMDL
MODEL 6
REMARK VINA RESULT:      -8.2      4.491     11.033
REMARK  Name = 
REMARK  10 active torsions:
REMARK  status: ('A' for Active; 'I' for Inactive)
REMARK    1  A    between atoms: C_1  and  C_2
REMARK    2  A    between atoms: C_3  and  C_4
REMARK    3  A    between atoms: N_6  and  C_7
REMARK    4  A    between atoms: C_7  and  C_8
REMARK    5  A    between atoms: C_8  and  O_9
REMARK    6  A    between atoms: O_9  and  C_10
REMARK    7  A    between atoms: C_20  and  C_21
REMARK    8  A    between atoms: C_24  and  C_25
REMARK    9  A    between atoms: C_25  and  C_26
REMARK   10  A    between atoms: C_25  and  C_27
REMARK                            x       y       z     vdW  Elec       q    Type
REMARK                         _______ _______ _______ _____ _____    ______ ____
ROOT
ATOM      1  C   UNL     1       3.042   7.666  17.838  0.00  0.00    +0.000 C 
ATOM      2  C   UNL     1       2.146   7.782  19.044  0.00  0.00    +0.000 A 
ATOM      3  C   UNL     1       1.877   6.807  19.948  0.00  0.00    +0.000 A 
ATOM      4  C   UNL     1       0.960   7.228  21.051  0.00  0.00    +0.000 A 
ATOM      5  N   UNL     1       0.409   8.388  21.222  0.00  0.00    +0.000 NA
ATOM      6  C   UNL     1       0.685   9.330  20.271  0.00  0.00    +0.000 A 
ATOM      7  C   UNL     1       0.246  10.633  20.093  0.00  0.00    +0.000 A 
ATOM      8  C   UNL     1       0.906  11.065  18.927  0.00  0.00    +0.000 A 
ATOM      9  N   UNL     1       1.695  10.135  18.394  0.00  0.00    +0.000 NA
ATOM     10  N   UNL     1       1.549   9.052  19.202  0.00  0.00    +0.000 N 
ENDROOT
BRANCH   7  11
ATOM     11  C   UNL     1      -0.704  11.339  20.944  0.00  0.00    +0.000 A 
ATOM     12  C   UNL     1      -1.697  12.156  20.385  0.00  0.00    +0.000 A 
ATOM     13  C   UNL     1      -2.627  12.813  21.204  0.00  0.00    +0.000 A 
ATOM     14  C   UNL     1      -2.575  12.684  22.597  0.00  0.00    +0.000 A 
ATOM     15  C   UNL     1      -1.581  11.870  23.151  0.00  0.00    +0.000 A 
ATOM     16  C   UNL     1      -0.670  11.197  22.336  0.00  0.00    +0.000 A 
BRANCH  14  17
ATOM     17  C   UNL     1      -3.564  13.425  23.478  0.00  0.00    +0.000 C 
ATOM     18  C   UNL     1      -4.667  14.095  22.653  0.00  0.00    +0.000 C 
ATOM     19  C   UNL     1      -4.169  12.493  24.531  0.00  0.00    +0.000 C 
ENDBRANCH  14  17
ENDBRANCH   7  11
BRANCH   3  20
ATOM     20  C   UNL     1       2.410   5.413  19.843  0.00  0.00    +0.000 C 
ATOM     21  O   UNL     1       3.258   4.989  20.624  0.00  0.00    +0.000 OA
ATOM     22  N   UNL     1       1.926   4.629  18.824  0.00  0.00    +0.000 N 
ATOM     23  H   UNL     1       1.316   4.998  18.107  0.00  0.00    +0.000 HD
BRANCH  22  24
ATOM     24  C   UNL     1       2.399   3.256  18.667  0.00  0.00    +0.000 C 
BRANCH  24  25
ATOM     25  C   UNL     1       3.516   3.146  17.635  0.00  0.00    +0.000 C 
BRANCH  25  26
ATOM     26  O   UNL     1       4.793   3.287  18.261  0.00  0.00    +0.000 OA
BRANCH  26  27
ATOM     27  C   UNL     1       5.606   4.260  17.733  0.00  0.00    +0.000 A 
ATOM     28  C   UNL     1       5.930   5.302  18.608  0.00  0.00    +0.000 A 
ATOM     29  C   UNL     1       6.765   6.347  18.196  0.00  0.00    +0.000 A 
ATOM     30  C   UNL     1       7.269   6.370  16.896  0.00  0.00    +0.000 A 
ATOM     31  C   UNL     1       6.939   5.349  16.012  0.00  0.00    +0.000 A 
ATOM     32  C   UNL     1       6.121   4.302  16.431  0.00  0.00    +0.000 A 
ATOM     33  F   UNL     1       5.856   3.341  15.534  0.00  0.00    +0.000 F 
ENDBRANCH  26  27
ENDBRANCH  25  26
ENDBRANCH  24  25
ENDBRANCH  22  24
ENDBRANCH   3  20
TORSDOF 7
ENDMDL
MODEL 7
REMARK VINA RESULT:      -8.2      2.382      3.061
REMARK  Name = 
REMARK  10 active torsions:
REMARK  status: ('A' for Active; 'I' for Inactive)
REMARK    1  A    between atoms: C_1  and  C_2
REMARK    2  A    between atoms: C_3  and  C_4
REMARK    3  A    between atoms: N_6  and  C_7
REMARK    4  A    between atoms: C_7  and  C_8
REMARK    5  A    between atoms: C_8  and  O_9
REMARK    6  A    between atoms: O_9  and  C_10
REMARK    7  A    between atoms: C_20  and  C_21
REMARK    8  A    between atoms: C_24  and  C_25
REMARK    9  A    between atoms: C_25  and  C_26
REMARK   10  A    between atoms: C_25  and  C_27
REMARK                            x       y       z     vdW  Elec       q    Type
REMARK                         _______ _______ _______ _____ _____    ______ ____
ROOT
ATOM      1  C   UNL     1       0.207   9.129  21.523  0.00  0.00    +0.000 C 
ATOM      2  C   UNL     1       0.940   9.147  20.206  0.00  0.00    +0.000 A 
ATOM      3  C   UNL     1       0.968  10.166  19.310  0.00  0.00    +0.000 A 
ATOM      4  C   UNL     1       1.798   9.893  18.097  0.00  0.00    +0.000 A 
ATOM      5  N   UNL     1       2.465   8.818  17.819  0.00  0.00    +0.000 NA
ATOM      6  C   UNL     1       2.383   7.807  18.737  0.00  0.00    +0.000 A 
ATOM      7  C   UNL     1       2.903   6.522  18.758  0.00  0.00    +0.000 A 
ATOM      8  C   UNL     1       2.462   5.991  19.984  0.00  0.00    +0.000 A 
ATOM      9  N   UNL     1       1.723   6.842  20.692  0.00  0.00    +0.000 NA
ATOM     10  N   UNL     1       1.649   7.960  19.922  0.00  0.00    +0.000 N 
ENDROOT
BRANCH   7  11
ATOM     11  C   UNL     1       3.703   5.906  17.707  0.00  0.00    +0.000 A 
ATOM     12  C   UNL     1       4.584   6.676  16.933  0.00  0.00    +0.000 A 
ATOM     13  C   UNL     1       5.373   6.077  15.940  0.00  0.00    +0.000 A 
ATOM     14  C   UNL     1       5.287   4.703  15.685  0.00  0.00    +0.000 A 
ATOM     15  C   UNL     1       4.404   3.939  16.457  0.00  0.00    +0.000 A 
ATOM     16  C   UNL     1       3.636   4.530  17.461  0.00  0.00    +0.000 A 
BRANCH  14  17
ATOM     17  C   UNL     1       6.119   4.069  14.586  0.00  0.00    +0.000 C 
ATOM     18  C   UNL     1       5.278   3.767  13.341  0.00  0.00    +0.000 C 
ATOM     19  C   UNL     1       7.318   4.949  14.226  0.00  0.00    +0.000 C 
ENDBRANCH  14  17
ENDBRANCH   7  11
BRANCH   3  20
ATOM     20  C   UNL     1       0.207  11.441  19.485  0.00  0.00    +0.000 C 
ATOM     21  O   UNL     1       0.693  12.404  20.074  0.00  0.00    +0.000 OA
ATOM     22  N   UNL     1      -1.068  11.489  18.977  0.00  0.00    +0.000 N 
ATOM     23  H   UNL     1      -1.523  10.671  18.593  0.00  0.00    +0.000 HD
BRANCH  22  24
ATOM     24  C   UNL     1      -1.865  12.706  19.108  0.00  0.00    +0.000 C 
BRANCH  24  25
ATOM     25  C   UNL     1      -3.165  12.464  19.867  0.00  0.00    +0.000 C 
BRANCH  25  26
ATOM     26  O   UNL     1      -2.894  12.053  21.208  0.00  0.00    +0.000 OA
BRANCH  26  27
ATOM     27  C   UNL     1      -2.584  13.064  22.085  0.00  0.00    +0.000 A 
ATOM     28  C   UNL     1      -3.498  14.121  22.121  0.00  0.00    +0.000 A 
ATOM     29  C   UNL     1      -3.304  15.204  22.986  0.00  0.00    +0.000 A 
ATOM     30  C   UNL     1      -2.180  15.250  23.811  0.00  0.00    +0.000 A 
ATOM     31  C   UNL     1      -1.255  14.213  23.769  0.00  0.00    +0.000 A 
ATOM     32  C   UNL     1      -1.461  13.128  22.920  0.00  0.00    +0.000 A 
ATOM     33  F   UNL     1      -0.539  12.155  22.943  0.00  0.00    +0.000 F 
ENDBRANCH  26  27
ENDBRANCH  25  26
ENDBRANCH  24  25
ENDBRANCH  22  24
ENDBRANCH   3  20
TORSDOF 7
ENDMDL
MODEL 8
REMARK VINA RESULT:      -8.2      2.856      4.594
REMARK  Name = 
REMARK  10 active torsions:
REMARK  status: ('A' for Active; 'I' for Inactive)
REMARK    1  A    between atoms: C_1  and  C_2
REMARK    2  A    between atoms: C_3  and  C_4
REMARK    3  A    between atoms: N_6  and  C_7
REMARK    4  A    between atoms: C_7  and  C_8
REMARK    5  A    between atoms: C_8  and  O_9
REMARK    6  A    between atoms: O_9  and  C_10
REMARK    7  A    between atoms: C_20  and  C_21
REMARK    8  A    between atoms: C_24  and  C_25
REMARK    9  A    between atoms: C_25  and  C_26
REMARK   10  A    between atoms: C_25  and  C_27
REMARK                            x       y       z     vdW  Elec       q    Type
REMARK                         _______ _______ _______ _____ _____    ______ ____
ROOT
ATOM      1  C   UNL     1       0.769   8.174  21.467  0.00  0.00    +0.000 C 
ATOM      2  C   UNL     1       1.419   8.326  20.115  0.00  0.00    +0.000 A 
ATOM      3  C   UNL     1       1.352   9.410  19.303  0.00  0.00    +0.000 A 
ATOM      4  C   UNL     1       2.117   9.269  18.027  0.00  0.00    +0.000 A 
ATOM      5  N   UNL     1       2.810   8.249  17.628  0.00  0.00    +0.000 NA
ATOM      6  C   UNL     1       2.826   7.169  18.466  0.00  0.00    +0.000 A 
ATOM      7  C   UNL     1       3.398   5.911  18.356  0.00  0.00    +0.000 A 
ATOM      8  C   UNL     1       3.053   5.268  19.560  0.00  0.00    +0.000 A 
ATOM      9  N   UNL     1       2.324   6.029  20.373  0.00  0.00    +0.000 NA
ATOM     10  N   UNL     1       2.158   7.197  19.699  0.00  0.00    +0.000 N 
ENDROOT
BRANCH   7  11
ATOM     11  C   UNL     1       4.157   5.415  17.216  0.00  0.00    +0.000 A 
ATOM     12  C   UNL     1       4.866   6.297  16.387  0.00  0.00    +0.000 A 
ATOM     13  C   UNL     1       5.619   5.816  15.307  0.00  0.00    +0.000 A 
ATOM     14  C   UNL     1       5.665   4.446  15.018  0.00  0.00    +0.000 A 
ATOM     15  C   UNL     1       4.955   3.569  15.844  0.00  0.00    +0.000 A 
ATOM     16  C   UNL     1       4.225   4.045  16.934  0.00  0.00    +0.000 A 
BRANCH  14  17
ATOM     17  C   UNL     1       6.455   3.935  13.826  0.00  0.00    +0.000 C 
ATOM     18  C   UNL     1       5.536   3.550  12.662  0.00  0.00    +0.000 C 
ATOM     19  C   UNL     1       7.496   4.963  13.375  0.00  0.00    +0.000 C 
ENDBRANCH  14  17
ENDBRANCH   7  11
BRANCH   3  20
ATOM     20  C   UNL     1       0.551  10.632  19.621  0.00  0.00    +0.000 C 
ATOM     21  O   UNL     1       0.855  11.376  20.551  0.00  0.00    +0.000 OA
ATOM     22  N   UNL     1      -0.552  10.883  18.842  0.00  0.00    +0.000 N 
ATOM     23  H   UNL     1      -0.881  10.223  18.149  0.00  0.00    +0.000 HD
BRANCH  22  24
ATOM     24  C   UNL     1      -1.376  12.063  19.095  0.00  0.00    +0.000 C 
BRANCH  24  25
ATOM     25  C   UNL     1      -0.876  13.287  18.335  0.00  0.00    +0.000 C 
BRANCH  25  26
ATOM     26  O   UNL     1      -0.361  14.264  19.241  0.00  0.00    +0.000 OA
BRANCH  26  27
ATOM     27  C   UNL     1       0.825  14.849  18.869  0.00  0.00    +0.000 A 
ATOM     28  C   UNL     1       1.825  13.960  18.463  0.00  0.00    +0.000 A 
ATOM     29  C   UNL     1       3.074  14.433  18.044  0.00  0.00    +0.000 A 
ATOM     30  C   UNL     1       3.342  15.802  18.046  0.00  0.00    +0.000 A 
ATOM     31  C   UNL     1       2.361  16.694  18.465  0.00  0.00    +0.000 A 
ATOM     32  C   UNL     1       1.113  16.220  18.865  0.00  0.00    +0.000 A 
ATOM     33  F   UNL     1       0.208  17.135  19.241  0.00  0.00    +0.000 F 
ENDBRANCH  26  27
ENDBRANCH  25  26
ENDBRANCH  24  25
ENDBRANCH  22  24
ENDBRANCH   3  20
TORSDOF 7
ENDMDL
MODEL 9
REMARK VINA RESULT:      -8.1      4.530     11.233
REMARK  Name = 
REMARK  10 active torsions:
REMARK  status: ('A' for Active; 'I' for Inactive)
REMARK    1  A    between atoms: C_1  and  C_2
REMARK    2  A    between atoms: C_3  and  C_4
REMARK    3  A    between atoms: N_6  and  C_7
REMARK    4  A    between atoms: C_7  and  C_8
REMARK    5  A    between atoms: C_8  and  O_9
REMARK    6  A    between atoms: O_9  and  C_10
REMARK    7  A    between atoms: C_20  and  C_21
REMARK    8  A    between atoms: C_24  and  C_25
REMARK    9  A    between atoms: C_25  and  C_26
REMARK   10  A    between atoms: C_25  and  C_27
REMARK                            x       y       z     vdW  Elec       q    Type
REMARK                         _______ _______ _______ _____ _____    ______ ____
ROOT
ATOM      1  C   UNL     1       2.522   7.972  18.044  0.00  0.00    +0.000 C 
ATOM      2  C   UNL     1       1.738   8.250  19.301  0.00  0.00    +0.000 A 
ATOM      3  C   UNL     1       1.526   7.390  20.329  0.00  0.00    +0.000 A 
ATOM      4  C   UNL     1       0.720   7.961  21.450  0.00  0.00    +0.000 A 
ATOM      5  N   UNL     1       0.214   9.151  21.536  0.00  0.00    +0.000 NA
ATOM      6  C   UNL     1       0.429   9.972  20.465  0.00  0.00    +0.000 A 
ATOM      7  C   UNL     1       0.007  11.262  20.179  0.00  0.00    +0.000 A 
ATOM      8  C   UNL     1       0.572  11.540  18.920  0.00  0.00    +0.000 A 
ATOM      9  N   UNL     1       1.288  10.530  18.430  0.00  0.00    +0.000 NA
ATOM     10  N   UNL     1       1.188   9.549  19.364  0.00  0.00    +0.000 N 
ENDROOT
BRANCH   7  11
ATOM     11  C   UNL     1      -0.847  12.088  21.022  0.00  0.00    +0.000 A 
ATOM     12  C   UNL     1      -0.333  12.715  22.167  0.00  0.00    +0.000 A 
ATOM     13  C   UNL     1      -1.149  13.533  22.962  0.00  0.00    +0.000 A 
ATOM     14  C   UNL     1      -2.499  13.726  22.645  0.00  0.00    +0.000 A 
ATOM     15  C   UNL     1      -3.010  13.096  21.504  0.00  0.00    +0.000 A 
ATOM     16  C   UNL     1      -2.192  12.302  20.699  0.00  0.00    +0.000 A 
BRANCH  14  17
ATOM     17  C   UNL     1      -3.385  14.584  23.530  0.00  0.00    +0.000 C 
ATOM     18  C   UNL     1      -4.802  14.011  23.639  0.00  0.00    +0.000 C 
ATOM     19  C   UNL     1      -2.767  14.763  24.919  0.00  0.00    +0.000 C 
ENDBRANCH  14  17
ENDBRANCH   7  11
BRANCH   3  20
ATOM     20  C   UNL     1       2.014   5.976  20.337  0.00  0.00    +0.000 C 
ATOM     21  O   UNL     1       1.253   5.035  20.545  0.00  0.00    +0.000 OA
ATOM     22  N   UNL     1       3.355   5.771  20.119  0.00  0.00    +0.000 N 
ATOM     23  H   UNL     1       4.012   6.537  20.060  0.00  0.00    +0.000 HD
BRANCH  22  24
ATOM     24  C   UNL     1       3.897   4.414  20.107  0.00  0.00    +0.000 C 
BRANCH  24  25
ATOM     25  C   UNL     1       4.537   4.062  18.768  0.00  0.00    +0.000 C 
BRANCH  25  26
ATOM     26  O   UNL     1       5.962   4.116  18.864  0.00  0.00    +0.000 OA
BRANCH  26  27
ATOM     27  C   UNL     1       6.536   5.304  18.484  0.00  0.00    +0.000 A 
ATOM     28  C   UNL     1       5.880   5.977  17.449  0.00  0.00    +0.000 A 
ATOM     29  C   UNL     1       6.357   7.208  16.983  0.00  0.00    +0.000 A 
ATOM     30  C   UNL     1       7.508   7.768  17.534  0.00  0.00    +0.000 A 
ATOM     31  C   UNL     1       8.179   7.098  18.552  0.00  0.00    +0.000 A 
ATOM     32  C   UNL     1       7.692   5.882  19.025  0.00  0.00    +0.000 A 
ATOM     33  F   UNL     1       8.377   5.299  20.018  0.00  0.00    +0.000 F 
ENDBRANCH  26  27
ENDBRANCH  25  26
ENDBRANCH  24  25
ENDBRANCH  22  24
ENDBRANCH   3  20
TORSDOF 7
ENDMDL
