MODEL 1
REMARK VINA RESULT:      -8.7      0.000      0.000
REMARK  Name = 
REMARK  8 active torsions:
REMARK  status: ('A' for Active; 'I' for Inactive)
REMARK    1  A    between atoms: C_1  and  C_2
REMARK    2  A    between atoms: C_7  and  C_8
REMARK    3  A    between atoms: C_11  and  N_12
REMARK    4  A    between atoms: C_13  and  C_15
REMARK    5  A    between atoms: C_15  and  C_16
REMARK    6  A    between atoms: C_16  and  C_17
REMARK    7  A    between atoms: C_17  and  C_18
REMARK    8  A    between atoms: C_20  and  C_21
REMARK                            x       y       z     vdW  Elec       q    Type
REMARK                         _______ _______ _______ _____ _____    ______ ____
ROOT
ATOM      1  N   UNL     1      -0.522  11.293  21.475  0.00  0.00    +0.000 N 
ATOM      2  C   UNL     1      -0.930  11.248  22.798  0.00  0.00    +0.000 C 
ATOM      3  O   UNL     1      -0.593  10.407  23.627  0.00  0.00    +0.000 OA
ATOM      4  H   UNL     1      -0.732  12.137  20.951  0.00  0.00    +0.000 HD
ENDROOT
BRANCH   1   8
ATOM      5  C   UNL     1       1.840   8.414  19.413  0.00  0.00    +0.000 A 
ATOM      6  C   UNL     1       1.521   8.229  20.762  0.00  0.00    +0.000 A 
ATOM      7  C   UNL     1       0.745   9.169  21.453  0.00  0.00    +0.000 A 
ATOM      8  C   UNL     1       0.274  10.321  20.820  0.00  0.00    +0.000 A 
ATOM      9  C   UNL     1       0.589  10.516  19.471  0.00  0.00    +0.000 A 
ATOM     10  C   UNL     1       1.371   9.576  18.781  0.00  0.00    +0.000 A 
BRANCH   5  17
ATOM     11  C   UNL     1       5.955   4.069  15.143  0.00  0.00    +0.000 C 
ATOM     12  C   UNL     1       4.932   4.551  16.135  0.00  0.00    +0.000 A 
ATOM     13  C   UNL     1       4.073   3.643  16.780  0.00  0.00    +0.000 A 
ATOM     14  C   UNL     1       3.118   4.066  17.714  0.00  0.00    +0.000 A 
ATOM     15  C   UNL     1       3.076   5.437  17.959  0.00  0.00    +0.000 A 
ATOM     16  O   UNL     1       2.244   6.105  18.807  0.00  0.00    +0.000 OA
ATOM     17  C   UNL     1       2.608   7.425  18.657  0.00  0.00    +0.000 A 
ATOM     18  N   UNL     1       3.597   7.624  17.804  0.00  0.00    +0.000 NA
ATOM     19  C   UNL     1       3.897   6.364  17.350  0.00  0.00    +0.000 A 
ATOM     20  C   UNL     1       4.847   5.927  16.417  0.00  0.00    +0.000 A 
ENDBRANCH   5  17
ENDBRANCH   1   8
BRANCH   2  21
ATOM     21  C   UNL     1      -1.817  12.398  23.221  0.00  0.00    +0.000 C 
BRANCH  21  22
ATOM     22  C   UNL     1      -2.034  13.373  22.059  0.00  0.00    +0.000 C 
BRANCH  22  23
ATOM     23  C   UNL     1      -3.497  13.558  21.656  0.00  0.00    +0.000 C 
BRANCH  23  24
ATOM     24  C   UNL     1      -3.828  12.888  20.375  0.00  0.00    +0.000 A 
ATOM     25  N   UNL     1      -3.085  12.131  19.595  0.00  0.00    +0.000 NA
ATOM     26  C   UNL     1      -3.948  11.854  18.548  0.00  0.00    +0.000 A 
ATOM     27  N   UNL     1      -5.164  12.408  18.689  0.00  0.00    +0.000 NA
ATOM     28  O   UNL     1      -5.084  13.092  19.893  0.00  0.00    +0.000 OA
BRANCH  26  29
ATOM     29  C   UNL     1      -3.551  11.077  17.377  0.00  0.00    +0.000 A 
ATOM     30  C   UNL     1      -2.411  10.261  17.406  0.00  0.00    +0.000 A 
ATOM     31  C   UNL     1      -1.998   9.573  16.260  0.00  0.00    +0.000 A 
ATOM     32  C   UNL     1      -2.723   9.689  15.075  0.00  0.00    +0.000 A 
ATOM     33  C   UNL     1      -3.872  10.475  15.037  0.00  0.00    +0.000 A 
ATOM     34  C   UNL     1      -4.285  11.160  16.181  0.00  0.00    +0.000 A 
ENDBRANCH  26  29
ENDBRANCH  23  24
ENDBRANCH  22  23
ENDBRANCH  21  22
ENDBRANCH   2  21
TORSDOF 7
ENDMDL
MODEL 2
REMARK VINA RESULT:      -8.6      1.136      1.456
REMARK  Name = 
REMARK  8 active torsions:
REMARK  status: ('A' for Active; 'I' for Inactive)
REMARK    1  A    between atoms: C_1  and  C_2
REMARK    2  A    between atoms: C_7  and  C_8
REMARK    3  A    between atoms: C_11  and  N_12
REMARK    4  A    between atoms: C_13  and  C_15
REMARK    5  A    between atoms: C_15  and  C_16
REMARK    6  A    between atoms: C_16  and  C_17
REMARK    7  A    between atoms: C_17  and  C_18
REMARK    8  A    between atoms: C_20  and  C_21
REMARK                            x       y       z     vdW  Elec       q    Type
REMARK                         _______ _______ _______ _____ _____    ______ ____
ROOT
ATOM      1  N   UNL     1      -1.030  11.184  22.373  0.00  0.00    +0.000 N 
ATOM      2  C   UNL     1      -0.785  12.526  22.614  0.00  0.00    +0.000 C 
ATOM      3  O   UNL     1       0.137  13.185  22.145  0.00  0.00    +0.000 OA
ATOM      4  H   UNL     1      -1.923  10.810  22.681  0.00  0.00    +0.000 HD
ENDROOT
BRANCH   1   8
ATOM      5  C   UNL     1       1.411   8.601  20.031  0.00  0.00    +0.000 A 
ATOM      6  C   UNL     1       1.308   8.412  21.412  0.00  0.00    +0.000 A 
ATOM      7  C   UNL     1       0.508   9.255  22.195  0.00  0.00    +0.000 A 
ATOM      8  C   UNL     1      -0.202  10.313  21.623  0.00  0.00    +0.000 A 
ATOM      9  C   UNL     1      -0.104  10.511  20.242  0.00  0.00    +0.000 A 
ATOM     10  C   UNL     1       0.703   9.669  19.459  0.00  0.00    +0.000 A 
BRANCH   5  17
ATOM     11  C   UNL     1       5.301   3.546  16.374  0.00  0.00    +0.000 C 
ATOM     12  C   UNL     1       4.705   4.856  16.813  0.00  0.00    +0.000 A 
ATOM     13  C   UNL     1       5.047   6.054  16.160  0.00  0.00    +0.000 A 
ATOM     14  C   UNL     1       4.499   7.286  16.544  0.00  0.00    +0.000 A 
ATOM     15  C   UNL     1       3.601   7.244  17.608  0.00  0.00    +0.000 A 
ATOM     16  O   UNL     1       2.938   8.290  18.178  0.00  0.00    +0.000 OA
ATOM     17  C   UNL     1       2.202   7.707  19.185  0.00  0.00    +0.000 A 
ATOM     18  N   UNL     1       2.343   6.396  19.274  0.00  0.00    +0.000 NA
ATOM     19  C   UNL     1       3.237   6.094  18.278  0.00  0.00    +0.000 A 
ATOM     20  C   UNL     1       3.794   4.869  17.884  0.00  0.00    +0.000 A 
ENDBRANCH   5  17
ENDBRANCH   1   8
BRANCH   2  21
ATOM     21  C   UNL     1      -1.816  13.204  23.491  0.00  0.00    +0.000 C 
BRANCH  21  22
ATOM     22  C   UNL     1      -3.226  12.711  23.153  0.00  0.00    +0.000 C 
BRANCH  22  23
ATOM     23  C   UNL     1      -3.963  13.569  22.122  0.00  0.00    +0.000 C 
BRANCH  23  24
ATOM     24  C   UNL     1      -4.210  12.850  20.849  0.00  0.00    +0.000 A 
ATOM     25  N   UNL     1      -3.363  12.295  20.008  0.00  0.00    +0.000 NA
ATOM     26  C   UNL     1      -4.203  11.830  19.010  0.00  0.00    +0.000 A 
ATOM     27  N   UNL     1      -5.503  12.082  19.238  0.00  0.00    +0.000 NA
ATOM     28  O   UNL     1      -5.508  12.756  20.450  0.00  0.00    +0.000 OA
BRANCH  26  29
ATOM     29  C   UNL     1      -3.711  11.178  17.799  0.00  0.00    +0.000 A 
ATOM     30  C   UNL     1      -2.642  10.273  17.852  0.00  0.00    +0.000 A 
ATOM     31  C   UNL     1      -2.132   9.704  16.680  0.00  0.00    +0.000 A 
ATOM     32  C   UNL     1      -2.689  10.029  15.444  0.00  0.00    +0.000 A 
ATOM     33  C   UNL     1      -3.768  10.906  15.378  0.00  0.00    +0.000 A 
ATOM     34  C   UNL     1      -4.279  11.472  16.548  0.00  0.00    +0.000 A 
ENDBRANCH  26  29
ENDBRANCH  23  24
ENDBRANCH  22  23
ENDBRANCH  21  22
ENDBRANCH   2  21
TORSDOF 7
ENDMDL
MODEL 3
REMARK VINA RESULT:      -8.5      3.971     10.495
REMARK  Name = 
REMARK  8 active torsions:
REMARK  status: ('A' for Active; 'I' for Inactive)
REMARK    1  A    between atoms: C_1  and  C_2
REMARK    2  A    between atoms: C_7  and  C_8
REMARK    3  A    between atoms: C_11  and  N_12
REMARK    4  A    between atoms: C_13  and  C_15
REMARK    5  A    between atoms: C_15  and  C_16
REMARK    6  A    between atoms: C_16  and  C_17
REMARK    7  A    between atoms: C_17  and  C_18
REMARK    8  A    between atoms: C_20  and  C_21
REMARK                            x       y       z     vdW  Elec       q    Type
REMARK                         _______ _______ _______ _____ _____    ______ ____
ROOT
ATOM      1  N   UNL     1       3.949   6.040  17.701  0.00  0.00    +0.000 N 
ATOM      2  C   UNL     1       4.518   4.967  18.369  0.00  0.00    +0.000 C 
ATOM      3  O   UNL     1       4.297   4.645  19.532  0.00  0.00    +0.000 OA
ATOM      4  H   UNL     1       4.082   6.087  16.696  0.00  0.00    +0.000 HD
ENDROOT
BRANCH   1   8
ATOM      5  C   UNL     1       1.342   8.887  19.493  0.00  0.00    +0.000 A 
ATOM      6  C   UNL     1       1.844   9.104  18.206  0.00  0.00    +0.000 A 
ATOM      7  C   UNL     1       2.703   8.175  17.605  0.00  0.00    +0.000 A 
ATOM      8  C   UNL     1       3.091   7.011  18.273  0.00  0.00    +0.000 A 
ATOM      9  C   UNL     1       2.595   6.787  19.561  0.00  0.00    +0.000 A 
ATOM     10  C   UNL     1       1.738   7.721  20.166  0.00  0.00    +0.000 A 
BRANCH   5  17
ATOM     11  C   UNL     1      -3.284  14.026  21.993  0.00  0.00    +0.000 C 
ATOM     12  C   UNL     1      -2.340  12.856  21.926  0.00  0.00    +0.000 A 
ATOM     13  C   UNL     1      -1.997  12.144  23.090  0.00  0.00    +0.000 A 
ATOM     14  C   UNL     1      -1.128  11.045  23.052  0.00  0.00    +0.000 A 
ATOM     15  C   UNL     1      -0.630  10.708  21.796  0.00  0.00    +0.000 A 
ATOM     16  O   UNL     1       0.231   9.698  21.485  0.00  0.00    +0.000 OA
ATOM     17  C   UNL     1       0.406   9.818  20.125  0.00  0.00    +0.000 A 
ATOM     18  N   UNL     1      -0.281  10.802  19.571  0.00  0.00    +0.000 NA
ATOM     19  C   UNL     1      -0.938  11.378  20.629  0.00  0.00    +0.000 A 
ATOM     20  C   UNL     1      -1.808  12.476  20.681  0.00  0.00    +0.000 A 
ENDBRANCH   5  17
ENDBRANCH   1   8
BRANCH   2  21
ATOM     21  C   UNL     1       5.436   4.115  17.521  0.00  0.00    +0.000 C 
BRANCH  21  22
ATOM     22  C   UNL     1       6.635   4.931  17.030  0.00  0.00    +0.000 C 
BRANCH  22  23
ATOM     23  C   UNL     1       7.522   5.484  18.147  0.00  0.00    +0.000 C 
BRANCH  23  24
ATOM     24  C   UNL     1       7.731   6.948  18.043  0.00  0.00    +0.000 A 
ATOM     25  N   UNL     1       8.550   7.739  18.704  0.00  0.00    +0.000 NA
ATOM     26  C   UNL     1       8.241   8.983  18.182  0.00  0.00    +0.000 A 
ATOM     27  N   UNL     1       7.284   8.951  17.239  0.00  0.00    +0.000 NA
ATOM     28  O   UNL     1       6.945   7.608  17.149  0.00  0.00    +0.000 OA
BRANCH  26  29
ATOM     29  C   UNL     1       8.861  10.218  18.653  0.00  0.00    +0.000 A 
ATOM     30  C   UNL     1       8.973  11.335  17.813  0.00  0.00    +0.000 A 
ATOM     31  C   UNL     1       9.630  12.491  18.249  0.00  0.00    +0.000 A 
ATOM     32  C   UNL     1      10.176  12.545  19.530  0.00  0.00    +0.000 A 
ATOM     33  C   UNL     1      10.050  11.453  20.386  0.00  0.00    +0.000 A 
ATOM     34  C   UNL     1       9.393  10.300  19.952  0.00  0.00    +0.000 A 
ENDBRANCH  26  29
ENDBRANCH  23  24
ENDBRANCH  22  23
ENDBRANCH  21  22
ENDBRANCH   2  21
TORSDOF 7
ENDMDL
MODEL 4
REMARK VINA RESULT:      -8.5      3.590     10.425
REMARK  Name = 
REMARK  8 active torsions:
REMARK  status: ('A' for Active; 'I' for Inactive)
REMARK    1  A    between atoms: C_1  and  C_2
REMARK    2  A    between atoms: C_7  and  C_8
REMARK    3  A    between atoms: C_11  and  N_12
REMARK    4  A    between atoms: C_13  and  C_15
REMARK    5  A    between atoms: C_15  and  C_16
REMARK    6  A    between atoms: C_16  and  C_17
REMARK    7  A    between atoms: C_17  and  C_18
REMARK    8  A    between atoms: C_20  and  C_21
REMARK                            x       y       z     vdW  Elec       q    Type
REMARK                         _______ _______ _______ _____ _____    ______ ____
ROOT
ATOM      1  N   UNL     1       3.647   6.641  18.112  0.00  0.00    +0.000 N 
ATOM      2  C   UNL     1       3.376   5.302  17.883  0.00  0.00    +0.000 C 
ATOM      3  O   UNL     1       2.273   4.768  17.955  0.00  0.00    +0.000 OA
ATOM      4  H   UNL     1       4.566   6.983  17.846  0.00  0.00    +0.000 HD
ENDROOT
BRANCH   1   8
ATOM      5  C   UNL     1       0.830   9.482  19.563  0.00  0.00    +0.000 A 
ATOM      6  C   UNL     1       1.339   9.594  18.266  0.00  0.00    +0.000 A 
ATOM      7  C   UNL     1       2.267   8.665  17.776  0.00  0.00    +0.000 A 
ATOM      8  C   UNL     1       2.718   7.608  18.568  0.00  0.00    +0.000 A 
ATOM      9  C   UNL     1       2.216   7.489  19.868  0.00  0.00    +0.000 A 
ATOM     10  C   UNL     1       1.290   8.423  20.361  0.00  0.00    +0.000 A 
BRANCH   5  17
ATOM     11  C   UNL     1      -4.288  14.429  21.404  0.00  0.00    +0.000 C 
ATOM     12  C   UNL     1      -3.180  13.414  21.484  0.00  0.00    +0.000 A 
ATOM     13  C   UNL     1      -2.612  13.068  22.723  0.00  0.00    +0.000 A 
ATOM     14  C   UNL     1      -1.585  12.119  22.825  0.00  0.00    +0.000 A 
ATOM     15  C   UNL     1      -1.168  11.547  21.625  0.00  0.00    +0.000 A 
ATOM     16  O   UNL     1      -0.191  10.613  21.444  0.00  0.00    +0.000 OA
ATOM     17  C   UNL     1      -0.176  10.410  20.082  0.00  0.00    +0.000 A 
ATOM     18  N   UNL     1      -1.064  11.124  19.413  0.00  0.00    +0.000 NA
ATOM     19  C   UNL     1      -1.696  11.856  20.387  0.00  0.00    +0.000 A 
ATOM     20  C   UNL     1      -2.721  12.807  20.300  0.00  0.00    +0.000 A 
ENDBRANCH   5  17
ENDBRANCH   1   8
BRANCH   2  21
ATOM     21  C   UNL     1       4.573   4.485  17.445  0.00  0.00    +0.000 C 
BRANCH  21  22
ATOM     22  C   UNL     1       5.705   4.588  18.471  0.00  0.00    +0.000 C 
BRANCH  22  23
ATOM     23  C   UNL     1       7.071   4.925  17.871  0.00  0.00    +0.000 C 
BRANCH  23  24
ATOM     24  C   UNL     1       7.305   6.385  17.760  0.00  0.00    +0.000 A 
ATOM     25  N   UNL     1       8.171   7.156  18.381  0.00  0.00    +0.000 NA
ATOM     26  C   UNL     1       7.863   8.409  17.877  0.00  0.00    +0.000 A 
ATOM     27  N   UNL     1       6.860   8.399  16.982  0.00  0.00    +0.000 NA
ATOM     28  O   UNL     1       6.491   7.064  16.906  0.00  0.00    +0.000 OA
BRANCH  26  29
ATOM     29  C   UNL     1       8.530   9.629  18.321  0.00  0.00    +0.000 A 
ATOM     30  C   UNL     1       9.154   9.695  19.575  0.00  0.00    +0.000 A 
ATOM     31  C   UNL     1       9.731  10.888  20.021  0.00  0.00    +0.000 A 
ATOM     32  C   UNL     1       9.697  12.026  19.218  0.00  0.00    +0.000 A 
ATOM     33  C   UNL     1       9.105  11.970  17.959  0.00  0.00    +0.000 A 
ATOM     34  C   UNL     1       8.530  10.779  17.512  0.00  0.00    +0.000 A 
ENDBRANCH  26  29
ENDBRANCH  23  24
ENDBRANCH  22  23
ENDBRANCH  21  22
ENDBRANCH   2  21
TORSDOF 7
ENDMDL
MODEL 5
REMARK VINA RESULT:      -8.4      3.089      9.860
REMARK  Name = 
REMARK  8 active torsions:
REMARK  status: ('A' for Active; 'I' for Inactive)
REMARK    1  A    between atoms: C_1  and  C_2
REMARK    2  A    between atoms: C_7  and  C_8
REMARK    3  A    between atoms: C_11  and  N_12
REMARK    4  A    between atoms: C_13  and  C_15
REMARK    5  A    between atoms: C_15  and  C_16
REMARK    6  A    between atoms: C_16  and  C_17
REMARK    7  A    between atoms: C_17  and  C_18
REMARK    8  A    between atoms: C_20  and  C_21
REMARK                            x       y       z     vdW  Elec       q    Type
REMARK                         _______ _______ _______ _____ _____    ______ ____
ROOT
ATOM      1  N   UNL     1       3.774   6.630  17.226  0.00  0.00    +0.000 N 
ATOM      2  C   UNL     1       5.069   6.969  16.867  0.00  0.00    +0.000 C 
ATOM      3  O   UNL     1       5.698   7.941  17.275  0.00  0.00    +0.000 OA
ATOM      4  H   UNL     1       3.441   5.711  16.954  0.00  0.00    +0.000 HD
ENDROOT
BRANCH   1   8
ATOM      5  C   UNL     1       1.201   9.024  19.627  0.00  0.00    +0.000 A 
ATOM      6  C   UNL     1       1.761   7.852  20.146  0.00  0.00    +0.000 A 
ATOM      7  C   UNL     1       2.609   7.055  19.366  0.00  0.00    +0.000 A 
ATOM      8  C   UNL     1       2.915   7.400  18.047  0.00  0.00    +0.000 A 
ATOM      9  C   UNL     1       2.358   8.569  17.519  0.00  0.00    +0.000 A 
ATOM     10  C   UNL     1       1.503   9.365  18.300  0.00  0.00    +0.000 A 
BRANCH   5  17
ATOM     11  C   UNL     1      -3.097  12.809  24.238  0.00  0.00    +0.000 C 
ATOM     12  C   UNL     1      -2.363  12.360  23.003  0.00  0.00    +0.000 A 
ATOM     13  C   UNL     1      -2.512  13.053  21.788  0.00  0.00    +0.000 A 
ATOM     14  C   UNL     1      -1.833  12.660  20.627  0.00  0.00    +0.000 A 
ATOM     15  C   UNL     1      -1.007  11.545  20.755  0.00  0.00    +0.000 A 
ATOM     16  O   UNL     1      -0.249  10.956  19.788  0.00  0.00    +0.000 OA
ATOM     17  C   UNL     1       0.350   9.898  20.435  0.00  0.00    +0.000 A 
ATOM     18  N   UNL     1       0.038   9.794  21.715  0.00  0.00    +0.000 NA
ATOM     19  C   UNL     1      -0.831  10.835  21.926  0.00  0.00    +0.000 A 
ATOM     20  C   UNL     1      -1.518  11.238  23.079  0.00  0.00    +0.000 A 
ENDBRANCH   5  17
ENDBRANCH   1   8
BRANCH   2  21
ATOM     21  C   UNL     1       5.740   5.983  15.936  0.00  0.00    +0.000 C 
BRANCH  21  22
ATOM     22  C   UNL     1       7.197   5.752  16.349  0.00  0.00    +0.000 C 
BRANCH  22  23
ATOM     23  C   UNL     1       7.413   4.534  17.249  0.00  0.00    +0.000 C 
BRANCH  23  24
ATOM     24  C   UNL     1       6.285   4.304  18.183  0.00  0.00    +0.000 A 
ATOM     25  N   UNL     1       5.092   3.791  17.966  0.00  0.00    +0.000 NA
ATOM     26  C   UNL     1       4.500   3.886  19.215  0.00  0.00    +0.000 A 
ATOM     27  N   UNL     1       5.300   4.424  20.151  0.00  0.00    +0.000 NA
ATOM     28  O   UNL     1       6.476   4.702  19.471  0.00  0.00    +0.000 OA
BRANCH  26  29
ATOM     29  C   UNL     1       3.119   3.488  19.470  0.00  0.00    +0.000 A 
ATOM     30  C   UNL     1       2.590   3.513  20.769  0.00  0.00    +0.000 A 
ATOM     31  C   UNL     1       1.288   3.065  21.016  0.00  0.00    +0.000 A 
ATOM     32  C   UNL     1       0.499   2.594  19.968  0.00  0.00    +0.000 A 
ATOM     33  C   UNL     1       1.000   2.588  18.669  0.00  0.00    +0.000 A 
ATOM     34  C   UNL     1       2.300   3.036  18.421  0.00  0.00    +0.000 A 
ENDBRANCH  26  29
ENDBRANCH  23  24
ENDBRANCH  22  23
ENDBRANCH  21  22
ENDBRANCH   2  21
TORSDOF 7
ENDMDL
MODEL 6
REMARK VINA RESULT:      -8.4      4.005     10.487
REMARK  Name = 
REMARK  8 active torsions:
REMARK  status: ('A' for Active; 'I' for Inactive)
REMARK    1  A    between atoms: C_1  and  C_2
REMARK    2  A    between atoms: C_7  and  C_8
REMARK    3  A    between atoms: C_11  and  N_12
REMARK    4  A    between atoms: C_13  and  C_15
REMARK    5  A    between atoms: C_15  and  C_16
REMARK    6  A    between atoms: C_16  and  C_17
REMARK    7  A    between atoms: C_17  and  C_18
REMARK    8  A    between atoms: C_20  and  C_21
REMARK                            x       y       z     vdW  Elec       q    Type
REMARK                         _______ _______ _______ _____ _____    ______ ____
ROOT
ATOM      1  N   UNL     1       3.471   5.961  18.110  0.00  0.00    +0.000 N 
ATOM      2  C   UNL     1       4.532   5.290  18.695  0.00  0.00    +0.000 C 
ATOM      3  O   UNL     1       4.897   5.399  19.862  0.00  0.00    +0.000 OA
ATOM      4  H   UNL     1       3.170   5.646  17.192  0.00  0.00    +0.000 HD
ENDROOT
BRANCH   1   8
ATOM      5  C   UNL     1       1.136   9.045  19.886  0.00  0.00    +0.000 A 
ATOM      6  C   UNL     1       1.440   7.886  20.607  0.00  0.00    +0.000 A 
ATOM      7  C   UNL     1       2.207   6.863  20.035  0.00  0.00    +0.000 A 
ATOM      8  C   UNL     1       2.684   6.964  18.726  0.00  0.00    +0.000 A 
ATOM      9  C   UNL     1       2.384   8.119  17.995  0.00  0.00    +0.000 A 
ATOM     10  C   UNL     1       1.610   9.141  18.568  0.00  0.00    +0.000 A 
BRANCH   5  17
ATOM     11  C   UNL     1      -2.395  14.329  23.581  0.00  0.00    +0.000 C 
ATOM     12  C   UNL     1      -1.969  13.377  22.497  0.00  0.00    +0.000 A 
ATOM     13  C   UNL     1      -2.623  13.368  21.252  0.00  0.00    +0.000 A 
ATOM     14  C   UNL     1      -2.239  12.497  20.222  0.00  0.00    +0.000 A 
ATOM     15  C   UNL     1      -1.174  11.647  20.514  0.00  0.00    +0.000 A 
ATOM     16  O   UNL     1      -0.614  10.707  19.702  0.00  0.00    +0.000 OA
ATOM     17  C   UNL     1       0.378  10.148  20.476  0.00  0.00    +0.000 A 
ATOM     18  N   UNL     1       0.485  10.669  21.686  0.00  0.00    +0.000 NA
ATOM     19  C   UNL     1      -0.504  11.620  21.721  0.00  0.00    +0.000 A 
ATOM     20  C   UNL     1      -0.900  12.496  22.741  0.00  0.00    +0.000 A 
ENDBRANCH   5  17
ENDBRANCH   1   8
BRANCH   2  21
ATOM     21  C   UNL     1       5.227   4.300  17.786  0.00  0.00    +0.000 C 
BRANCH  21  22
ATOM     22  C   UNL     1       6.466   4.930  17.142  0.00  0.00    +0.000 C 
BRANCH  22  23
ATOM     23  C   UNL     1       7.496   5.460  18.141  0.00  0.00    +0.000 C 
BRANCH  23  24
ATOM     24  C   UNL     1       7.723   6.920  18.012  0.00  0.00    +0.000 A 
ATOM     25  N   UNL     1       8.538   7.714  18.672  0.00  0.00    +0.000 NA
ATOM     26  C   UNL     1       8.254   8.952  18.119  0.00  0.00    +0.000 A 
ATOM     27  N   UNL     1       7.315   8.910  17.158  0.00  0.00    +0.000 NA
ATOM     28  O   UNL     1       6.964   7.570  17.089  0.00  0.00    +0.000 OA
BRANCH  26  29
ATOM     29  C   UNL     1       8.878  10.189  18.578  0.00  0.00    +0.000 A 
ATOM     30  C   UNL     1       9.490  10.263  19.837  0.00  0.00    +0.000 A 
ATOM     31  C   UNL     1      10.026  11.470  20.299  0.00  0.00    +0.000 A 
ATOM     32  C   UNL     1       9.960  12.614  19.505  0.00  0.00    +0.000 A 
ATOM     33  C   UNL     1       9.379  12.550  18.241  0.00  0.00    +0.000 A 
ATOM     34  C   UNL     1       8.846  11.345  17.779  0.00  0.00    +0.000 A 
ENDBRANCH  26  29
ENDBRANCH  23  24
ENDBRANCH  22  23
ENDBRANCH  21  22
ENDBRANCH   2  21
TORSDOF 7
ENDMDL
MODEL 7
REMARK VINA RESULT:      -8.4      1.725      2.624
REMARK  Name = 
REMARK  8 active torsions:
REMARK  status: ('A' for Active; 'I' for Inactive)
REMARK    1  A    between atoms: C_1  and  C_2
REMARK    2  A    between atoms: C_7  and  C_8
REMARK    3  A    between atoms: C_11  and  N_12
REMARK    4  A    between atoms: C_13  and  C_15
REMARK    5  A    between atoms: C_15  and  C_16
REMARK    6  A    between atoms: C_16  and  C_17
REMARK    7  A    between atoms: C_17  and  C_18
REMARK    8  A    between atoms: C_20  and  C_21
REMARK                            x       y       z     vdW  Elec       q    Type
REMARK                         _______ _______ _______ _____ _____    ______ ____
ROOT
ATOM      1  N   UNL     1      -2.610  13.086  21.830  0.00  0.00    +0.000 N 
ATOM      2  C   UNL     1      -3.552  12.876  22.824  0.00  0.00    +0.000 C 
ATOM      3  O   UNL     1      -3.657  11.866  23.514  0.00  0.00    +0.000 OA
ATOM      4  H   UNL     1      -2.524  14.029  21.462  0.00  0.00    +0.000 HD
ENDROOT
BRANCH   1   8
ATOM      5  C   UNL     1       0.176  10.232  20.344  0.00  0.00    +0.000 A 
ATOM      6  C   UNL     1       0.034  10.427  21.721  0.00  0.00    +0.000 A 
ATOM      7  C   UNL     1      -0.879  11.364  22.224  0.00  0.00    +0.000 A 
ATOM      8  C   UNL     1      -1.668  12.135  21.367  0.00  0.00    +0.000 A 
ATOM      9  C   UNL     1      -1.531  11.948  19.988  0.00  0.00    +0.000 A 
ATOM     10  C   UNL     1      -0.612  11.013  19.485  0.00  0.00    +0.000 A 
BRANCH   5  17
ATOM     11  C   UNL     1       4.634   5.541  16.855  0.00  0.00    +0.000 C 
ATOM     12  C   UNL     1       3.746   6.174  17.892  0.00  0.00    +0.000 A 
ATOM     13  C   UNL     1       3.477   5.514  19.105  0.00  0.00    +0.000 A 
ATOM     14  C   UNL     1       2.661   6.086  20.091  0.00  0.00    +0.000 A 
ATOM     15  C   UNL     1       2.136   7.341  19.789  0.00  0.00    +0.000 A 
ATOM     16  O   UNL     1       1.314   8.106  20.562  0.00  0.00    +0.000 OA
ATOM     17  C   UNL     1       1.087   9.227  19.795  0.00  0.00    +0.000 A 
ATOM     18  N   UNL     1       1.707   9.225  18.628  0.00  0.00    +0.000 NA
ATOM     19  C   UNL     1       2.372   8.024  18.613  0.00  0.00    +0.000 A 
ATOM     20  C   UNL     1       3.190   7.440  17.636  0.00  0.00    +0.000 A 
ENDBRANCH   5  17
ENDBRANCH   1   8
BRANCH   2  21
ATOM     21  C   UNL     1      -4.466  14.053  23.082  0.00  0.00    +0.000 C 
BRANCH  21  22
ATOM     22  C   UNL     1      -5.444  14.247  21.919  0.00  0.00    +0.000 C 
BRANCH  22  23
ATOM     23  C   UNL     1      -6.423  13.088  21.719  0.00  0.00    +0.000 C 
BRANCH  23  24
ATOM     24  C   UNL     1      -6.129  12.292  20.503  0.00  0.00    +0.000 A 
ATOM     25  N   UNL     1      -5.011  12.167  19.820  0.00  0.00    +0.000 NA
ATOM     26  C   UNL     1      -5.392  11.329  18.785  0.00  0.00    +0.000 A 
ATOM     27  N   UNL     1      -6.681  10.954  18.841  0.00  0.00    +0.000 NA
ATOM     28  O   UNL     1      -7.168  11.591  19.974  0.00  0.00    +0.000 OA
BRANCH  26  29
ATOM     29  C   UNL     1      -4.489  10.937  17.707  0.00  0.00    +0.000 A 
ATOM     30  C   UNL     1      -4.502  11.608  16.475  0.00  0.00    +0.000 A 
ATOM     31  C   UNL     1      -3.683  11.184  15.424  0.00  0.00    +0.000 A 
ATOM     32  C   UNL     1      -2.838  10.088  15.593  0.00  0.00    +0.000 A 
ATOM     33  C   UNL     1      -2.793   9.428  16.818  0.00  0.00    +0.000 A 
ATOM     34  C   UNL     1      -3.610   9.852  17.869  0.00  0.00    +0.000 A 
ENDBRANCH  26  29
ENDBRANCH  23  24
ENDBRANCH  22  23
ENDBRANCH  21  22
ENDBRANCH   2  21
TORSDOF 7
ENDMDL
MODEL 8
REMARK VINA RESULT:      -8.3      1.781      2.592
REMARK  Name = 
REMARK  8 active torsions:
REMARK  status: ('A' for Active; 'I' for Inactive)
REMARK    1  A    between atoms: C_1  and  C_2
REMARK    2  A    between atoms: C_7  and  C_8
REMARK    3  A    between atoms: C_11  and  N_12
REMARK    4  A    between atoms: C_13  and  C_15
REMARK    5  A    between atoms: C_15  and  C_16
REMARK    6  A    between atoms: C_16  and  C_17
REMARK    7  A    between atoms: C_17  and  C_18
REMARK    8  A    between atoms: C_20  and  C_21
REMARK                            x       y       z     vdW  Elec       q    Type
REMARK                         _______ _______ _______ _____ _____    ______ ____
ROOT
ATOM      1  N   UNL     1      -1.886  12.696  22.608  0.00  0.00    +0.000 N 
ATOM      2  C   UNL     1      -3.061  12.606  23.337  0.00  0.00    +0.000 C 
ATOM      3  O   UNL     1      -3.562  11.573  23.771  0.00  0.00    +0.000 OA
ATOM      4  H   UNL     1      -1.496  13.623  22.466  0.00  0.00    +0.000 HD
ENDROOT
BRANCH   1   8
ATOM      5  C   UNL     1       0.418   9.437  21.131  0.00  0.00    +0.000 A 
ATOM      6  C   UNL     1       0.092   9.512  22.489  0.00  0.00    +0.000 A 
ATOM      7  C   UNL     1      -0.666  10.579  22.988  0.00  0.00    +0.000 A 
ATOM      8  C   UNL     1      -1.110  11.604  22.150  0.00  0.00    +0.000 A 
ATOM      9  C   UNL     1      -0.787  11.539  20.791  0.00  0.00    +0.000 A 
ATOM     10  C   UNL     1      -0.023  10.472  20.292  0.00  0.00    +0.000 A 
BRANCH   5  17
ATOM     11  C   UNL     1       4.215   3.475  19.108  0.00  0.00    +0.000 C 
ATOM     12  C   UNL     1       3.579   4.839  19.108  0.00  0.00    +0.000 A 
ATOM     13  C   UNL     1       3.750   5.710  18.017  0.00  0.00    +0.000 A 
ATOM     14  C   UNL     1       3.160   6.982  17.989  0.00  0.00    +0.000 A 
ATOM     15  C   UNL     1       2.400   7.322  19.106  0.00  0.00    +0.000 A 
ATOM     16  O   UNL     1       1.733   8.489  19.334  0.00  0.00    +0.000 OA
ATOM     17  C   UNL     1       1.167   8.310  20.576  0.00  0.00    +0.000 A 
ATOM     18  N   UNL     1       1.416   7.134  21.125  0.00  0.00    +0.000 NA
ATOM     19  C   UNL     1       2.206   6.501  20.198  0.00  0.00    +0.000 A 
ATOM     20  C   UNL     1       2.802   5.232  20.213  0.00  0.00    +0.000 A 
ENDBRANCH   5  17
ENDBRANCH   1   8
BRANCH   2  21
ATOM     21  C   UNL     1      -3.709  13.937  23.651  0.00  0.00    +0.000 C 
BRANCH  21  22
ATOM     22  C   UNL     1      -4.259  14.588  22.379  0.00  0.00    +0.000 C 
BRANCH  22  23
ATOM     23  C   UNL     1      -5.587  14.003  21.895  0.00  0.00    +0.000 C 
BRANCH  23  24
ATOM     24  C   UNL     1      -5.416  13.022  20.796  0.00  0.00    +0.000 A 
ATOM     25  N   UNL     1      -4.422  12.861  19.948  0.00  0.00    +0.000 NA
ATOM     26  C   UNL     1      -4.878  11.820  19.157  0.00  0.00    +0.000 A 
ATOM     27  N   UNL     1      -6.091  11.362  19.513  0.00  0.00    +0.000 NA
ATOM     28  O   UNL     1      -6.446  12.157  20.593  0.00  0.00    +0.000 OA
BRANCH  26  29
ATOM     29  C   UNL     1      -4.132  11.308  18.011  0.00  0.00    +0.000 A 
ATOM     30  C   UNL     1      -4.533  11.603  16.700  0.00  0.00    +0.000 A 
ATOM     31  C   UNL     1      -3.854  11.053  15.608  0.00  0.00    +0.000 A 
ATOM     32  C   UNL     1      -2.765  10.208  15.813  0.00  0.00    +0.000 A 
ATOM     33  C   UNL     1      -2.338   9.926  17.108  0.00  0.00    +0.000 A 
ATOM     34  C   UNL     1      -3.015  10.477  18.200  0.00  0.00    +0.000 A 
ENDBRANCH  26  29
ENDBRANCH  23  24
ENDBRANCH  22  23
ENDBRANCH  21  22
ENDBRANCH   2  21
TORSDOF 7
ENDMDL
MODEL 9
REMARK VINA RESULT:      -8.2      3.366      9.836
REMARK  Name = 
REMARK  8 active torsions:
REMARK  status: ('A' for Active; 'I' for Inactive)
REMARK    1  A    between atoms: C_1  and  C_2
REMARK    2  A    between atoms: C_7  and  C_8
REMARK    3  A    between atoms: C_11  and  N_12
REMARK    4  A    between atoms: C_13  and  C_15
REMARK    5  A    between atoms: C_15  and  C_16
REMARK    6  A    between atoms: C_16  and  C_17
REMARK    7  A    between atoms: C_17  and  C_18
REMARK    8  A    between atoms: C_20  and  C_21
REMARK                            x       y       z     vdW  Elec       q    Type
REMARK                         _______ _______ _______ _____ _____    ______ ____
ROOT
ATOM      1  N   UNL     1       3.713   6.609  17.050  0.00  0.00    +0.000 N 
ATOM      2  C   UNL     1       5.027   6.818  16.662  0.00  0.00    +0.000 C 
ATOM      3  O   UNL     1       5.760   7.719  17.059  0.00  0.00    +0.000 OA
ATOM      4  H   UNL     1       3.283   5.729  16.781  0.00  0.00    +0.000 HD
ENDROOT
BRANCH   1   8
ATOM      5  C   UNL     1       1.454   9.233  19.525  0.00  0.00    +0.000 A 
ATOM      6  C   UNL     1       1.853   7.981  20.003  0.00  0.00    +0.000 A 
ATOM      7  C   UNL     1       2.597   7.108  19.199  0.00  0.00    +0.000 A 
ATOM      8  C   UNL     1       2.955   7.455  17.894  0.00  0.00    +0.000 A 
ATOM      9  C   UNL     1       2.558   8.704  17.406  0.00  0.00    +0.000 A 
ATOM     10  C   UNL     1       1.808   9.577  18.211  0.00  0.00    +0.000 A 
BRANCH   5  17
ATOM     11  C   UNL     1      -1.732  14.579  23.439  0.00  0.00    +0.000 C 
ATOM     12  C   UNL     1      -1.316  13.223  22.935  0.00  0.00    +0.000 A 
ATOM     13  C   UNL     1      -1.776  12.052  23.563  0.00  0.00    +0.000 A 
ATOM     14  C   UNL     1      -1.410  10.778  23.107  0.00  0.00    +0.000 A 
ATOM     15  C   UNL     1      -0.565  10.750  21.999  0.00  0.00    +0.000 A 
ATOM     16  O   UNL     1      -0.058   9.654  21.368  0.00  0.00    +0.000 OA
ATOM     17  C   UNL     1       0.718  10.182  20.360  0.00  0.00    +0.000 A 
ATOM     18  N   UNL     1       0.720  11.502  20.308  0.00  0.00    +0.000 NA
ATOM     19  C   UNL     1      -0.089  11.873  21.352  0.00  0.00    +0.000 A 
ATOM     20  C   UNL     1      -0.462  13.141  21.819  0.00  0.00    +0.000 A 
ENDBRANCH   5  17
ENDBRANCH   1   8
BRANCH   2  21
ATOM     21  C   UNL     1       5.575   5.776  15.711  0.00  0.00    +0.000 C 
BRANCH  21  22
ATOM     22  C   UNL     1       7.059   5.516  15.986  0.00  0.00    +0.000 C 
BRANCH  22  23
ATOM     23  C   UNL     1       7.327   4.397  16.994  0.00  0.00    +0.000 C 
BRANCH  23  24
ATOM     24  C   UNL     1       6.261   4.280  18.019  0.00  0.00    +0.000 A 
ATOM     25  N   UNL     1       5.071   3.721  17.947  0.00  0.00    +0.000 NA
ATOM     26  C   UNL     1       4.550   3.979  19.204  0.00  0.00    +0.000 A 
ATOM     27  N   UNL     1       5.389   4.655  20.008  0.00  0.00    +0.000 NA
ATOM     28  O   UNL     1       6.516   4.856  19.225  0.00  0.00    +0.000 OA
BRANCH  26  29
ATOM     29  C   UNL     1       3.196   3.597  19.596  0.00  0.00    +0.000 A 
ATOM     30  C   UNL     1       2.868   3.386  20.943  0.00  0.00    +0.000 A 
ATOM     31  C   UNL     1       1.588   2.953  21.304  0.00  0.00    +0.000 A 
ATOM     32  C   UNL     1       0.621   2.732  20.325  0.00  0.00    +0.000 A 
ATOM     33  C   UNL     1       0.924   2.962  18.985  0.00  0.00    +0.000 A 
ATOM     34  C   UNL     1       2.201   3.396  18.624  0.00  0.00    +0.000 A 
ENDBRANCH  26  29
ENDBRANCH  23  24
ENDBRANCH  22  23
ENDBRANCH  21  22
ENDBRANCH   2  21
TORSDOF 7
ENDMDL
