MODEL 1
REMARK VINA RESULT:      -7.1      0.000      0.000
REMARK  Name = 
REMARK  13 active torsions:
REMARK  status: ('A' for Active; 'I' for Inactive)
REMARK    1  A    between atoms: C_1  and  N_2
REMARK    2  A    between atoms: C_3  and  C_5
REMARK    3  A    between atoms: C_5  and  C_6
REMARK    4  A    between atoms: C_5  and  N_10
REMARK    5  A    between atoms: C_6  and  C_7
REMARK    6  A    between atoms: C_7  and  C_8
REMARK    7  A    between atoms: C_7  and  C_9
REMARK    8  A    between atoms: N_10  and  C_11
REMARK    9  A    between atoms: C_11  and  C_12
REMARK   10  A    between atoms: C_12  and  C_13
REMARK   11  A    between atoms: C_12  and  C_14
REMARK   12  A    between atoms: C_17  and  O_18
REMARK   13  A    between atoms: O_18  and  C_19
REMARK                            x       y       z     vdW  Elec       q    Type
REMARK                         _______ _______ _______ _____ _____    ______ ____
ROOT
ATOM      1  N   UNL     1       4.809   4.499  15.890  0.00  0.00    +0.000 NA
ATOM      2  H   UNL     1       4.748   3.891  15.071  0.00  0.00    +0.000 HD
ENDROOT
BRANCH   1   3
ATOM      3  C   UNL     1       6.157   5.127  15.869  0.00  0.00    +0.000 C 
BRANCH   3   6
ATOM      4  C   UNL     1       6.588   3.496  12.437  0.00  0.00    +0.000 C 
ATOM      5  N   UNL     1       6.121   3.882  13.742  0.00  0.00    +0.000 N 
ATOM      6  C   UNL     1       6.811   4.807  14.499  0.00  0.00    +0.000 C 
ATOM      7  O   UNL     1       7.861   5.325  14.122  0.00  0.00    +0.000 OA
ATOM      8  H   UNL     1       5.427   3.310  14.212  0.00  0.00    +0.000 HD
ENDBRANCH   3   6
BRANCH   3   9
ATOM      9  C   UNL     1       7.066   4.615  17.006  0.00  0.00    +0.000 C 
BRANCH   9  10
ATOM     10  C   UNL     1       7.554   5.690  17.997  0.00  0.00    +0.000 C 
ATOM     11  C   UNL     1       7.297   7.106  17.479  0.00  0.00    +0.000 C 
ATOM     12  C   UNL     1       6.841   5.487  19.336  0.00  0.00    +0.000 C 
ENDBRANCH   9  10
ENDBRANCH   3   9
ENDBRANCH   1   3
BRANCH   1  13
ATOM     13  C   UNL     1       4.582   3.714  17.116  0.00  0.00    +0.000 C 
BRANCH  13  14
ATOM     14  C   UNL     1       3.095   3.449  17.455  0.00  0.00    +0.000 C 
ATOM     15  C   UNL     1       2.868   2.032  17.999  0.00  0.00    +0.000 C 
BRANCH  14  16
ATOM     16  C   UNL     1       2.596   4.492  18.458  0.00  0.00    +0.000 A 
ATOM     17  C   UNL     1       2.917   5.843  18.290  0.00  0.00    +0.000 A 
ATOM     18  C   UNL     1       2.508   6.796  19.232  0.00  0.00    +0.000 A 
ATOM     19  C   UNL     1       1.756   6.420  20.347  0.00  0.00    +0.000 A 
ATOM     20  C   UNL     1       1.424   5.080  20.522  0.00  0.00    +0.000 A 
ATOM     21  C   UNL     1       1.837   4.124  19.583  0.00  0.00    +0.000 A 
BRANCH  19  22
ATOM     22  O   UNL     1       1.447   7.434  21.212  0.00  0.00    +0.000 OA
ATOM     23  C   UNL     1       1.243   8.711  20.620  0.00  0.00    +0.000 C 
ENDBRANCH  19  22
ENDBRANCH  14  16
ENDBRANCH  13  14
ENDBRANCH   1  13
TORSDOF 8
ENDMDL
MODEL 2
REMARK VINA RESULT:      -7.1      0.569      1.200
REMARK  Name = 
REMARK  13 active torsions:
REMARK  status: ('A' for Active; 'I' for Inactive)
REMARK    1  A    between atoms: C_1  and  N_2
REMARK    2  A    between atoms: C_3  and  C_5
REMARK    3  A    between atoms: C_5  and  C_6
REMARK    4  A    between atoms: C_5  and  N_10
REMARK    5  A    between atoms: C_6  and  C_7
REMARK    6  A    between atoms: C_7  and  C_8
REMARK    7  A    between atoms: C_7  and  C_9
REMARK    8  A    between atoms: N_10  and  C_11
REMARK    9  A    between atoms: C_11  and  C_12
REMARK   10  A    between atoms: C_12  and  C_13
REMARK   11  A    between atoms: C_12  and  C_14
REMARK   12  A    between atoms: C_17  and  O_18
REMARK   13  A    between atoms: O_18  and  C_19
REMARK                            x       y       z     vdW  Elec       q    Type
REMARK                         _______ _______ _______ _____ _____    ______ ____
ROOT
ATOM      1  N   UNL     1       4.789   4.219  15.828  0.00  0.00    +0.000 NA
ATOM      2  H   UNL     1       4.942   3.444  15.181  0.00  0.00    +0.000 HD
ENDROOT
BRANCH   1   3
ATOM      3  C   UNL     1       6.050   5.008  15.873  0.00  0.00    +0.000 C 
BRANCH   3   6
ATOM      4  C   UNL     1       6.690   3.687  12.342  0.00  0.00    +0.000 C 
ATOM      5  N   UNL     1       6.155   3.943  13.653  0.00  0.00    +0.000 N 
ATOM      6  C   UNL     1       6.772   4.830  14.512  0.00  0.00    +0.000 C 
ATOM      7  O   UNL     1       7.812   5.420  14.224  0.00  0.00    +0.000 OA
ATOM      8  H   UNL     1       5.468   3.307  14.043  0.00  0.00    +0.000 HD
ENDBRANCH   3   6
BRANCH   3   9
ATOM      9  C   UNL     1       6.986   4.561  17.016  0.00  0.00    +0.000 C 
BRANCH   9  10
ATOM     10  C   UNL     1       7.405   5.672  17.998  0.00  0.00    +0.000 C 
ATOM     11  C   UNL     1       7.160   7.068  17.425  0.00  0.00    +0.000 C 
ATOM     12  C   UNL     1       6.622   5.499  19.302  0.00  0.00    +0.000 C 
ENDBRANCH   9  10
ENDBRANCH   3   9
ENDBRANCH   1   3
BRANCH   1  13
ATOM     13  C   UNL     1       4.413   3.699  17.154  0.00  0.00    +0.000 C 
BRANCH  13  14
ATOM     14  C   UNL     1       2.906   3.805  17.493  0.00  0.00    +0.000 C 
ATOM     15  C   UNL     1       2.377   2.541  18.185  0.00  0.00    +0.000 C 
BRANCH  14  16
ATOM     16  C   UNL     1       2.653   5.036  18.366  0.00  0.00    +0.000 A 
ATOM     17  C   UNL     1       2.081   4.895  19.635  0.00  0.00    +0.000 A 
ATOM     18  C   UNL     1       1.799   6.021  20.419  0.00  0.00    +0.000 A 
ATOM     19  C   UNL     1       2.101   7.305  19.959  0.00  0.00    +0.000 A 
ATOM     20  C   UNL     1       2.676   7.458  18.702  0.00  0.00    +0.000 A 
ATOM     21  C   UNL     1       2.955   6.332  17.913  0.00  0.00    +0.000 A 
BRANCH  19  22
ATOM     22  O   UNL     1       1.747   8.325  20.799  0.00  0.00    +0.000 OA
ATOM     23  C   UNL     1       0.447   8.233  21.370  0.00  0.00    +0.000 C 
ENDBRANCH  19  22
ENDBRANCH  14  16
ENDBRANCH  13  14
ENDBRANCH   1  13
TORSDOF 8
ENDMDL
MODEL 3
REMARK VINA RESULT:      -6.6      2.175      6.972
REMARK  Name = 
REMARK  13 active torsions:
REMARK  status: ('A' for Active; 'I' for Inactive)
REMARK    1  A    between atoms: C_1  and  N_2
REMARK    2  A    between atoms: C_3  and  C_5
REMARK    3  A    between atoms: C_5  and  C_6
REMARK    4  A    between atoms: C_5  and  N_10
REMARK    5  A    between atoms: C_6  and  C_7
REMARK    6  A    between atoms: C_7  and  C_8
REMARK    7  A    between atoms: C_7  and  C_9
REMARK    8  A    between atoms: N_10  and  C_11
REMARK    9  A    between atoms: C_11  and  C_12
REMARK   10  A    between atoms: C_12  and  C_13
REMARK   11  A    between atoms: C_12  and  C_14
REMARK   12  A    between atoms: C_17  and  O_18
REMARK   13  A    between atoms: O_18  and  C_19
REMARK                            x       y       z     vdW  Elec       q    Type
REMARK                         _______ _______ _______ _____ _____    ______ ____
ROOT
ATOM      1  N   UNL     1       3.397   5.817  18.601  0.00  0.00    +0.000 NA
ATOM      2  H   UNL     1       3.536   6.731  18.168  0.00  0.00    +0.000 HD
ENDROOT
BRANCH   1   3
ATOM      3  C   UNL     1       2.144   5.896  19.400  0.00  0.00    +0.000 C 
BRANCH   3   6
ATOM      4  C   UNL     1       1.359   8.836  21.715  0.00  0.00    +0.000 C 
ATOM      5  N   UNL     1       1.558   7.528  21.152  0.00  0.00    +0.000 N 
ATOM      6  C   UNL     1       1.952   7.372  19.838  0.00  0.00    +0.000 C 
ATOM      7  O   UNL     1       2.125   8.323  19.079  0.00  0.00    +0.000 OA
ATOM      8  H   UNL     1       1.184   6.716  21.633  0.00  0.00    +0.000 HD
ENDBRANCH   3   6
BRANCH   3   9
ATOM      9  C   UNL     1       2.181   4.988  20.647  0.00  0.00    +0.000 C 
BRANCH   9  10
ATOM     10  C   UNL     1       1.138   3.854  20.668  0.00  0.00    +0.000 C 
ATOM     11  C   UNL     1       0.908   3.259  19.278  0.00  0.00    +0.000 C 
ATOM     12  C   UNL     1       1.614   2.763  21.631  0.00  0.00    +0.000 C 
ENDBRANCH   9  10
ENDBRANCH   3   9
ENDBRANCH   1   3
BRANCH   1  13
ATOM     13  C   UNL     1       4.564   5.472  19.431  0.00  0.00    +0.000 C 
BRANCH  13  14
ATOM     14  C   UNL     1       5.347   4.219  18.969  0.00  0.00    +0.000 C 
ATOM     15  C   UNL     1       4.534   2.929  19.145  0.00  0.00    +0.000 C 
BRANCH  14  16
ATOM     16  C   UNL     1       5.776   4.383  17.509  0.00  0.00    +0.000 A 
ATOM     17  C   UNL     1       4.980   3.871  16.478  0.00  0.00    +0.000 A 
ATOM     18  C   UNL     1       5.392   3.971  15.143  0.00  0.00    +0.000 A 
ATOM     19  C   UNL     1       6.594   4.601  14.812  0.00  0.00    +0.000 A 
ATOM     20  C   UNL     1       7.390   5.121  15.827  0.00  0.00    +0.000 A 
ATOM     21  C   UNL     1       6.983   5.017  17.165  0.00  0.00    +0.000 A 
BRANCH  19  22
ATOM     22  O   UNL     1       6.903   4.605  13.479  0.00  0.00    +0.000 OA
ATOM     23  C   UNL     1       6.266   3.606  12.693  0.00  0.00    +0.000 C 
ENDBRANCH  19  22
ENDBRANCH  14  16
ENDBRANCH  13  14
ENDBRANCH   1  13
TORSDOF 8
ENDMDL
MODEL 4
REMARK VINA RESULT:      -6.6      1.780      2.548
REMARK  Name = 
REMARK  13 active torsions:
REMARK  status: ('A' for Active; 'I' for Inactive)
REMARK    1  A    between atoms: C_1  and  N_2
REMARK    2  A    between atoms: C_3  and  C_5
REMARK    3  A    between atoms: C_5  and  C_6
REMARK    4  A    between atoms: C_5  and  N_10
REMARK    5  A    between atoms: C_6  and  C_7
REMARK    6  A    between atoms: C_7  and  C_8
REMARK    7  A    between atoms: C_7  and  C_9
REMARK    8  A    between atoms: N_10  and  C_11
REMARK    9  A    between atoms: C_11  and  C_12
REMARK   10  A    between atoms: C_12  and  C_13
REMARK   11  A    between atoms: C_12  and  C_14
REMARK   12  A    between atoms: C_17  and  O_18
REMARK   13  A    between atoms: O_18  and  C_19
REMARK                            x       y       z     vdW  Elec       q    Type
REMARK                         _______ _______ _______ _____ _____    ______ ____
ROOT
ATOM      1  N   UNL     1       4.948   5.448  16.473  0.00  0.00    +0.000 NA
ATOM      2  H   UNL     1       4.831   4.583  17.002  0.00  0.00    +0.000 HD
ENDROOT
BRANCH   1   3
ATOM      3  C   UNL     1       6.409   5.643  16.268  0.00  0.00    +0.000 C 
BRANCH   3   6
ATOM      4  C   UNL     1       6.055   3.590  13.062  0.00  0.00    +0.000 C 
ATOM      5  N   UNL     1       5.872   4.173  14.363  0.00  0.00    +0.000 N 
ATOM      6  C   UNL     1       6.770   5.095  14.862  0.00  0.00    +0.000 C 
ATOM      7  O   UNL     1       7.775   5.444  14.246  0.00  0.00    +0.000 OA
ATOM      8  H   UNL     1       5.226   3.742  15.016  0.00  0.00    +0.000 HD
ENDBRANCH   3   6
BRANCH   3   9
ATOM      9  C   UNL     1       7.257   4.920  17.336  0.00  0.00    +0.000 C 
BRANCH   9  10
ATOM     10  C   UNL     1       7.954   5.838  18.358  0.00  0.00    +0.000 C 
ATOM     11  C   UNL     1       7.797   7.317  18.002  0.00  0.00    +0.000 C 
ATOM     12  C   UNL     1       7.364   5.570  19.745  0.00  0.00    +0.000 C 
ENDBRANCH   9  10
ENDBRANCH   3   9
ENDBRANCH   1   3
BRANCH   1  13
ATOM     13  C   UNL     1       4.337   6.571  17.205  0.00  0.00    +0.000 C 
BRANCH  13  14
ATOM     14  C   UNL     1       3.223   6.170  18.203  0.00  0.00    +0.000 C 
ATOM     15  C   UNL     1       3.779   5.425  19.424  0.00  0.00    +0.000 C 
BRANCH  14  16
ATOM     16  C   UNL     1       2.448   7.413  18.645  0.00  0.00    +0.000 A 
ATOM     17  C   UNL     1       2.024   7.546  19.972  0.00  0.00    +0.000 A 
ATOM     18  C   UNL     1       1.269   8.656  20.372  0.00  0.00    +0.000 A 
ATOM     19  C   UNL     1       0.941   9.662  19.461  0.00  0.00    +0.000 A 
ATOM     20  C   UNL     1       1.362   9.545  18.140  0.00  0.00    +0.000 A 
ATOM     21  C   UNL     1       2.114   8.432  17.736  0.00  0.00    +0.000 A 
BRANCH  19  22
ATOM     22  O   UNL     1       0.172  10.676  19.962  0.00  0.00    +0.000 OA
ATOM     23  C   UNL     1       0.271  10.893  21.364  0.00  0.00    +0.000 C 
ENDBRANCH  19  22
ENDBRANCH  14  16
ENDBRANCH  13  14
ENDBRANCH   1  13
TORSDOF 8
ENDMDL
MODEL 5
REMARK VINA RESULT:      -6.6      1.524      3.090
REMARK  Name = 
REMARK  13 active torsions:
REMARK  status: ('A' for Active; 'I' for Inactive)
REMARK    1  A    between atoms: C_1  and  N_2
REMARK    2  A    between atoms: C_3  and  C_5
REMARK    3  A    between atoms: C_5  and  C_6
REMARK    4  A    between atoms: C_5  and  N_10
REMARK    5  A    between atoms: C_6  and  C_7
REMARK    6  A    between atoms: C_7  and  C_8
REMARK    7  A    between atoms: C_7  and  C_9
REMARK    8  A    between atoms: N_10  and  C_11
REMARK    9  A    between atoms: C_11  and  C_12
REMARK   10  A    between atoms: C_12  and  C_13
REMARK   11  A    between atoms: C_12  and  C_14
REMARK   12  A    between atoms: C_17  and  O_18
REMARK   13  A    between atoms: O_18  and  C_19
REMARK                            x       y       z     vdW  Elec       q    Type
REMARK                         _______ _______ _______ _____ _____    ______ ____
ROOT
ATOM      1  N   UNL     1       5.204   3.326  16.967  0.00  0.00    +0.000 NA
ATOM      2  H   UNL     1       5.494   3.524  17.926  0.00  0.00    +0.000 HD
ENDROOT
BRANCH   1   3
ATOM      3  C   UNL     1       6.289   3.812  16.072  0.00  0.00    +0.000 C 
BRANCH   3   6
ATOM      4  C   UNL     1       7.469   7.249  17.262  0.00  0.00    +0.000 C 
ATOM      5  N   UNL     1       6.797   6.167  16.593  0.00  0.00    +0.000 N 
ATOM      6  C   UNL     1       7.127   4.853  16.860  0.00  0.00    +0.000 C 
ATOM      7  O   UNL     1       8.016   4.538  17.649  0.00  0.00    +0.000 OA
ATOM      8  H   UNL     1       6.254   6.358  15.758  0.00  0.00    +0.000 HD
ENDBRANCH   3   6
BRANCH   3   9
ATOM      9  C   UNL     1       5.745   4.459  14.781  0.00  0.00    +0.000 C 
BRANCH   9  10
ATOM     10  C   UNL     1       6.326   3.900  13.468  0.00  0.00    +0.000 C 
ATOM     11  C   UNL     1       5.235   3.603  12.438  0.00  0.00    +0.000 C 
ATOM     12  C   UNL     1       7.320   4.914  12.896  0.00  0.00    +0.000 C 
ENDBRANCH   9  10
ENDBRANCH   3   9
ENDBRANCH   1   3
BRANCH   1  13
ATOM     13  C   UNL     1       3.917   3.985  16.686  0.00  0.00    +0.000 C 
BRANCH  13  14
ATOM     14  C   UNL     1       2.801   3.706  17.722  0.00  0.00    +0.000 C 
ATOM     15  C   UNL     1       3.179   2.579  18.692  0.00  0.00    +0.000 C 
BRANCH  14  16
ATOM     16  C   UNL     1       2.475   4.987  18.494  0.00  0.00    +0.000 A 
ATOM     17  C   UNL     1       2.727   6.239  17.921  0.00  0.00    +0.000 A 
ATOM     18  C   UNL     1       2.480   7.414  18.642  0.00  0.00    +0.000 A 
ATOM     19  C   UNL     1       1.961   7.362  19.937  0.00  0.00    +0.000 A 
ATOM     20  C   UNL     1       1.700   6.124  20.514  0.00  0.00    +0.000 A 
ATOM     21  C   UNL     1       1.951   4.945  19.797  0.00  0.00    +0.000 A 
BRANCH  19  22
ATOM     22  O   UNL     1       1.796   8.574  20.550  0.00  0.00    +0.000 OA
ATOM     23  C   UNL     1       1.068   8.556  21.772  0.00  0.00    +0.000 C 
ENDBRANCH  19  22
ENDBRANCH  14  16
ENDBRANCH  13  14
ENDBRANCH   1  13
TORSDOF 8
ENDMDL
MODEL 6
REMARK VINA RESULT:      -6.6      2.131      6.890
REMARK  Name = 
REMARK  13 active torsions:
REMARK  status: ('A' for Active; 'I' for Inactive)
REMARK    1  A    between atoms: C_1  and  N_2
REMARK    2  A    between atoms: C_3  and  C_5
REMARK    3  A    between atoms: C_5  and  C_6
REMARK    4  A    between atoms: C_5  and  N_10
REMARK    5  A    between atoms: C_6  and  C_7
REMARK    6  A    between atoms: C_7  and  C_8
REMARK    7  A    between atoms: C_7  and  C_9
REMARK    8  A    between atoms: N_10  and  C_11
REMARK    9  A    between atoms: C_11  and  C_12
REMARK   10  A    between atoms: C_12  and  C_13
REMARK   11  A    between atoms: C_12  and  C_14
REMARK   12  A    between atoms: C_17  and  O_18
REMARK   13  A    between atoms: O_18  and  C_19
REMARK                            x       y       z     vdW  Elec       q    Type
REMARK                         _______ _______ _______ _____ _____    ______ ____
ROOT
ATOM      1  N   UNL     1       4.071   5.649  19.761  0.00  0.00    +0.000 NA
ATOM      2  H   UNL     1       3.530   5.073  20.407  0.00  0.00    +0.000 HD
ENDROOT
BRANCH   1   3
ATOM      3  C   UNL     1       3.136   6.112  18.699  0.00  0.00    +0.000 C 
BRANCH   3   6
ATOM      4  C   UNL     1       1.247   8.200  21.286  0.00  0.00    +0.000 C 
ATOM      5  N   UNL     1       1.987   7.172  20.605  0.00  0.00    +0.000 N 
ATOM      6  C   UNL     1       2.316   7.299  19.270  0.00  0.00    +0.000 C 
ATOM      7  O   UNL     1       1.978   8.266  18.591  0.00  0.00    +0.000 OA
ATOM      8  H   UNL     1       2.064   6.251  21.025  0.00  0.00    +0.000 HD
ENDBRANCH   3   6
BRANCH   3   9
ATOM      9  C   UNL     1       2.175   4.999  18.231  0.00  0.00    +0.000 C 
BRANCH   9  10
ATOM     10  C   UNL     1       2.123   3.750  19.133  0.00  0.00    +0.000 C 
ATOM     11  C   UNL     1       0.833   3.687  19.952  0.00  0.00    +0.000 C 
ATOM     12  C   UNL     1       2.246   2.502  18.255  0.00  0.00    +0.000 C 
ENDBRANCH   9  10
ENDBRANCH   3   9
ENDBRANCH   1   3
BRANCH   1  13
ATOM     13  C   UNL     1       5.193   4.870  19.210  0.00  0.00    +0.000 C 
BRANCH  13  14
ATOM     14  C   UNL     1       6.177   5.676  18.327  0.00  0.00    +0.000 C 
ATOM     15  C   UNL     1       7.580   5.753  18.945  0.00  0.00    +0.000 C 
BRANCH  14  16
ATOM     16  C   UNL     1       6.244   5.062  16.928  0.00  0.00    +0.000 A 
ATOM     17  C   UNL     1       7.202   5.504  16.008  0.00  0.00    +0.000 A 
ATOM     18  C   UNL     1       7.236   4.984  14.708  0.00  0.00    +0.000 A 
ATOM     19  C   UNL     1       6.328   4.000  14.309  0.00  0.00    +0.000 A 
ATOM     20  C   UNL     1       5.376   3.547  15.216  0.00  0.00    +0.000 A 
ATOM     21  C   UNL     1       5.336   4.070  16.517  0.00  0.00    +0.000 A 
BRANCH  19  22
ATOM     22  O   UNL     1       6.439   3.597  13.007  0.00  0.00    +0.000 OA
ATOM     23  C   UNL     1       5.215   3.467  12.293  0.00  0.00    +0.000 C 
ENDBRANCH  19  22
ENDBRANCH  14  16
ENDBRANCH  13  14
ENDBRANCH   1  13
TORSDOF 8
ENDMDL
MODEL 7
REMARK VINA RESULT:      -6.5      2.154      4.123
REMARK  Name = 
REMARK  13 active torsions:
REMARK  status: ('A' for Active; 'I' for Inactive)
REMARK    1  A    between atoms: C_1  and  N_2
REMARK    2  A    between atoms: C_3  and  C_5
REMARK    3  A    between atoms: C_5  and  C_6
REMARK    4  A    between atoms: C_5  and  N_10
REMARK    5  A    between atoms: C_6  and  C_7
REMARK    6  A    between atoms: C_7  and  C_8
REMARK    7  A    between atoms: C_7  and  C_9
REMARK    8  A    between atoms: N_10  and  C_11
REMARK    9  A    between atoms: C_11  and  C_12
REMARK   10  A    between atoms: C_12  and  C_13
REMARK   11  A    between atoms: C_12  and  C_14
REMARK   12  A    between atoms: C_17  and  O_18
REMARK   13  A    between atoms: O_18  and  C_19
REMARK                            x       y       z     vdW  Elec       q    Type
REMARK                         _______ _______ _______ _____ _____    ______ ____
ROOT
ATOM      1  N   UNL     1       5.725   6.247  16.210  0.00  0.00    +0.000 NA
ATOM      2  H   UNL     1       6.039   6.335  15.243  0.00  0.00    +0.000 HD
ENDROOT
BRANCH   1   3
ATOM      3  C   UNL     1       5.963   4.836  16.621  0.00  0.00    +0.000 C 
BRANCH   3   6
ATOM      4  C   UNL     1       8.039   5.648  19.728  0.00  0.00    +0.000 C 
ATOM      5  N   UNL     1       7.010   5.579  18.725  0.00  0.00    +0.000 N 
ATOM      6  C   UNL     1       7.179   4.819  17.585  0.00  0.00    +0.000 C 
ATOM      7  O   UNL     1       8.209   4.191  17.351  0.00  0.00    +0.000 OA
ATOM      8  H   UNL     1       6.265   6.267  18.729  0.00  0.00    +0.000 HD
ENDBRANCH   3   6
BRANCH   3   9
ATOM      9  C   UNL     1       6.246   3.910  15.419  0.00  0.00    +0.000 C 
BRANCH   9  10
ATOM     10  C   UNL     1       6.239   4.599  14.040  0.00  0.00    +0.000 C 
ATOM     11  C   UNL     1       7.634   5.064  13.623  0.00  0.00    +0.000 C 
ATOM     12  C   UNL     1       5.683   3.620  13.002  0.00  0.00    +0.000 C 
ENDBRANCH   9  10
ENDBRANCH   3   9
ENDBRANCH   1   3
BRANCH   1  13
ATOM     13  C   UNL     1       4.305   6.622  16.314  0.00  0.00    +0.000 C 
BRANCH  13  14
ATOM     14  C   UNL     1       3.838   7.024  17.734  0.00  0.00    +0.000 C 
ATOM     15  C   UNL     1       2.931   8.263  17.717  0.00  0.00    +0.000 C 
BRANCH  14  16
ATOM     16  C   UNL     1       3.120   5.848  18.399  0.00  0.00    +0.000 A 
ATOM     17  C   UNL     1       3.448   5.470  19.706  0.00  0.00    +0.000 A 
ATOM     18  C   UNL     1       2.833   4.362  20.303  0.00  0.00    +0.000 A 
ATOM     19  C   UNL     1       1.868   3.624  19.615  0.00  0.00    +0.000 A 
ATOM     20  C   UNL     1       1.528   3.995  18.318  0.00  0.00    +0.000 A 
ATOM     21  C   UNL     1       2.146   5.101  17.716  0.00  0.00    +0.000 A 
BRANCH  19  22
ATOM     22  O   UNL     1       1.365   2.545  20.289  0.00  0.00    +0.000 OA
ATOM     23  C   UNL     1       1.552   2.555  21.699  0.00  0.00    +0.000 C 
ENDBRANCH  19  22
ENDBRANCH  14  16
ENDBRANCH  13  14
ENDBRANCH   1  13
TORSDOF 8
ENDMDL
MODEL 8
REMARK VINA RESULT:      -6.5      1.247      1.795
REMARK  Name = 
REMARK  13 active torsions:
REMARK  status: ('A' for Active; 'I' for Inactive)
REMARK    1  A    between atoms: C_1  and  N_2
REMARK    2  A    between atoms: C_3  and  C_5
REMARK    3  A    between atoms: C_5  and  C_6
REMARK    4  A    between atoms: C_5  and  N_10
REMARK    5  A    between atoms: C_6  and  C_7
REMARK    6  A    between atoms: C_7  and  C_8
REMARK    7  A    between atoms: C_7  and  C_9
REMARK    8  A    between atoms: N_10  and  C_11
REMARK    9  A    between atoms: C_11  and  C_12
REMARK   10  A    between atoms: C_12  and  C_13
REMARK   11  A    between atoms: C_12  and  C_14
REMARK   12  A    between atoms: C_17  and  O_18
REMARK   13  A    between atoms: O_18  and  C_19
REMARK                            x       y       z     vdW  Elec       q    Type
REMARK                         _______ _______ _______ _____ _____    ______ ____
ROOT
ATOM      1  N   UNL     1       5.026   3.655  17.331  0.00  0.00    +0.000 NA
ATOM      2  H   UNL     1       5.650   2.936  17.702  0.00  0.00    +0.000 HD
ENDROOT
BRANCH   1   3
ATOM      3  C   UNL     1       5.878   4.805  16.925  0.00  0.00    +0.000 C 
BRANCH   3   6
ATOM      4  C   UNL     1       6.144   3.643  13.291  0.00  0.00    +0.000 C 
ATOM      5  N   UNL     1       6.156   3.723  14.727  0.00  0.00    +0.000 N 
ATOM      6  C   UNL     1       5.842   4.900  15.376  0.00  0.00    +0.000 C 
ATOM      7  O   UNL     1       5.568   5.938  14.776  0.00  0.00    +0.000 OA
ATOM      8  H   UNL     1       6.620   2.997  15.263  0.00  0.00    +0.000 HD
ENDBRANCH   3   6
BRANCH   3   9
ATOM      9  C   UNL     1       7.339   4.656  17.398  0.00  0.00    +0.000 C 
BRANCH   9  10
ATOM     10  C   UNL     1       7.883   5.828  18.238  0.00  0.00    +0.000 C 
ATOM     11  C   UNL     1       7.447   7.184  17.683  0.00  0.00    +0.000 C 
ATOM     12  C   UNL     1       7.391   5.672  19.680  0.00  0.00    +0.000 C 
ENDBRANCH   9  10
ENDBRANCH   3   9
ENDBRANCH   1   3
BRANCH   1  13
ATOM     13  C   UNL     1       4.034   4.033  18.352  0.00  0.00    +0.000 C 
BRANCH  13  14
ATOM     14  C   UNL     1       2.737   4.672  17.796  0.00  0.00    +0.000 C 
ATOM     15  C   UNL     1       1.562   3.685  17.791  0.00  0.00    +0.000 C 
BRANCH  14  16
ATOM     16  C   UNL     1       2.382   5.920  18.607  0.00  0.00    +0.000 A 
ATOM     17  C   UNL     1       1.919   5.798  19.922  0.00  0.00    +0.000 A 
ATOM     18  C   UNL     1       1.542   6.932  20.653  0.00  0.00    +0.000 A 
ATOM     19  C   UNL     1       1.640   8.208  20.092  0.00  0.00    +0.000 A 
ATOM     20  C   UNL     1       2.106   8.342  18.789  0.00  0.00    +0.000 A 
ATOM     21  C   UNL     1       2.479   7.208  18.053  0.00  0.00    +0.000 A 
BRANCH  19  22
ATOM     22  O   UNL     1       1.211   9.231  20.891  0.00  0.00    +0.000 OA
ATOM     23  C   UNL     1       1.398   9.046  22.289  0.00  0.00    +0.000 C 
ENDBRANCH  19  22
ENDBRANCH  14  16
ENDBRANCH  13  14
ENDBRANCH   1  13
TORSDOF 8
ENDMDL
MODEL 9
REMARK VINA RESULT:      -6.5      2.313      7.085
REMARK  Name = 
REMARK  13 active torsions:
REMARK  status: ('A' for Active; 'I' for Inactive)
REMARK    1  A    between atoms: C_1  and  N_2
REMARK    2  A    between atoms: C_3  and  C_5
REMARK    3  A    between atoms: C_5  and  C_6
REMARK    4  A    between atoms: C_5  and  N_10
REMARK    5  A    between atoms: C_6  and  C_7
REMARK    6  A    between atoms: C_7  and  C_8
REMARK    7  A    between atoms: C_7  and  C_9
REMARK    8  A    between atoms: N_10  and  C_11
REMARK    9  A    between atoms: C_11  and  C_12
REMARK   10  A    between atoms: C_12  and  C_13
REMARK   11  A    between atoms: C_12  and  C_14
REMARK   12  A    between atoms: C_17  and  O_18
REMARK   13  A    between atoms: O_18  and  C_19
REMARK                            x       y       z     vdW  Elec       q    Type
REMARK                         _______ _______ _______ _____ _____    ______ ____
ROOT
ATOM      1  N   UNL     1       3.902   5.523  20.266  0.00  0.00    +0.000 NA
ATOM      2  H   UNL     1       3.819   5.018  21.149  0.00  0.00    +0.000 HD
ENDROOT
BRANCH   1   3
ATOM      3  C   UNL     1       2.523   5.710  19.737  0.00  0.00    +0.000 C 
BRANCH   3   6
ATOM      4  C   UNL     1       1.364   9.055  21.183  0.00  0.00    +0.000 C 
ATOM      5  N   UNL     1       1.692   7.669  20.982  0.00  0.00    +0.000 N 
ATOM      6  C   UNL     1       2.200   7.227  19.776  0.00  0.00    +0.000 C 
ATOM      7  O   UNL     1       2.370   7.972  18.813  0.00  0.00    +0.000 OA
ATOM      8  H   UNL     1       1.336   6.973  21.628  0.00  0.00    +0.000 HD
ENDBRANCH   3   6
BRANCH   3   9
ATOM      9  C   UNL     1       1.467   4.937  20.554  0.00  0.00    +0.000 C 
BRANCH   9  10
ATOM     10  C   UNL     1       1.020   3.591  19.949  0.00  0.00    +0.000 C 
ATOM     11  C   UNL     1       1.410   3.466  18.476  0.00  0.00    +0.000 C 
ATOM     12  C   UNL     1       1.653   2.454  20.754  0.00  0.00    +0.000 C 
ENDBRANCH   9  10
ENDBRANCH   3   9
ENDBRANCH   1   3
BRANCH   1  13
ATOM     13  C   UNL     1       4.755   4.768  19.333  0.00  0.00    +0.000 C 
BRANCH  13  14
ATOM     14  C   UNL     1       5.790   5.621  18.558  0.00  0.00    +0.000 C 
ATOM     15  C   UNL     1       7.166   5.620  19.236  0.00  0.00    +0.000 C 
BRANCH  14  16
ATOM     16  C   UNL     1       5.905   5.118  17.117  0.00  0.00    +0.000 A 
ATOM     17  C   UNL     1       4.799   4.542  16.481  0.00  0.00    +0.000 A 
ATOM     18  C   UNL     1       4.910   4.032  15.181  0.00  0.00    +0.000 A 
ATOM     19  C   UNL     1       6.120   4.106  14.487  0.00  0.00    +0.000 A 
ATOM     20  C   UNL     1       7.224   4.683  15.106  0.00  0.00    +0.000 A 
ATOM     21  C   UNL     1       7.117   5.189  16.409  0.00  0.00    +0.000 A 
BRANCH  19  22
ATOM     22  O   UNL     1       6.113   3.543  13.240  0.00  0.00    +0.000 OA
ATOM     23  C   UNL     1       6.912   4.197  12.262  0.00  0.00    +0.000 C 
ENDBRANCH  19  22
ENDBRANCH  14  16
ENDBRANCH  13  14
ENDBRANCH   1  13
TORSDOF 8
ENDMDL
