MODEL 1
REMARK VINA RESULT:      -7.6      0.000      0.000
REMARK  Name = 
REMARK  5 active torsions:
REMARK  status: ('A' for Active; 'I' for Inactive)
REMARK    1  A    between atoms: C_1  and  C_2
REMARK    2  A    between atoms: C_2  and  O_3
REMARK    3  A    between atoms: O_3  and  C_4
REMARK    4  A    between atoms: C_4  and  C_6
REMARK    5  A    between atoms: C_6  and  C_7
REMARK                            x       y       z     vdW  Elec       q    Type
REMARK                         _______ _______ _______ _____ _____    ______ ____
ROOT
ATOM      1  C   UNL     1       2.346   5.987  19.931  0.00  0.00    +0.000 C 
ATOM      2  N   UNL     1       2.262   6.290  18.496  0.00  0.00    +0.000 N 
ATOM      3  C   UNL     1       3.378   5.952  17.721  0.00  0.00    +0.000 A 
ATOM      4  C   UNL     1       4.286   6.940  17.316  0.00  0.00    +0.000 A 
ATOM      5  C   UNL     1       5.404   6.610  16.544  0.00  0.00    +0.000 A 
ATOM      6  C   UNL     1       5.639   5.284  16.181  0.00  0.00    +0.000 A 
ATOM      7  C   UNL     1       4.751   4.291  16.584  0.00  0.00    +0.000 A 
ATOM      8  C   UNL     1       3.630   4.634  17.355  0.00  0.00    +0.000 A 
ATOM      9  S   UNL     1       2.453   3.398  17.779  0.00  0.00    +0.000 S 
ATOM     10  O   UNL     1       3.038   2.106  17.464  0.00  0.00    +0.000 OA
ATOM     11  O   UNL     1       1.129   3.756  17.305  0.00  0.00    +0.000 OA
ATOM     12  N   UNL     1       2.363   3.429  19.485  0.00  0.00    +0.000 N 
ATOM     13  C   UNL     1       2.231   2.262  20.205  0.00  0.00    +0.000 A 
ATOM     14  C   UNL     1       2.134   2.587  21.534  0.00  0.00    +0.000 A 
ATOM     15  C   UNL     1       2.182   3.997  21.615  0.00  0.00    +0.000 A 
ATOM     16  C   UNL     1       2.277   4.526  20.327  0.00  0.00    +0.000 A 
ATOM     17  H   UNL     1       2.048   7.287  18.351  0.00  0.00    +0.000 HD
ENDROOT
BRANCH   1  18
ATOM     18  C   UNL     1       1.223   6.775  20.651  0.00  0.00    +0.000 C 
BRANCH  18  19
ATOM     19  C   UNL     1       1.509   8.247  20.524  0.00  0.00    +0.000 C 
ATOM     20  O   UNL     1       1.751   8.799  19.456  0.00  0.00    +0.000 OA
BRANCH  19  21
ATOM     21  O   UNL     1       1.585   8.837  21.745  0.00  0.00    +0.000 OA
BRANCH  21  23
ATOM     22  C   UNL     1      -0.141   9.541  23.237  0.00  0.00    +0.000 C 
ATOM     23  C   UNL     1       0.629   9.882  21.973  0.00  0.00    +0.000 C 
ENDBRANCH  21  23
ENDBRANCH  19  21
ENDBRANCH  18  19
ENDBRANCH   1  18
TORSDOF 4
ENDMDL
MODEL 2
REMARK VINA RESULT:      -7.4      0.847      1.203
REMARK  Name = 
REMARK  5 active torsions:
REMARK  status: ('A' for Active; 'I' for Inactive)
REMARK    1  A    between atoms: C_1  and  C_2
REMARK    2  A    between atoms: C_2  and  O_3
REMARK    3  A    between atoms: O_3  and  C_4
REMARK    4  A    between atoms: C_4  and  C_6
REMARK    5  A    between atoms: C_6  and  C_7
REMARK                            x       y       z     vdW  Elec       q    Type
REMARK                         _______ _______ _______ _____ _____    ______ ____
ROOT
ATOM      1  C   UNL     1       2.289   6.033  19.970  0.00  0.00    +0.000 C 
ATOM      2  N   UNL     1       2.229   6.354  18.537  0.00  0.00    +0.000 N 
ATOM      3  C   UNL     1       3.363   6.040  17.779  0.00  0.00    +0.000 A 
ATOM      4  C   UNL     1       4.266   7.045  17.404  0.00  0.00    +0.000 A 
ATOM      5  C   UNL     1       5.402   6.739  16.649  0.00  0.00    +0.000 A 
ATOM      6  C   UNL     1       5.662   5.421  16.274  0.00  0.00    +0.000 A 
ATOM      7  C   UNL     1       4.779   4.412  16.648  0.00  0.00    +0.000 A 
ATOM      8  C   UNL     1       3.639   4.730  17.402  0.00  0.00    +0.000 A 
ATOM      9  S   UNL     1       2.471   3.474  17.788  0.00  0.00    +0.000 S 
ATOM     10  O   UNL     1       3.079   2.193  17.468  0.00  0.00    +0.000 OA
ATOM     11  O   UNL     1       1.152   3.821  17.294  0.00  0.00    +0.000 OA
ATOM     12  N   UNL     1       2.349   3.481  19.492  0.00  0.00    +0.000 N 
ATOM     13  C   UNL     1       2.219   2.304  20.195  0.00  0.00    +0.000 A 
ATOM     14  C   UNL     1       2.093   2.610  21.526  0.00  0.00    +0.000 A 
ATOM     15  C   UNL     1       2.121   4.020  21.626  0.00  0.00    +0.000 A 
ATOM     16  C   UNL     1       2.232   4.566  20.346  0.00  0.00    +0.000 A 
ATOM     17  H   UNL     1       2.004   7.350  18.401  0.00  0.00    +0.000 HD
ENDROOT
BRANCH   1  18
ATOM     18  C   UNL     1       1.144   6.798  20.678  0.00  0.00    +0.000 C 
BRANCH  18  19
ATOM     19  C   UNL     1       1.513   8.254  20.760  0.00  0.00    +0.000 C 
ATOM     20  O   UNL     1       1.737   8.836  21.816  0.00  0.00    +0.000 OA
BRANCH  19  21
ATOM     21  O   UNL     1       1.440   8.845  19.539  0.00  0.00    +0.000 OA
BRANCH  21  23
ATOM     22  C   UNL     1      -0.568  10.132  19.420  0.00  0.00    +0.000 C 
ATOM     23  C   UNL     1       0.945  10.192  19.548  0.00  0.00    +0.000 C 
ENDBRANCH  21  23
ENDBRANCH  19  21
ENDBRANCH  18  19
ENDBRANCH   1  18
TORSDOF 4
ENDMDL
MODEL 3
REMARK VINA RESULT:      -7.2      3.036      5.074
REMARK  Name = 
REMARK  5 active torsions:
REMARK  status: ('A' for Active; 'I' for Inactive)
REMARK    1  A    between atoms: C_1  and  C_2
REMARK    2  A    between atoms: C_2  and  O_3
REMARK    3  A    between atoms: O_3  and  C_4
REMARK    4  A    between atoms: C_4  and  C_6
REMARK    5  A    between atoms: C_6  and  C_7
REMARK                            x       y       z     vdW  Elec       q    Type
REMARK                         _______ _______ _______ _____ _____    ______ ____
ROOT
ATOM      1  C   UNL     1       3.344   3.638  17.027  0.00  0.00    +0.000 C 
ATOM      2  N   UNL     1       4.673   3.056  16.789  0.00  0.00    +0.000 N 
ATOM      3  C   UNL     1       5.524   3.773  15.940  0.00  0.00    +0.000 A 
ATOM      4  C   UNL     1       5.713   3.362  14.613  0.00  0.00    +0.000 A 
ATOM      5  C   UNL     1       6.560   4.074  13.758  0.00  0.00    +0.000 A 
ATOM      6  C   UNL     1       7.217   5.217  14.213  0.00  0.00    +0.000 A 
ATOM      7  C   UNL     1       7.031   5.642  15.526  0.00  0.00    +0.000 A 
ATOM      8  C   UNL     1       6.182   4.919  16.377  0.00  0.00    +0.000 A 
ATOM      9  S   UNL     1       6.026   5.394  18.062  0.00  0.00    +0.000 S 
ATOM     10  O   UNL     1       6.634   6.706  18.208  0.00  0.00    +0.000 OA
ATOM     11  O   UNL     1       6.382   4.300  18.946  0.00  0.00    +0.000 OA
ATOM     12  N   UNL     1       4.355   5.662  18.301  0.00  0.00    +0.000 N 
ATOM     13  C   UNL     1       3.914   6.696  19.097  0.00  0.00    +0.000 A 
ATOM     14  C   UNL     1       2.544   6.643  19.148  0.00  0.00    +0.000 A 
ATOM     15  C   UNL     1       2.148   5.525  18.380  0.00  0.00    +0.000 A 
ATOM     16  C   UNL     1       3.287   4.883  17.889  0.00  0.00    +0.000 A 
ATOM     17  H   UNL     1       4.586   2.093  16.435  0.00  0.00    +0.000 HD
ENDROOT
BRANCH   1  18
ATOM     18  C   UNL     1       2.445   2.536  17.641  0.00  0.00    +0.000 C 
BRANCH  18  19
ATOM     19  C   UNL     1       3.236   1.792  18.682  0.00  0.00    +0.000 C 
ATOM     20  O   UNL     1       3.935   0.817  18.431  0.00  0.00    +0.000 OA
BRANCH  19  21
ATOM     21  O   UNL     1       2.969   2.265  19.927  0.00  0.00    +0.000 OA
BRANCH  21  23
ATOM     22  C   UNL     1       1.466   3.012  21.625  0.00  0.00    +0.000 C 
ATOM     23  C   UNL     1       1.576   2.433  20.225  0.00  0.00    +0.000 C 
ENDBRANCH  21  23
ENDBRANCH  19  21
ENDBRANCH  18  19
ENDBRANCH   1  18
TORSDOF 4
ENDMDL
MODEL 4
REMARK VINA RESULT:      -7.1      2.116      2.576
REMARK  Name = 
REMARK  5 active torsions:
REMARK  status: ('A' for Active; 'I' for Inactive)
REMARK    1  A    between atoms: C_1  and  C_2
REMARK    2  A    between atoms: C_2  and  O_3
REMARK    3  A    between atoms: O_3  and  C_4
REMARK    4  A    between atoms: C_4  and  C_6
REMARK    5  A    between atoms: C_6  and  C_7
REMARK                            x       y       z     vdW  Elec       q    Type
REMARK                         _______ _______ _______ _____ _____    ______ ____
ROOT
ATOM      1  C   UNL     1       3.095   7.024  18.389  0.00  0.00    +0.000 C 
ATOM      2  N   UNL     1       4.022   6.666  17.306  0.00  0.00    +0.000 N 
ATOM      3  C   UNL     1       5.355   6.447  17.674  0.00  0.00    +0.000 A 
ATOM      4  C   UNL     1       6.326   7.429  17.437  0.00  0.00    +0.000 A 
ATOM      5  C   UNL     1       7.660   7.219  17.803  0.00  0.00    +0.000 A 
ATOM      6  C   UNL     1       8.036   6.030  18.427  0.00  0.00    +0.000 A 
ATOM      7  C   UNL     1       7.080   5.050  18.677  0.00  0.00    +0.000 A 
ATOM      8  C   UNL     1       5.746   5.269  18.302  0.00  0.00    +0.000 A 
ATOM      9  S   UNL     1       4.557   3.993  18.524  0.00  0.00    +0.000 S 
ATOM     10  O   UNL     1       5.158   2.972  19.366  0.00  0.00    +0.000 OA
ATOM     11  O   UNL     1       3.924   3.648  17.265  0.00  0.00    +0.000 OA
ATOM     12  N   UNL     1       3.330   4.685  19.491  0.00  0.00    +0.000 N 
ATOM     13  C   UNL     1       2.705   3.947  20.471  0.00  0.00    +0.000 A 
ATOM     14  C   UNL     1       1.739   4.731  21.048  0.00  0.00    +0.000 A 
ATOM     15  C   UNL     1       1.764   5.973  20.375  0.00  0.00    +0.000 A 
ATOM     16  C   UNL     1       2.728   5.926  19.367  0.00  0.00    +0.000 A 
ATOM     17  H   UNL     1       3.996   7.377  16.561  0.00  0.00    +0.000 HD
ENDROOT
BRANCH   1  18
ATOM     18  C   UNL     1       1.809   7.600  17.745  0.00  0.00    +0.000 C 
BRANCH  18  19
ATOM     19  C   UNL     1       1.701   9.057  18.101  0.00  0.00    +0.000 C 
ATOM     20  O   UNL     1       2.190   9.956  17.427  0.00  0.00    +0.000 OA
BRANCH  19  21
ATOM     21  O   UNL     1       1.110   9.221  19.314  0.00  0.00    +0.000 OA
BRANCH  21  23
ATOM     22  C   UNL     1      -0.989  10.341  19.109  0.00  0.00    +0.000 C 
ATOM     23  C   UNL     1       0.469  10.489  19.508  0.00  0.00    +0.000 C 
ENDBRANCH  21  23
ENDBRANCH  19  21
ENDBRANCH  18  19
ENDBRANCH   1  18
TORSDOF 4
ENDMDL
MODEL 5
REMARK VINA RESULT:      -7.1      1.403      1.550
REMARK  Name = 
REMARK  5 active torsions:
REMARK  status: ('A' for Active; 'I' for Inactive)
REMARK    1  A    between atoms: C_1  and  C_2
REMARK    2  A    between atoms: C_2  and  O_3
REMARK    3  A    between atoms: O_3  and  C_4
REMARK    4  A    between atoms: C_4  and  C_6
REMARK    5  A    between atoms: C_6  and  C_7
REMARK                            x       y       z     vdW  Elec       q    Type
REMARK                         _______ _______ _______ _____ _____    ______ ____
ROOT
ATOM      1  C   UNL     1       2.782   6.189  19.541  0.00  0.00    +0.000 C 
ATOM      2  N   UNL     1       2.741   6.315  18.077  0.00  0.00    +0.000 N 
ATOM      3  C   UNL     1       3.769   5.684  17.368  0.00  0.00    +0.000 A 
ATOM      4  C   UNL     1       4.837   6.430  16.853  0.00  0.00    +0.000 A 
ATOM      5  C   UNL     1       5.870   5.807  16.145  0.00  0.00    +0.000 A 
ATOM      6  C   UNL     1       5.857   4.425  15.958  0.00  0.00    +0.000 A 
ATOM      7  C   UNL     1       4.808   3.670  16.473  0.00  0.00    +0.000 A 
ATOM      8  C   UNL     1       3.775   4.305  17.178  0.00  0.00    +0.000 A 
ATOM      9  S   UNL     1       2.397   3.368  17.741  0.00  0.00    +0.000 S 
ATOM     10  O   UNL     1       2.736   1.961  17.603  0.00  0.00    +0.000 OA
ATOM     11  O   UNL     1       1.156   3.896  17.206  0.00  0.00    +0.000 OA
ATOM     12  N   UNL     1       2.331   3.634  19.427  0.00  0.00    +0.000 N 
ATOM     13  C   UNL     1       1.997   2.613  20.289  0.00  0.00    +0.000 A 
ATOM     14  C   UNL     1       1.973   3.118  21.564  0.00  0.00    +0.000 A 
ATOM     15  C   UNL     1       2.277   4.495  21.464  0.00  0.00    +0.000 A 
ATOM     16  C   UNL     1       2.453   4.827  20.120  0.00  0.00    +0.000 A 
ATOM     17  H   UNL     1       2.710   7.307  17.803  0.00  0.00    +0.000 HD
ENDROOT
BRANCH   1  18
ATOM     18  C   UNL     1       1.828   7.253  20.138  0.00  0.00    +0.000 C 
BRANCH  18  19
ATOM     19  C   UNL     1       1.814   8.453  19.230  0.00  0.00    +0.000 C 
ATOM     20  O   UNL     1       2.710   8.707  18.432  0.00  0.00    +0.000 OA
BRANCH  19  21
ATOM     21  O   UNL     1       0.756   9.260  19.504  0.00  0.00    +0.000 OA
BRANCH  21  23
ATOM     22  C   UNL     1      -1.139  10.290  18.479  0.00  0.00    +0.000 C 
ATOM     23  C   UNL     1       0.372  10.137  18.436  0.00  0.00    +0.000 C 
ENDBRANCH  21  23
ENDBRANCH  19  21
ENDBRANCH  18  19
ENDBRANCH   1  18
TORSDOF 4
ENDMDL
MODEL 6
REMARK VINA RESULT:      -6.9      2.622      5.325
REMARK  Name = 
REMARK  5 active torsions:
REMARK  status: ('A' for Active; 'I' for Inactive)
REMARK    1  A    between atoms: C_1  and  C_2
REMARK    2  A    between atoms: C_2  and  O_3
REMARK    3  A    between atoms: O_3  and  C_4
REMARK    4  A    between atoms: C_4  and  C_6
REMARK    5  A    between atoms: C_6  and  C_7
REMARK                            x       y       z     vdW  Elec       q    Type
REMARK                         _______ _______ _______ _____ _____    ______ ____
ROOT
ATOM      1  C   UNL     1       3.919   4.733  16.765  0.00  0.00    +0.000 C 
ATOM      2  N   UNL     1       4.459   5.902  17.474  0.00  0.00    +0.000 N 
ATOM      3  C   UNL     1       3.522   6.790  18.016  0.00  0.00    +0.000 A 
ATOM      4  C   UNL     1       3.238   8.002  17.371  0.00  0.00    +0.000 A 
ATOM      5  C   UNL     1       2.303   8.894  17.905  0.00  0.00    +0.000 A 
ATOM      6  C   UNL     1       1.625   8.577  19.082  0.00  0.00    +0.000 A 
ATOM      7  C   UNL     1       1.890   7.373  19.728  0.00  0.00    +0.000 A 
ATOM      8  C   UNL     1       2.833   6.487  19.186  0.00  0.00    +0.000 A 
ATOM      9  S   UNL     1       3.244   5.014  20.053  0.00  0.00    +0.000 S 
ATOM     10  O   UNL     1       2.262   4.836  21.110  0.00  0.00    +0.000 OA
ATOM     11  O   UNL     1       4.666   4.956  20.335  0.00  0.00    +0.000 OA
ATOM     12  N   UNL     1       2.933   3.743  18.954  0.00  0.00    +0.000 N 
ATOM     13  C   UNL     1       2.387   2.555  19.387  0.00  0.00    +0.000 A 
ATOM     14  C   UNL     1       2.294   1.709  18.311  0.00  0.00    +0.000 A 
ATOM     15  C   UNL     1       2.826   2.401  17.199  0.00  0.00    +0.000 A 
ATOM     16  C   UNL     1       3.270   3.658  17.613  0.00  0.00    +0.000 A 
ATOM     17  H   UNL     1       5.100   6.428  16.864  0.00  0.00    +0.000 HD
ENDROOT
BRANCH   1  18
ATOM     18  C   UNL     1       5.063   4.115  15.924  0.00  0.00    +0.000 C 
BRANCH  18  19
ATOM     19  C   UNL     1       6.117   5.165  15.697  0.00  0.00    +0.000 C 
ATOM     20  O   UNL     1       5.906   6.216  15.102  0.00  0.00    +0.000 OA
BRANCH  19  21
ATOM     21  O   UNL     1       7.333   4.736  16.123  0.00  0.00    +0.000 OA
BRANCH  21  23
ATOM     22  C   UNL     1       7.663   5.972  18.140  0.00  0.00    +0.000 C 
ATOM     23  C   UNL     1       7.459   4.589  17.545  0.00  0.00    +0.000 C 
ENDBRANCH  21  23
ENDBRANCH  19  21
ENDBRANCH  18  19
ENDBRANCH   1  18
TORSDOF 4
ENDMDL
MODEL 7
REMARK VINA RESULT:      -6.8      3.377      6.880
REMARK  Name = 
REMARK  5 active torsions:
REMARK  status: ('A' for Active; 'I' for Inactive)
REMARK    1  A    between atoms: C_1  and  C_2
REMARK    2  A    between atoms: C_2  and  O_3
REMARK    3  A    between atoms: O_3  and  C_4
REMARK    4  A    between atoms: C_4  and  C_6
REMARK    5  A    between atoms: C_6  and  C_7
REMARK                            x       y       z     vdW  Elec       q    Type
REMARK                         _______ _______ _______ _____ _____    ______ ____
ROOT
ATOM      1  C   UNL     1       5.542   3.570  16.673  0.00  0.00    +0.000 C 
ATOM      2  N   UNL     1       4.117   3.803  16.400  0.00  0.00    +0.000 N 
ATOM      3  C   UNL     1       3.227   3.512  17.441  0.00  0.00    +0.000 A 
ATOM      4  C   UNL     1       2.473   2.331  17.420  0.00  0.00    +0.000 A 
ATOM      5  C   UNL     1       1.584   2.032  18.457  0.00  0.00    +0.000 A 
ATOM      6  C   UNL     1       1.450   2.903  19.539  0.00  0.00    +0.000 A 
ATOM      7  C   UNL     1       2.199   4.075  19.577  0.00  0.00    +0.000 A 
ATOM      8  C   UNL     1       3.086   4.367  18.529  0.00  0.00    +0.000 A 
ATOM      9  S   UNL     1       3.957   5.894  18.524  0.00  0.00    +0.000 S 
ATOM     10  O   UNL     1       3.797   6.497  19.837  0.00  0.00    +0.000 OA
ATOM     11  O   UNL     1       3.680   6.647  17.316  0.00  0.00    +0.000 OA
ATOM     12  N   UNL     1       5.610   5.469  18.442  0.00  0.00    +0.000 N 
ATOM     13  C   UNL     1       6.556   6.177  19.150  0.00  0.00    +0.000 A 
ATOM     14  C   UNL     1       7.790   5.652  18.860  0.00  0.00    +0.000 A 
ATOM     15  C   UNL     1       7.583   4.612  17.926  0.00  0.00    +0.000 A 
ATOM     16  C   UNL     1       6.222   4.530  17.628  0.00  0.00    +0.000 A 
ATOM     17  H   UNL     1       3.823   3.286  15.559  0.00  0.00    +0.000 HD
ENDROOT
BRANCH   1  18
ATOM     18  C   UNL     1       6.292   3.564  15.318  0.00  0.00    +0.000 C 
BRANCH  18  19
ATOM     19  C   UNL     1       5.690   4.618  14.428  0.00  0.00    +0.000 C 
ATOM     20  O   UNL     1       5.603   5.799  14.743  0.00  0.00    +0.000 OA
BRANCH  19  21
ATOM     21  O   UNL     1       5.155   4.064  13.309  0.00  0.00    +0.000 OA
BRANCH  21  23
ATOM     22  C   UNL     1       5.415   2.383  11.632  0.00  0.00    +0.000 C 
ATOM     23  C   UNL     1       6.109   3.495  12.401  0.00  0.00    +0.000 C 
ENDBRANCH  21  23
ENDBRANCH  19  21
ENDBRANCH  18  19
ENDBRANCH   1  18
TORSDOF 4
ENDMDL
MODEL 8
REMARK VINA RESULT:      -6.8      2.597      5.795
REMARK  Name = 
REMARK  5 active torsions:
REMARK  status: ('A' for Active; 'I' for Inactive)
REMARK    1  A    between atoms: C_1  and  C_2
REMARK    2  A    between atoms: C_2  and  O_3
REMARK    3  A    between atoms: O_3  and  C_4
REMARK    4  A    between atoms: C_4  and  C_6
REMARK    5  A    between atoms: C_6  and  C_7
REMARK                            x       y       z     vdW  Elec       q    Type
REMARK                         _______ _______ _______ _____ _____    ______ ____
ROOT
ATOM      1  C   UNL     1       5.001   4.687  17.627  0.00  0.00    +0.000 C 
ATOM      2  N   UNL     1       4.474   3.319  17.728  0.00  0.00    +0.000 N 
ATOM      3  C   UNL     1       4.061   2.903  19.000  0.00  0.00    +0.000 A 
ATOM      4  C   UNL     1       4.873   2.058  19.768  0.00  0.00    +0.000 A 
ATOM      5  C   UNL     1       4.469   1.639  21.039  0.00  0.00    +0.000 A 
ATOM      6  C   UNL     1       3.254   2.074  21.568  0.00  0.00    +0.000 A 
ATOM      7  C   UNL     1       2.441   2.922  20.820  0.00  0.00    +0.000 A 
ATOM      8  C   UNL     1       2.854   3.332  19.543  0.00  0.00    +0.000 A 
ATOM      9  S   UNL     1       1.785   4.319  18.556  0.00  0.00    +0.000 S 
ATOM     10  O   UNL     1       0.707   4.790  19.410  0.00  0.00    +0.000 OA
ATOM     11  O   UNL     1       1.507   3.674  17.287  0.00  0.00    +0.000 OA
ATOM     12  N   UNL     1       2.685   5.722  18.181  0.00  0.00    +0.000 N 
ATOM     13  C   UNL     1       2.081   6.958  18.146  0.00  0.00    +0.000 A 
ATOM     14  C   UNL     1       3.021   7.885  17.773  0.00  0.00    +0.000 A 
ATOM     15  C   UNL     1       4.225   7.179  17.551  0.00  0.00    +0.000 A 
ATOM     16  C   UNL     1       4.001   5.818  17.760  0.00  0.00    +0.000 A 
ATOM     17  H   UNL     1       5.159   2.641  17.365  0.00  0.00    +0.000 HD
ENDROOT
BRANCH   1  18
ATOM     18  C   UNL     1       5.751   4.809  16.277  0.00  0.00    +0.000 C 
BRANCH  18  19
ATOM     19  C   UNL     1       7.206   5.070  16.555  0.00  0.00    +0.000 C 
ATOM     20  O   UNL     1       8.003   4.191  16.865  0.00  0.00    +0.000 OA
BRANCH  19  21
ATOM     21  O   UNL     1       7.476   6.402  16.539  0.00  0.00    +0.000 OA
BRANCH  21  23
ATOM     22  C   UNL     1       7.828   8.485  17.652  0.00  0.00    +0.000 C 
ATOM     23  C   UNL     1       7.756   6.977  17.823  0.00  0.00    +0.000 C 
ENDBRANCH  21  23
ENDBRANCH  19  21
ENDBRANCH  18  19
ENDBRANCH   1  18
TORSDOF 4
ENDMDL
MODEL 9
REMARK VINA RESULT:      -6.7      2.782      5.963
REMARK  Name = 
REMARK  5 active torsions:
REMARK  status: ('A' for Active; 'I' for Inactive)
REMARK    1  A    between atoms: C_1  and  C_2
REMARK    2  A    between atoms: C_2  and  O_3
REMARK    3  A    between atoms: O_3  and  C_4
REMARK    4  A    between atoms: C_4  and  C_6
REMARK    5  A    between atoms: C_6  and  C_7
REMARK                            x       y       z     vdW  Elec       q    Type
REMARK                         _______ _______ _______ _____ _____    ______ ____
ROOT
ATOM      1  C   UNL     1       4.326   4.608  16.551  0.00  0.00    +0.000 C 
ATOM      2  N   UNL     1       4.808   5.844  17.183  0.00  0.00    +0.000 N 
ATOM      3  C   UNL     1       3.834   6.677  17.745  0.00  0.00    +0.000 A 
ATOM      4  C   UNL     1       3.418   7.835  17.073  0.00  0.00    +0.000 A 
ATOM      5  C   UNL     1       2.444   8.671  17.627  0.00  0.00    +0.000 A 
ATOM      6  C   UNL     1       1.860   8.352  18.853  0.00  0.00    +0.000 A 
ATOM      7  C   UNL     1       2.257   7.201  19.527  0.00  0.00    +0.000 A 
ATOM      8  C   UNL     1       3.238   6.370  18.964  0.00  0.00    +0.000 A 
ATOM      9  S   UNL     1       3.814   4.972  19.860  0.00  0.00    +0.000 S 
ATOM     10  O   UNL     1       2.910   4.761  20.978  0.00  0.00    +0.000 OA
ATOM     11  O   UNL     1       5.249   5.037  20.060  0.00  0.00    +0.000 OA
ATOM     12  N   UNL     1       3.547   3.636  18.829  0.00  0.00    +0.000 N 
ATOM     13  C   UNL     1       3.124   2.427  19.337  0.00  0.00    +0.000 A 
ATOM     14  C   UNL     1       3.041   1.532  18.301  0.00  0.00    +0.000 A 
ATOM     15  C   UNL     1       3.453   2.217  17.134  0.00  0.00    +0.000 A 
ATOM     16  C   UNL     1       3.816   3.521  17.475  0.00  0.00    +0.000 A 
ATOM     17  H   UNL     1       5.370   6.393  16.517  0.00  0.00    +0.000 HD
ENDROOT
BRANCH   1  18
ATOM     18  C   UNL     1       5.469   4.047  15.668  0.00  0.00    +0.000 C 
BRANCH  18  19
ATOM     19  C   UNL     1       6.778   4.592  16.170  0.00  0.00    +0.000 C 
ATOM     20  O   UNL     1       7.154   4.485  17.332  0.00  0.00    +0.000 OA
BRANCH  19  21
ATOM     21  O   UNL     1       7.409   5.312  15.206  0.00  0.00    +0.000 OA
BRANCH  21  23
ATOM     22  C   UNL     1       8.127   5.490  12.935  0.00  0.00    +0.000 C 
ATOM     23  C   UNL     1       7.037   4.979  13.861  0.00  0.00    +0.000 C 
ENDBRANCH  21  23
ENDBRANCH  19  21
ENDBRANCH  18  19
ENDBRANCH   1  18
TORSDOF 4
ENDMDL
