MODEL 1
REMARK VINA RESULT:      -5.8      0.000      0.000
REMARK  Name = 
REMARK  6 active torsions:
REMARK  status: ('A' for Active; 'I' for Inactive)
REMARK    1  A    between atoms: C_2  and  C_3
REMARK    2  A    between atoms: C_7  and  S_8
REMARK    3  A    between atoms: S_8  and  C_9
REMARK    4  A    between atoms: C_14  and  N_15
REMARK    5  A    between atoms: C_16  and  C_17
REMARK    6  A    between atoms: C_19  and  C_20
REMARK                            x       y       z     vdW  Elec       q    Type
REMARK                         _______ _______ _______ _____ _____    ______ ____
ROOT
ATOM      1  C   UNL     1      -4.937  12.177  19.128  0.00  0.00    +0.000 A 
ATOM      2  C   UNL     1      -3.746  11.986  18.429  0.00  0.00    +0.000 A 
ATOM      3  N   UNL     1      -3.705  11.712  17.066  0.00  0.00    +0.000 N 
ATOM      4  N   UNL     1      -2.542  12.141  19.003  0.00  0.00    +0.000 NA
ATOM      5  C   UNL     1      -2.478  12.517  20.308  0.00  0.00    +0.000 A 
ATOM      6  C   UNL     1      -3.615  12.678  21.103  0.00  0.00    +0.000 A 
ATOM      7  C   UNL     1      -4.883  12.520  20.497  0.00  0.00    +0.000 A 
ATOM      8  H   UNL     1      -4.320  10.969  16.753  0.00  0.00    +0.000 HD
ATOM      9  H   UNL     1      -2.742  11.570  16.775  0.00  0.00    +0.000 HD
ENDROOT
BRANCH   7  10
ATOM     10  C   UNL     1      -6.123  12.751  21.249  0.00  0.00    +0.000 A 
ATOM     11  C   UNL     1      -6.880  13.856  21.592  0.00  0.00    +0.000 A 
ATOM     12  C   UNL     1      -7.917  13.394  22.440  0.00  0.00    +0.000 A 
ATOM     13  C   UNL     1      -7.751  12.034  22.537  0.00  0.00    +0.000 A 
ATOM     14  O   UNL     1      -6.660  11.641  21.833  0.00  0.00    +0.000 OA
ENDBRANCH   7  10
BRANCH   1  16
ATOM     15  N   UNL     1      -7.149  11.877  17.809  0.00  0.00    +0.000 NA
ATOM     16  C   UNL     1      -6.176  12.018  18.424  0.00  0.00    +0.000 C 
ENDBRANCH   1  16
BRANCH   6  17
ATOM     17  C   UNL     1      -3.471  12.934  22.510  0.00  0.00    +0.000 C 
ATOM     18  N   UNL     1      -3.373  13.097  23.656  0.00  0.00    +0.000 NA
ENDBRANCH   6  17
BRANCH   5  19
ATOM     19  S   UNL     1      -0.808  12.674  20.919  0.00  0.00    +0.000 S 
BRANCH  19  20
ATOM     20  C   UNL     1      -0.244  10.971  21.064  0.00  0.00    +0.000 A 
ATOM     21  C   UNL     1       0.505  10.463  19.988  0.00  0.00    +0.000 A 
ATOM     22  C   UNL     1       1.089   9.196  20.052  0.00  0.00    +0.000 A 
ATOM     23  C   UNL     1       0.926   8.414  21.191  0.00  0.00    +0.000 A 
ATOM     24  C   UNL     1       0.189   8.907  22.266  0.00  0.00    +0.000 A 
ATOM     25  C   UNL     1      -0.368  10.196  22.238  0.00  0.00    +0.000 A 
BRANCH  25  26
ATOM     26  N   UNL     1      -1.178  10.577  23.318  0.00  0.00    +0.000 N 
ATOM     27  H   UNL     1      -0.673  10.961  24.108  0.00  0.00    +0.000 HD
ATOM     28  H   UNL     1      -1.991  11.133  23.050  0.00  0.00    +0.000 HD
ENDBRANCH  25  26
ENDBRANCH  19  20
ENDBRANCH   5  19
TORSDOF 6
ENDMDL
MODEL 2
REMARK VINA RESULT:      -5.8      8.658     11.835
REMARK  Name = 
REMARK  6 active torsions:
REMARK  status: ('A' for Active; 'I' for Inactive)
REMARK    1  A    between atoms: C_2  and  C_3
REMARK    2  A    between atoms: C_7  and  S_8
REMARK    3  A    between atoms: S_8  and  C_9
REMARK    4  A    between atoms: C_14  and  N_15
REMARK    5  A    between atoms: C_16  and  C_17
REMARK    6  A    between atoms: C_19  and  C_20
REMARK                            x       y       z     vdW  Elec       q    Type
REMARK                         _______ _______ _______ _____ _____    ______ ____
ROOT
ATOM      1  C   UNL     1       3.283   4.277  18.136  0.00  0.00    +0.000 A 
ATOM      2  C   UNL     1       4.084   3.218  17.713  0.00  0.00    +0.000 A 
ATOM      3  N   UNL     1       3.678   1.889  17.780  0.00  0.00    +0.000 N 
ATOM      4  N   UNL     1       5.276   3.407  17.124  0.00  0.00    +0.000 NA
ATOM      5  C   UNL     1       5.711   4.678  16.913  0.00  0.00    +0.000 A 
ATOM      6  C   UNL     1       5.005   5.800  17.351  0.00  0.00    +0.000 A 
ATOM      7  C   UNL     1       3.747   5.600  17.968  0.00  0.00    +0.000 A 
ATOM      8  H   UNL     1       3.298   1.595  18.674  0.00  0.00    +0.000 HD
ATOM      9  H   UNL     1       4.429   1.285  17.459  0.00  0.00    +0.000 HD
ENDROOT
BRANCH   7  10
ATOM     10  C   UNL     1       2.912   6.734  18.382  0.00  0.00    +0.000 A 
ATOM     11  C   UNL     1       2.334   7.820  17.750  0.00  0.00    +0.000 A 
ATOM     12  C   UNL     1       1.738   8.612  18.762  0.00  0.00    +0.000 A 
ATOM     13  C   UNL     1       1.956   7.947  19.944  0.00  0.00    +0.000 A 
ATOM     14  O   UNL     1       2.679   6.821  19.724  0.00  0.00    +0.000 OA
ENDBRANCH   7  10
BRANCH   1  16
ATOM     15  N   UNL     1       0.984   3.690  19.182  0.00  0.00    +0.000 NA
ATOM     16  C   UNL     1       2.012   3.979  18.729  0.00  0.00    +0.000 C 
ENDBRANCH   1  16
BRANCH   6  17
ATOM     17  C   UNL     1       5.592   7.105  17.225  0.00  0.00    +0.000 C 
ATOM     18  N   UNL     1       6.105   8.145  17.145  0.00  0.00    +0.000 NA
ENDBRANCH   6  17
BRANCH   5  19
ATOM     19  S   UNL     1       7.312   4.756  16.126  0.00  0.00    +0.000 S 
BRANCH  19  20
ATOM     20  C   UNL     1       6.957   4.397  14.399  0.00  0.00    +0.000 A 
ATOM     21  C   UNL     1       5.863   3.552  14.144  0.00  0.00    +0.000 A 
ATOM     22  C   UNL     1       5.431   3.307  12.839  0.00  0.00    +0.000 A 
ATOM     23  C   UNL     1       6.092   3.897  11.767  0.00  0.00    +0.000 A 
ATOM     24  C   UNL     1       7.177   4.739  12.006  0.00  0.00    +0.000 A 
ATOM     25  C   UNL     1       7.597   5.033  13.313  0.00  0.00    +0.000 A 
BRANCH  25  26
ATOM     26  N   UNL     1       8.756   5.810  13.463  0.00  0.00    +0.000 N 
ATOM     27  H   UNL     1       9.570   5.296  13.781  0.00  0.00    +0.000 HD
ATOM     28  H   UNL     1       8.949   6.422  12.670  0.00  0.00    +0.000 HD
ENDBRANCH  25  26
ENDBRANCH  19  20
ENDBRANCH   5  19
TORSDOF 6
ENDMDL
MODEL 3
REMARK VINA RESULT:      -5.7      5.690      8.076
REMARK  Name = 
REMARK  6 active torsions:
REMARK  status: ('A' for Active; 'I' for Inactive)
REMARK    1  A    between atoms: C_2  and  C_3
REMARK    2  A    between atoms: C_7  and  S_8
REMARK    3  A    between atoms: S_8  and  C_9
REMARK    4  A    between atoms: C_14  and  N_15
REMARK    5  A    between atoms: C_16  and  C_17
REMARK    6  A    between atoms: C_19  and  C_20
REMARK                            x       y       z     vdW  Elec       q    Type
REMARK                         _______ _______ _______ _____ _____    ______ ____
ROOT
ATOM      1  C   UNL     1       1.519   9.630  19.254  0.00  0.00    +0.000 A 
ATOM      2  C   UNL     1       2.166   9.432  18.036  0.00  0.00    +0.000 A 
ATOM      3  N   UNL     1       2.418  10.464  17.138  0.00  0.00    +0.000 N 
ATOM      4  N   UNL     1       2.678   8.244  17.677  0.00  0.00    +0.000 NA
ATOM      5  C   UNL     1       2.578   7.197  18.540  0.00  0.00    +0.000 A 
ATOM      6  C   UNL     1       1.900   7.284  19.757  0.00  0.00    +0.000 A 
ATOM      7  C   UNL     1       1.366   8.538  20.137  0.00  0.00    +0.000 A 
ATOM      8  H   UNL     1       1.624  11.058  16.924  0.00  0.00    +0.000 HD
ATOM      9  H   UNL     1       2.861  10.091  16.304  0.00  0.00    +0.000 HD
ENDROOT
BRANCH   7  10
ATOM     10  C   UNL     1       0.710   8.725  21.437  0.00  0.00    +0.000 A 
ATOM     11  C   UNL     1      -0.583   8.615  21.917  0.00  0.00    +0.000 A 
ATOM     12  C   UNL     1      -0.556   9.051  23.264  0.00  0.00    +0.000 A 
ATOM     13  C   UNL     1       0.752   9.368  23.537  0.00  0.00    +0.000 A 
ATOM     14  O   UNL     1       1.520   9.189  22.433  0.00  0.00    +0.000 OA
ENDBRANCH   7  10
BRANCH   1  16
ATOM     15  N   UNL     1       0.668  12.023  19.776  0.00  0.00    +0.000 NA
ATOM     16  C   UNL     1       1.031  10.942  19.565  0.00  0.00    +0.000 C 
ENDBRANCH   1  16
BRANCH   6  17
ATOM     17  C   UNL     1       1.708   6.103  20.552  0.00  0.00    +0.000 C 
ATOM     18  N   UNL     1       1.562   5.121  21.156  0.00  0.00    +0.000 NA
ENDBRANCH   6  17
BRANCH   5  19
ATOM     19  S   UNL     1       3.303   5.691  17.911  0.00  0.00    +0.000 S 
BRANCH  19  20
ATOM     20  C   UNL     1       5.073   5.965  18.078  0.00  0.00    +0.000 A 
ATOM     21  C   UNL     1       5.677   5.477  19.250  0.00  0.00    +0.000 A 
ATOM     22  C   UNL     1       7.062   5.532  19.423  0.00  0.00    +0.000 A 
ATOM     23  C   UNL     1       7.863   6.085  18.430  0.00  0.00    +0.000 A 
ATOM     24  C   UNL     1       7.277   6.571  17.262  0.00  0.00    +0.000 A 
ATOM     25  C   UNL     1       5.892   6.483  17.051  0.00  0.00    +0.000 A 
BRANCH  25  26
ATOM     26  N   UNL     1       5.372   7.083  15.894  0.00  0.00    +0.000 N 
ATOM     27  H   UNL     1       6.060   7.553  15.317  0.00  0.00    +0.000 HD
ATOM     28  H   UNL     1       4.742   6.481  15.363  0.00  0.00    +0.000 HD
ENDBRANCH  25  26
ENDBRANCH  19  20
ENDBRANCH   5  19
TORSDOF 6
ENDMDL
MODEL 4
REMARK VINA RESULT:      -5.7      1.240      1.668
REMARK  Name = 
REMARK  6 active torsions:
REMARK  status: ('A' for Active; 'I' for Inactive)
REMARK    1  A    between atoms: C_2  and  C_3
REMARK    2  A    between atoms: C_7  and  S_8
REMARK    3  A    between atoms: S_8  and  C_9
REMARK    4  A    between atoms: C_14  and  N_15
REMARK    5  A    between atoms: C_16  and  C_17
REMARK    6  A    between atoms: C_19  and  C_20
REMARK                            x       y       z     vdW  Elec       q    Type
REMARK                         _______ _______ _______ _____ _____    ______ ____
ROOT
ATOM      1  C   UNL     1      -5.137  12.494  20.104  0.00  0.00    +0.000 A 
ATOM      2  C   UNL     1      -3.992  12.289  19.335  0.00  0.00    +0.000 A 
ATOM      3  N   UNL     1      -4.039  11.938  17.989  0.00  0.00    +0.000 N 
ATOM      4  N   UNL     1      -2.756  12.503  19.812  0.00  0.00    +0.000 NA
ATOM      5  C   UNL     1      -2.612  12.954  21.087  0.00  0.00    +0.000 A 
ATOM      6  C   UNL     1      -3.694  13.136  21.950  0.00  0.00    +0.000 A 
ATOM      7  C   UNL     1      -4.997  12.915  21.444  0.00  0.00    +0.000 A 
ATOM      8  H   UNL     1      -4.655  11.165  17.762  0.00  0.00    +0.000 HD
ATOM      9  H   UNL     1      -3.096  11.801  17.639  0.00  0.00    +0.000 HD
ENDROOT
BRANCH   7  10
ATOM     10  C   UNL     1      -6.187  13.162  22.269  0.00  0.00    +0.000 A 
ATOM     11  C   UNL     1      -6.970  14.261  22.570  0.00  0.00    +0.000 A 
ATOM     12  C   UNL     1      -7.916  13.836  23.535  0.00  0.00    +0.000 A 
ATOM     13  C   UNL     1      -7.678  12.499  23.739  0.00  0.00    +0.000 A 
ATOM     14  O   UNL     1      -6.624  12.089  22.989  0.00  0.00    +0.000 OA
ENDBRANCH   7  10
BRANCH   1  16
ATOM     15  N   UNL     1      -7.434  12.110  18.965  0.00  0.00    +0.000 NA
ATOM     16  C   UNL     1      -6.417  12.268  19.500  0.00  0.00    +0.000 C 
ENDBRANCH   1  16
BRANCH   6  17
ATOM     17  C   UNL     1      -3.459  13.475  23.326  0.00  0.00    +0.000 C 
ATOM     18  N   UNL     1      -3.247  13.707  24.445  0.00  0.00    +0.000 NA
ENDBRANCH   6  17
BRANCH   5  19
ATOM     19  S   UNL     1      -0.908  13.182  21.568  0.00  0.00    +0.000 S 
BRANCH  19  20
ATOM     20  C   UNL     1      -0.272  11.504  21.698  0.00  0.00    +0.000 A 
ATOM     21  C   UNL     1      -0.684  10.760  22.818  0.00  0.00    +0.000 A 
ATOM     22  C   UNL     1      -0.344   9.413  22.952  0.00  0.00    +0.000 A 
ATOM     23  C   UNL     1       0.421   8.789  21.972  0.00  0.00    +0.000 A 
ATOM     24  C   UNL     1       0.834   9.514  20.855  0.00  0.00    +0.000 A 
ATOM     25  C   UNL     1       0.464  10.857  20.681  0.00  0.00    +0.000 A 
BRANCH  25  26
ATOM     26  N   UNL     1       1.002  11.542  19.581  0.00  0.00    +0.000 N 
ATOM     27  H   UNL     1       1.225  12.514  19.757  0.00  0.00    +0.000 HD
ATOM     28  H   UNL     1       1.750  11.036  19.104  0.00  0.00    +0.000 HD
ENDBRANCH  25  26
ENDBRANCH  19  20
ENDBRANCH   5  19
TORSDOF 6
ENDMDL
MODEL 5
REMARK VINA RESULT:      -5.6      0.874      1.440
REMARK  Name = 
REMARK  6 active torsions:
REMARK  status: ('A' for Active; 'I' for Inactive)
REMARK    1  A    between atoms: C_2  and  C_3
REMARK    2  A    between atoms: C_7  and  S_8
REMARK    3  A    between atoms: S_8  and  C_9
REMARK    4  A    between atoms: C_14  and  N_15
REMARK    5  A    between atoms: C_16  and  C_17
REMARK    6  A    between atoms: C_19  and  C_20
REMARK                            x       y       z     vdW  Elec       q    Type
REMARK                         _______ _______ _______ _____ _____    ______ ____
ROOT
ATOM      1  C   UNL     1      -4.623  12.103  18.958  0.00  0.00    +0.000 A 
ATOM      2  C   UNL     1      -3.373  11.949  18.361  0.00  0.00    +0.000 A 
ATOM      3  N   UNL     1      -3.211  11.629  17.017  0.00  0.00    +0.000 N 
ATOM      4  N   UNL     1      -2.227  12.188  19.019  0.00  0.00    +0.000 NA
ATOM      5  C   UNL     1      -2.285  12.614  20.309  0.00  0.00    +0.000 A 
ATOM      6  C   UNL     1      -3.487  12.744  21.007  0.00  0.00    +0.000 A 
ATOM      7  C   UNL     1      -4.695  12.497  20.312  0.00  0.00    +0.000 A 
ATOM      8  H   UNL     1      -3.762  10.843  16.689  0.00  0.00    +0.000 HD
ATOM      9  H   UNL     1      -2.223  11.527  16.806  0.00  0.00    +0.000 HD
ENDROOT
BRANCH   7  10
ATOM     10  C   UNL     1      -5.999  12.690  20.958  0.00  0.00    +0.000 A 
ATOM     11  C   UNL     1      -6.855  13.758  21.159  0.00  0.00    +0.000 A 
ATOM     12  C   UNL     1      -7.916  13.283  21.969  0.00  0.00    +0.000 A 
ATOM     13  C   UNL     1      -7.665  11.950  22.183  0.00  0.00    +0.000 A 
ATOM     14  O   UNL     1      -6.500  11.589  21.590  0.00  0.00    +0.000 OA
ENDBRANCH   7  10
BRANCH   1  16
ATOM     15  N   UNL     1      -6.746  11.706  17.523  0.00  0.00    +0.000 NA
ATOM     16  C   UNL     1      -5.794  11.854  18.169  0.00  0.00    +0.000 C 
ENDBRANCH   1  16
BRANCH   6  17
ATOM     17  C   UNL     1      -3.467  13.058  22.409  0.00  0.00    +0.000 C 
ATOM     18  N   UNL     1      -3.471  13.269  23.552  0.00  0.00    +0.000 NA
ENDBRANCH   6  17
BRANCH   5  19
ATOM     19  S   UNL     1      -0.678  12.881  21.039  0.00  0.00    +0.000 S 
BRANCH  19  20
ATOM     20  C   UNL     1      -0.064  11.216  21.342  0.00  0.00    +0.000 A 
ATOM     21  C   UNL     1      -0.379  10.647  22.588  0.00  0.00    +0.000 A 
ATOM     22  C   UNL     1      -0.053   9.320  22.876  0.00  0.00    +0.000 A 
ATOM     23  C   UNL     1       0.600   8.544  21.925  0.00  0.00    +0.000 A 
ATOM     24  C   UNL     1       0.916   9.096  20.684  0.00  0.00    +0.000 A 
ATOM     25  C   UNL     1       0.556  10.413  20.360  0.00  0.00    +0.000 A 
BRANCH  25  26
ATOM     26  N   UNL     1       0.997  10.923  19.129  0.00  0.00    +0.000 N 
ATOM     27  H   UNL     1       1.698  10.357  18.665  0.00  0.00    +0.000 HD
ATOM     28  H   UNL     1       0.242  11.219  18.510  0.00  0.00    +0.000 HD
ENDBRANCH  25  26
ENDBRANCH  19  20
ENDBRANCH   5  19
TORSDOF 6
ENDMDL
MODEL 6
REMARK VINA RESULT:      -5.6      5.740      7.999
REMARK  Name = 
REMARK  6 active torsions:
REMARK  status: ('A' for Active; 'I' for Inactive)
REMARK    1  A    between atoms: C_2  and  C_3
REMARK    2  A    between atoms: C_7  and  S_8
REMARK    3  A    between atoms: S_8  and  C_9
REMARK    4  A    between atoms: C_14  and  N_15
REMARK    5  A    between atoms: C_16  and  C_17
REMARK    6  A    between atoms: C_19  and  C_20
REMARK                            x       y       z     vdW  Elec       q    Type
REMARK                         _______ _______ _______ _____ _____    ______ ____
ROOT
ATOM      1  C   UNL     1       1.590   9.710  19.217  0.00  0.00    +0.000 A 
ATOM      2  C   UNL     1       2.241   9.559  17.994  0.00  0.00    +0.000 A 
ATOM      3  N   UNL     1       2.499  10.624  17.138  0.00  0.00    +0.000 N 
ATOM      4  N   UNL     1       2.751   8.384  17.590  0.00  0.00    +0.000 NA
ATOM      5  C   UNL     1       2.645   7.304  18.411  0.00  0.00    +0.000 A 
ATOM      6  C   UNL     1       1.963   7.345  19.628  0.00  0.00    +0.000 A 
ATOM      7  C   UNL     1       1.431   8.585  20.055  0.00  0.00    +0.000 A 
ATOM      8  H   UNL     1       1.707  11.228  16.945  0.00  0.00    +0.000 HD
ATOM      9  H   UNL     1       2.944  10.283  16.291  0.00  0.00    +0.000 HD
ENDROOT
BRANCH   7  10
ATOM     10  C   UNL     1       0.771   8.723  21.359  0.00  0.00    +0.000 A 
ATOM     11  C   UNL     1      -0.513   8.542  21.841  0.00  0.00    +0.000 A 
ATOM     12  C   UNL     1      -0.504   8.962  23.194  0.00  0.00    +0.000 A 
ATOM     13  C   UNL     1       0.789   9.340  23.467  0.00  0.00    +0.000 A 
ATOM     14  O   UNL     1       1.560   9.214  22.359  0.00  0.00    +0.000 OA
ENDBRANCH   7  10
BRANCH   1  16
ATOM     15  N   UNL     1       0.728  12.081  19.819  0.00  0.00    +0.000 NA
ATOM     16  C   UNL     1       1.104  11.010  19.577  0.00  0.00    +0.000 C 
ENDBRANCH   1  16
BRANCH   6  17
ATOM     17  C   UNL     1       1.765   6.134  20.375  0.00  0.00    +0.000 C 
ATOM     18  N   UNL     1       1.651   5.144  20.972  0.00  0.00    +0.000 NA
ENDBRANCH   6  17
BRANCH   5  19
ATOM     19  S   UNL     1       3.368   5.822  17.725  0.00  0.00    +0.000 S 
BRANCH  19  20
ATOM     20  C   UNL     1       5.136   6.060  17.959  0.00  0.00    +0.000 A 
ATOM     21  C   UNL     1       5.729   7.112  17.239  0.00  0.00    +0.000 A 
ATOM     22  C   UNL     1       7.068   7.455  17.439  0.00  0.00    +0.000 A 
ATOM     23  C   UNL     1       7.836   6.747  18.356  0.00  0.00    +0.000 A 
ATOM     24  C   UNL     1       7.259   5.704  19.079  0.00  0.00    +0.000 A 
ATOM     25  C   UNL     1       5.904   5.373  18.924  0.00  0.00    +0.000 A 
BRANCH  25  26
ATOM     26  N   UNL     1       5.427   4.249  19.615  0.00  0.00    +0.000 N 
ATOM     27  H   UNL     1       5.203   4.416  20.589  0.00  0.00    +0.000 HD
ATOM     28  H   UNL     1       4.700   3.735  19.116  0.00  0.00    +0.000 HD
ENDBRANCH  25  26
ENDBRANCH  19  20
ENDBRANCH   5  19
TORSDOF 6
ENDMDL
MODEL 7
REMARK VINA RESULT:      -5.5      1.407      1.973
REMARK  Name = 
REMARK  6 active torsions:
REMARK  status: ('A' for Active; 'I' for Inactive)
REMARK    1  A    between atoms: C_2  and  C_3
REMARK    2  A    between atoms: C_7  and  S_8
REMARK    3  A    between atoms: S_8  and  C_9
REMARK    4  A    between atoms: C_14  and  N_15
REMARK    5  A    between atoms: C_16  and  C_17
REMARK    6  A    between atoms: C_19  and  C_20
REMARK                            x       y       z     vdW  Elec       q    Type
REMARK                         _______ _______ _______ _____ _____    ______ ____
ROOT
ATOM      1  C   UNL     1      -4.448  11.846  18.743  0.00  0.00    +0.000 A 
ATOM      2  C   UNL     1      -3.455  11.390  17.878  0.00  0.00    +0.000 A 
ATOM      3  N   UNL     1      -3.736  10.758  16.671  0.00  0.00    +0.000 N 
ATOM      4  N   UNL     1      -2.150  11.607  18.103  0.00  0.00    +0.000 NA
ATOM      5  C   UNL     1      -1.780  12.314  19.204  0.00  0.00    +0.000 A 
ATOM      6  C   UNL     1      -2.697  12.763  20.155  0.00  0.00    +0.000 A 
ATOM      7  C   UNL     1      -4.074  12.539  19.915  0.00  0.00    +0.000 A 
ATOM      8  H   UNL     1      -4.412  10.004  16.722  0.00  0.00    +0.000 HD
ATOM      9  H   UNL     1      -2.870  10.475  16.223  0.00  0.00    +0.000 HD
ENDROOT
BRANCH   7  10
ATOM     10  C   UNL     1      -5.101  13.051  20.831  0.00  0.00    +0.000 A 
ATOM     11  C   UNL     1      -5.784  14.244  20.983  0.00  0.00    +0.000 A 
ATOM     12  C   UNL     1      -6.572  14.117  22.154  0.00  0.00    +0.000 A 
ATOM     13  C   UNL     1      -6.350  12.847  22.626  0.00  0.00    +0.000 A 
ATOM     14  O   UNL     1      -5.450  12.203  21.841  0.00  0.00    +0.000 OA
ENDBRANCH   7  10
BRANCH   1  16
ATOM     15  N   UNL     1      -6.910  11.356  18.092  0.00  0.00    +0.000 NA
ATOM     16  C   UNL     1      -5.818  11.593  18.406  0.00  0.00    +0.000 C 
ENDBRANCH   1  16
BRANCH   6  17
ATOM     17  C   UNL     1      -2.226  13.376  21.366  0.00  0.00    +0.000 C 
ATOM     18  N   UNL     1      -1.886  13.859  22.367  0.00  0.00    +0.000 NA
ENDBRANCH   6  17
BRANCH   5  19
ATOM     19  S   UNL     1      -0.012  12.510  19.358  0.00  0.00    +0.000 S 
BRANCH  19  20
ATOM     20  C   UNL     1       0.543  10.914  19.978  0.00  0.00    +0.000 A 
ATOM     21  C   UNL     1       0.275  10.637  21.330  0.00  0.00    +0.000 A 
ATOM     22  C   UNL     1       0.557   9.383  21.877  0.00  0.00    +0.000 A 
ATOM     23  C   UNL     1       1.118   8.390  21.082  0.00  0.00    +0.000 A 
ATOM     24  C   UNL     1       1.386   8.651  19.739  0.00  0.00    +0.000 A 
ATOM     25  C   UNL     1       1.068   9.890  19.160  0.00  0.00    +0.000 A 
BRANCH  25  26
ATOM     26  N   UNL     1       1.460  10.105  17.830  0.00  0.00    +0.000 N 
ATOM     27  H   UNL     1       1.910  10.997  17.662  0.00  0.00    +0.000 HD
ATOM     28  H   UNL     1       1.957   9.317  17.413  0.00  0.00    +0.000 HD
ENDBRANCH  25  26
ENDBRANCH  19  20
ENDBRANCH   5  19
TORSDOF 6
ENDMDL
MODEL 8
REMARK VINA RESULT:      -5.5      1.709      3.679
REMARK  Name = 
REMARK  6 active torsions:
REMARK  status: ('A' for Active; 'I' for Inactive)
REMARK    1  A    between atoms: C_2  and  C_3
REMARK    2  A    between atoms: C_7  and  S_8
REMARK    3  A    between atoms: S_8  and  C_9
REMARK    4  A    between atoms: C_14  and  N_15
REMARK    5  A    between atoms: C_16  and  C_17
REMARK    6  A    between atoms: C_19  and  C_20
REMARK                            x       y       z     vdW  Elec       q    Type
REMARK                         _______ _______ _______ _____ _____    ______ ____
ROOT
ATOM      1  C   UNL     1      -5.024  13.042  22.732  0.00  0.00    +0.000 A 
ATOM      2  C   UNL     1      -4.028  13.363  23.653  0.00  0.00    +0.000 A 
ATOM      3  N   UNL     1      -4.297  13.643  24.989  0.00  0.00    +0.000 N 
ATOM      4  N   UNL     1      -2.723  13.338  23.341  0.00  0.00    +0.000 NA
ATOM      5  C   UNL     1      -2.354  12.967  22.085  0.00  0.00    +0.000 A 
ATOM      6  C   UNL     1      -3.279  12.682  21.080  0.00  0.00    +0.000 A 
ATOM      7  C   UNL     1      -4.655  12.704  21.411  0.00  0.00    +0.000 A 
ATOM      8  H   UNL     1      -5.038  14.317  25.151  0.00  0.00    +0.000 HD
ATOM      9  H   UNL     1      -3.435  13.889  25.467  0.00  0.00    +0.000 HD
ENDROOT
BRANCH   7  10
ATOM     10  C   UNL     1      -5.682  12.338  20.428  0.00  0.00    +0.000 A 
ATOM     11  C   UNL     1      -6.300  11.165  20.034  0.00  0.00    +0.000 A 
ATOM     12  C   UNL     1      -7.134  11.493  18.936  0.00  0.00    +0.000 A 
ATOM     13  C   UNL     1      -7.003  12.847  18.748  0.00  0.00    +0.000 A 
ATOM     14  O   UNL     1      -6.115  13.361  19.635  0.00  0.00    +0.000 OA
ENDBRANCH   7  10
BRANCH   1  16
ATOM     15  N   UNL     1      -7.504  13.042  23.486  0.00  0.00    +0.000 NA
ATOM     16  C   UNL     1      -6.390  13.068  23.164  0.00  0.00    +0.000 C 
ENDBRANCH   1  16
BRANCH   6  17
ATOM     17  C   UNL     1      -2.824  12.439  19.739  0.00  0.00    +0.000 C 
ATOM     18  N   UNL     1      -2.414  12.227  18.673  0.00  0.00    +0.000 NA
ENDBRANCH   6  17
BRANCH   5  19
ATOM     19  S   UNL     1      -0.586  12.990  21.832  0.00  0.00    +0.000 S 
BRANCH  19  20
ATOM     20  C   UNL     1      -0.154  11.250  21.678  0.00  0.00    +0.000 A 
ATOM     21  C   UNL     1      -0.483  10.422  22.764  0.00  0.00    +0.000 A 
ATOM     22  C   UNL     1      -0.299   9.039  22.697  0.00  0.00    +0.000 A 
ATOM     23  C   UNL     1       0.226   8.465  21.545  0.00  0.00    +0.000 A 
ATOM     24  C   UNL     1       0.554   9.275  20.458  0.00  0.00    +0.000 A 
ATOM     25  C   UNL     1       0.334  10.661  20.491  0.00  0.00    +0.000 A 
BRANCH  25  26
ATOM     26  N   UNL     1       0.783  11.415  19.396  0.00  0.00    +0.000 N 
ATOM     27  H   UNL     1       0.772  12.418  19.543  0.00  0.00    +0.000 HD
ATOM     28  H   UNL     1       1.655  11.076  18.990  0.00  0.00    +0.000 HD
ENDBRANCH  25  26
ENDBRANCH  19  20
ENDBRANCH   5  19
TORSDOF 6
ENDMDL
MODEL 9
REMARK VINA RESULT:      -5.4      1.725      2.106
REMARK  Name = 
REMARK  6 active torsions:
REMARK  status: ('A' for Active; 'I' for Inactive)
REMARK    1  A    between atoms: C_2  and  C_3
REMARK    2  A    between atoms: C_7  and  S_8
REMARK    3  A    between atoms: S_8  and  C_9
REMARK    4  A    between atoms: C_14  and  N_15
REMARK    5  A    between atoms: C_16  and  C_17
REMARK    6  A    between atoms: C_19  and  C_20
REMARK                            x       y       z     vdW  Elec       q    Type
REMARK                         _______ _______ _______ _____ _____    ______ ____
ROOT
ATOM      1  C   UNL     1      -3.972  11.548  18.487  0.00  0.00    +0.000 A 
ATOM      2  C   UNL     1      -3.030  10.958  17.645  0.00  0.00    +0.000 A 
ATOM      3  N   UNL     1      -3.378  10.245  16.503  0.00  0.00    +0.000 N 
ATOM      4  N   UNL     1      -1.708  11.113  17.824  0.00  0.00    +0.000 NA
ATOM      5  C   UNL     1      -1.269  11.887  18.853  0.00  0.00    +0.000 A 
ATOM      6  C   UNL     1      -2.134  12.472  19.779  0.00  0.00    +0.000 A 
ATOM      7  C   UNL     1      -3.527  12.313  19.587  0.00  0.00    +0.000 A 
ATOM      8  H   UNL     1      -4.097   9.541  16.633  0.00  0.00    +0.000 HD
ATOM      9  H   UNL     1      -2.542   9.871  16.065  0.00  0.00    +0.000 HD
ENDROOT
BRANCH   7  10
ATOM     10  C   UNL     1      -4.499  12.965  20.474  0.00  0.00    +0.000 A 
ATOM     11  C   UNL     1      -5.123  14.198  20.521  0.00  0.00    +0.000 A 
ATOM     12  C   UNL     1      -5.874  14.229  21.722  0.00  0.00    +0.000 A 
ATOM     13  C   UNL     1      -5.692  13.005  22.318  0.00  0.00    +0.000 A 
ATOM     14  O   UNL     1      -4.849  12.243  21.578  0.00  0.00    +0.000 OA
ENDBRANCH   7  10
BRANCH   1  16
ATOM     15  N   UNL     1      -6.498  11.195  18.022  0.00  0.00    +0.000 NA
ATOM     16  C   UNL     1      -5.363  11.352  18.200  0.00  0.00    +0.000 C 
ENDBRANCH   1  16
BRANCH   6  17
ATOM     17  C   UNL     1      -1.597  13.155  20.923  0.00  0.00    +0.000 C 
ATOM     18  N   UNL     1      -1.147  13.743  21.819  0.00  0.00    +0.000 NA
ENDBRANCH   6  17
BRANCH   5  19
ATOM     19  S   UNL     1       0.511  11.984  18.955  0.00  0.00    +0.000 S 
BRANCH  19  20
ATOM     20  C   UNL     1       1.025  10.267  19.112  0.00  0.00    +0.000 A 
ATOM     21  C   UNL     1       1.645   9.691  17.990  0.00  0.00    +0.000 A 
ATOM     22  C   UNL     1       2.186   8.405  18.048  0.00  0.00    +0.000 A 
ATOM     23  C   UNL     1       2.110   7.673  19.227  0.00  0.00    +0.000 A 
ATOM     24  C   UNL     1       1.500   8.233  20.349  0.00  0.00    +0.000 A 
ATOM     25  C   UNL     1       0.990   9.541  20.323  0.00  0.00    +0.000 A 
BRANCH  25  26
ATOM     26  N   UNL     1       0.305   9.993  21.461  0.00  0.00    +0.000 N 
ATOM     27  H   UNL     1       0.903  10.334  22.205  0.00  0.00    +0.000 HD
ATOM     28  H   UNL     1      -0.476  10.617  21.253  0.00  0.00    +0.000 HD
ENDBRANCH  25  26
ENDBRANCH  19  20
ENDBRANCH   5  19
TORSDOF 6
ENDMDL
