MODEL 1
REMARK VINA RESULT:      -7.8      0.000      0.000
REMARK  Name = 
REMARK  7 active torsions:
REMARK  status: ('A' for Active; 'I' for Inactive)
REMARK    1  A    between atoms: C_1  and  C_2
REMARK    2  A    between atoms: C_2  and  C_3
REMARK    3  A    between atoms: C_2  and  C_4
REMARK    4  A    between atoms: C_13  and  C_15
REMARK    5  A    between atoms: C_15  and  N_16
REMARK    6  A    between atoms: N_19  and  C_20
REMARK    7  A    between atoms: C_20  and  C_21
REMARK                            x       y       z     vdW  Elec       q    Type
REMARK                         _______ _______ _______ _____ _____    ______ ____
ROOT
ATOM      1  C   UNL     1       1.817   8.094  20.472  0.00  0.00    +0.000 C 
ENDROOT
BRANCH   1  11
ATOM      2  C   UNL     1       3.163   5.734  17.648  0.00  0.00    +0.000 C 
ATOM      3  C   UNL     1       2.768   4.256  17.495  0.00  0.00    +0.000 C 
ATOM      4  C   UNL     1       2.401   3.894  18.899  0.00  0.00    +0.000 A 
ATOM      5  C   UNL     1       2.137   2.612  19.362  0.00  0.00    +0.000 A 
ATOM      6  C   UNL     1       1.732   2.458  20.683  0.00  0.00    +0.000 A 
ATOM      7  C   UNL     1       1.607   3.579  21.511  0.00  0.00    +0.000 A 
ATOM      8  C   UNL     1       1.899   4.867  21.034  0.00  0.00    +0.000 A 
ATOM      9  C   UNL     1       2.279   5.030  19.712  0.00  0.00    +0.000 A 
ATOM     10  N   UNL     1       2.602   6.182  18.958  0.00  0.00    +0.000 N 
ATOM     11  C   UNL     1       2.439   7.538  19.183  0.00  0.00    +0.000 C 
ATOM     12  O   UNL     1       2.743   8.346  18.290  0.00  0.00    +0.000 OA
BRANCH   2  14
ATOM     13  C   UNL     1       5.574   4.791  17.827  0.00  0.00    +0.000 C 
ATOM     14  C   UNL     1       4.694   6.010  17.532  0.00  0.00    +0.000 C 
ATOM     15  C   UNL     1       5.056   6.594  16.161  0.00  0.00    +0.000 C 
ENDBRANCH   2  14
ENDBRANCH   1  11
BRANCH   1  16
ATOM     16  N   UNL     1       0.387   8.468  20.281  0.00  0.00    +0.000 NA
ATOM     17  C   UNL     1      -0.335   8.531  21.575  0.00  0.00    +0.000 C 
ATOM     18  C   UNL     1       0.100   9.704  22.489  0.00  0.00    +0.000 C 
ATOM     19  N   UNL     1       0.009  11.039  21.856  0.00  0.00    +0.000 NA
ATOM     20  C   UNL     1       0.660  11.000  20.531  0.00  0.00    +0.000 C 
ATOM     21  C   UNL     1       0.268   9.796  19.637  0.00  0.00    +0.000 C 
BRANCH  19  22
ATOM     22  C   UNL     1      -1.377  11.535  21.768  0.00  0.00    +0.000 C 
BRANCH  22  23
ATOM     23  C   UNL     1      -1.658  12.609  22.802  0.00  0.00    +0.000 A 
ATOM     24  C   UNL     1      -2.878  12.616  23.499  0.00  0.00    +0.000 A 
ATOM     25  C   UNL     1      -3.225  13.698  24.308  0.00  0.00    +0.000 A 
ATOM     26  C   UNL     1      -2.347  14.770  24.439  0.00  0.00    +0.000 A 
ATOM     27 CL   UNL     1      -2.805  16.141  25.372  0.00  0.00    +0.000 Cl
ATOM     28  C   UNL     1      -1.110  14.755  23.796  0.00  0.00    +0.000 A 
ATOM     29  C   UNL     1      -0.762  13.674  22.983  0.00  0.00    +0.000 A 
ENDBRANCH  22  23
ENDBRANCH  19  22
ENDBRANCH   1  16
TORSDOF 5
ENDMDL
MODEL 2
REMARK VINA RESULT:      -7.8      2.832      3.503
REMARK  Name = 
REMARK  7 active torsions:
REMARK  status: ('A' for Active; 'I' for Inactive)
REMARK    1  A    between atoms: C_1  and  C_2
REMARK    2  A    between atoms: C_2  and  C_3
REMARK    3  A    between atoms: C_2  and  C_4
REMARK    4  A    between atoms: C_13  and  C_15
REMARK    5  A    between atoms: C_15  and  N_16
REMARK    6  A    between atoms: N_19  and  C_20
REMARK    7  A    between atoms: C_20  and  C_21
REMARK                            x       y       z     vdW  Elec       q    Type
REMARK                         _______ _______ _______ _____ _____    ______ ____
ROOT
ATOM      1  C   UNL     1       1.757   7.977  19.395  0.00  0.00    +0.000 C 
ENDROOT
BRANCH   1  11
ATOM      2  C   UNL     1       3.891   5.391  17.368  0.00  0.00    +0.000 C 
ATOM      3  C   UNL     1       3.520   3.909  17.196  0.00  0.00    +0.000 C 
ATOM      4  C   UNL     1       2.690   3.662  18.415  0.00  0.00    +0.000 A 
ATOM      5  C   UNL     1       2.242   2.423  18.853  0.00  0.00    +0.000 A 
ATOM      6  C   UNL     1       1.411   2.376  19.966  0.00  0.00    +0.000 A 
ATOM      7  C   UNL     1       1.055   3.560  20.622  0.00  0.00    +0.000 A 
ATOM      8  C   UNL     1       1.534   4.804  20.181  0.00  0.00    +0.000 A 
ATOM      9  C   UNL     1       2.342   4.859  19.057  0.00  0.00    +0.000 A 
ATOM     10  N   UNL     1       2.939   5.946  18.376  0.00  0.00    +0.000 N 
ATOM     11  C   UNL     1       2.757   7.316  18.436  0.00  0.00    +0.000 C 
ATOM     12  O   UNL     1       3.371   8.049  17.643  0.00  0.00    +0.000 OA
BRANCH   2  14
ATOM     13  C   UNL     1       5.728   5.252  19.196  0.00  0.00    +0.000 C 
ATOM     14  C   UNL     1       5.381   5.644  17.756  0.00  0.00    +0.000 C 
ATOM     15  C   UNL     1       6.340   4.950  16.782  0.00  0.00    +0.000 C 
ENDBRANCH   2  14
ENDBRANCH   1  11
BRANCH   1  16
ATOM     16  N   UNL     1       1.700   9.454  19.207  0.00  0.00    +0.000 NA
ATOM     17  C   UNL     1       0.997   9.815  17.953  0.00  0.00    +0.000 C 
ATOM     18  C   UNL     1      -0.523   9.517  17.968  0.00  0.00    +0.000 C 
ATOM     19  N   UNL     1      -1.259  10.139  19.091  0.00  0.00    +0.000 NA
ATOM     20  C   UNL     1      -0.550   9.860  20.356  0.00  0.00    +0.000 C 
ATOM     21  C   UNL     1       0.981  10.104  20.326  0.00  0.00    +0.000 C 
BRANCH  19  22
ATOM     22  C   UNL     1      -1.477  11.586  18.898  0.00  0.00    +0.000 C 
BRANCH  22  23
ATOM     23  C   UNL     1      -2.954  11.933  18.869  0.00  0.00    +0.000 A 
ATOM     24  C   UNL     1      -3.546  12.586  19.962  0.00  0.00    +0.000 A 
ATOM     25  C   UNL     1      -4.930  12.740  20.029  0.00  0.00    +0.000 A 
ATOM     26  C   UNL     1      -5.729  12.257  18.995  0.00  0.00    +0.000 A 
ATOM     27 CL   UNL     1      -7.442  12.375  19.112  0.00  0.00    +0.000 Cl
ATOM     28  C   UNL     1      -5.152  11.654  17.879  0.00  0.00    +0.000 A 
ATOM     29  C   UNL     1      -3.766  11.496  17.812  0.00  0.00    +0.000 A 
ENDBRANCH  22  23
ENDBRANCH  19  22
ENDBRANCH   1  16
TORSDOF 5
ENDMDL
MODEL 3
REMARK VINA RESULT:      -7.7      1.718      2.286
REMARK  Name = 
REMARK  7 active torsions:
REMARK  status: ('A' for Active; 'I' for Inactive)
REMARK    1  A    between atoms: C_1  and  C_2
REMARK    2  A    between atoms: C_2  and  C_3
REMARK    3  A    between atoms: C_2  and  C_4
REMARK    4  A    between atoms: C_13  and  C_15
REMARK    5  A    between atoms: C_15  and  N_16
REMARK    6  A    between atoms: N_19  and  C_20
REMARK    7  A    between atoms: C_20  and  C_21
REMARK                            x       y       z     vdW  Elec       q    Type
REMARK                         _______ _______ _______ _____ _____    ______ ____
ROOT
ATOM      1  C   UNL     1       1.706   7.707  18.874  0.00  0.00    +0.000 C 
ENDROOT
BRANCH   1  11
ATOM      2  C   UNL     1       4.240   5.254  17.167  0.00  0.00    +0.000 C 
ATOM      3  C   UNL     1       3.950   3.771  16.880  0.00  0.00    +0.000 C 
ATOM      4  C   UNL     1       2.926   3.457  17.925  0.00  0.00    +0.000 A 
ATOM      5  C   UNL     1       2.446   2.191  18.232  0.00  0.00    +0.000 A 
ATOM      6  C   UNL     1       1.434   2.081  19.179  0.00  0.00    +0.000 A 
ATOM      7  C   UNL     1       0.932   3.230  19.803  0.00  0.00    +0.000 A 
ATOM      8  C   UNL     1       1.444   4.501  19.496  0.00  0.00    +0.000 A 
ATOM      9  C   UNL     1       2.435   4.619  18.536  0.00  0.00    +0.000 A 
ATOM     10  N   UNL     1       3.109   5.746  18.010  0.00  0.00    +0.000 N 
ATOM     11  C   UNL     1       2.878   7.108  18.084  0.00  0.00    +0.000 C 
ATOM     12  O   UNL     1       3.600   7.886  17.438  0.00  0.00    +0.000 OA
BRANCH   2  14
ATOM     13  C   UNL     1       5.703   5.168  19.309  0.00  0.00    +0.000 C 
ATOM     14  C   UNL     1       5.630   5.526  17.822  0.00  0.00    +0.000 C 
ATOM     15  C   UNL     1       6.757   4.819  17.059  0.00  0.00    +0.000 C 
ENDBRANCH   2  14
ENDBRANCH   1  11
BRANCH   1  16
ATOM     16  N   UNL     1       1.959   9.125  19.253  0.00  0.00    +0.000 NA
ATOM     17  C   UNL     1       1.377  10.064  18.263  0.00  0.00    +0.000 C 
ATOM     18  C   UNL     1      -0.172  10.092  18.247  0.00  0.00    +0.000 C 
ATOM     19  N   UNL     1      -0.792  10.381  19.560  0.00  0.00    +0.000 NA
ATOM     20  C   UNL     1      -0.189   9.511  20.590  0.00  0.00    +0.000 C 
ATOM     21  C   UNL     1       1.359   9.438  20.570  0.00  0.00    +0.000 C 
BRANCH  19  22
ATOM     22  C   UNL     1      -0.704  11.806  19.931  0.00  0.00    +0.000 C 
BRANCH  22  23
ATOM     23  C   UNL     1      -1.616  12.142  21.096  0.00  0.00    +0.000 A 
ATOM     24  C   UNL     1      -1.183  11.927  22.415  0.00  0.00    +0.000 A 
ATOM     25  C   UNL     1      -2.074  12.052  23.481  0.00  0.00    +0.000 A 
ATOM     26  C   UNL     1      -3.398  12.408  23.235  0.00  0.00    +0.000 A 
ATOM     27 CL   UNL     1      -4.518  12.485  24.539  0.00  0.00    +0.000 Cl
ATOM     28  C   UNL     1      -3.829  12.676  21.938  0.00  0.00    +0.000 A 
ATOM     29  C   UNL     1      -2.939  12.549  20.869  0.00  0.00    +0.000 A 
ENDBRANCH  22  23
ENDBRANCH  19  22
ENDBRANCH   1  16
TORSDOF 5
ENDMDL
MODEL 4
REMARK VINA RESULT:      -7.7      1.594      1.997
REMARK  Name = 
REMARK  7 active torsions:
REMARK  status: ('A' for Active; 'I' for Inactive)
REMARK    1  A    between atoms: C_1  and  C_2
REMARK    2  A    between atoms: C_2  and  C_3
REMARK    3  A    between atoms: C_2  and  C_4
REMARK    4  A    between atoms: C_13  and  C_15
REMARK    5  A    between atoms: C_15  and  N_16
REMARK    6  A    between atoms: N_19  and  C_20
REMARK    7  A    between atoms: C_20  and  C_21
REMARK                            x       y       z     vdW  Elec       q    Type
REMARK                         _______ _______ _______ _____ _____    ______ ____
ROOT
ATOM      1  C   UNL     1       1.419   7.773  19.415  0.00  0.00    +0.000 C 
ENDROOT
BRANCH   1  11
ATOM      2  C   UNL     1       3.962   5.557  17.422  0.00  0.00    +0.000 C 
ATOM      3  C   UNL     1       3.765   4.059  17.135  0.00  0.00    +0.000 C 
ATOM      4  C   UNL     1       2.878   3.649  18.268  0.00  0.00    +0.000 A 
ATOM      5  C   UNL     1       2.534   2.345  18.596  0.00  0.00    +0.000 A 
ATOM      6  C   UNL     1       1.633   2.141  19.634  0.00  0.00    +0.000 A 
ATOM      7  C   UNL     1       1.104   3.237  20.326  0.00  0.00    +0.000 A 
ATOM      8  C   UNL     1       1.479   4.549  19.996  0.00  0.00    +0.000 A 
ATOM      9  C   UNL     1       2.357   4.760  18.947  0.00  0.00    +0.000 A 
ATOM     10  N   UNL     1       2.884   5.944  18.380  0.00  0.00    +0.000 N 
ATOM     11  C   UNL     1       2.552   7.282  18.503  0.00  0.00    +0.000 C 
ATOM     12  O   UNL     1       3.141   8.124  17.806  0.00  0.00    +0.000 OA
BRANCH   2  14
ATOM     13  C   UNL     1       5.853   5.102  19.140  0.00  0.00    +0.000 C 
ATOM     14  C   UNL     1       5.383   5.935  17.943  0.00  0.00    +0.000 C 
ATOM     15  C   UNL     1       6.427   5.870  16.821  0.00  0.00    +0.000 C 
ENDBRANCH   2  14
ENDBRANCH   1  11
BRANCH   1  16
ATOM     16  N   UNL     1       1.770   9.049  20.099  0.00  0.00    +0.000 NA
ATOM     17  C   UNL     1       1.108  10.210  19.455  0.00  0.00    +0.000 C 
ATOM     18  C   UNL     1      -0.429  10.251  19.646  0.00  0.00    +0.000 C 
ATOM     19  N   UNL     1      -0.873  10.205  21.057  0.00  0.00    +0.000 NA
ATOM     20  C   UNL     1      -0.182   9.101  21.753  0.00  0.00    +0.000 C 
ATOM     21  C   UNL     1       1.349   9.025  21.518  0.00  0.00    +0.000 C 
BRANCH  19  22
ATOM     22  C   UNL     1      -0.685  11.491  21.756  0.00  0.00    +0.000 C 
BRANCH  22  23
ATOM     23  C   UNL     1      -2.011  12.131  22.122  0.00  0.00    +0.000 A 
ATOM     24  C   UNL     1      -2.481  12.072  23.445  0.00  0.00    +0.000 A 
ATOM     25  C   UNL     1      -3.776  12.487  23.753  0.00  0.00    +0.000 A 
ATOM     26  C   UNL     1      -4.602  12.979  22.746  0.00  0.00    +0.000 A 
ATOM     27 CL   UNL     1      -6.226  13.417  23.109  0.00  0.00    +0.000 Cl
ATOM     28  C   UNL     1      -4.132  13.093  21.439  0.00  0.00    +0.000 A 
ATOM     29  C   UNL     1      -2.837  12.676  21.127  0.00  0.00    +0.000 A 
ENDBRANCH  22  23
ENDBRANCH  19  22
ENDBRANCH   1  16
TORSDOF 5
ENDMDL
MODEL 5
REMARK VINA RESULT:      -7.6      3.155      3.761
REMARK  Name = 
REMARK  7 active torsions:
REMARK  status: ('A' for Active; 'I' for Inactive)
REMARK    1  A    between atoms: C_1  and  C_2
REMARK    2  A    between atoms: C_2  and  C_3
REMARK    3  A    between atoms: C_2  and  C_4
REMARK    4  A    between atoms: C_13  and  C_15
REMARK    5  A    between atoms: C_15  and  N_16
REMARK    6  A    between atoms: N_19  and  C_20
REMARK    7  A    between atoms: C_20  and  C_21
REMARK                            x       y       z     vdW  Elec       q    Type
REMARK                         _______ _______ _______ _____ _____    ______ ____
ROOT
ATOM      1  C   UNL     1       2.180   8.267  18.571  0.00  0.00    +0.000 C 
ENDROOT
BRANCH   1  11
ATOM      2  C   UNL     1       4.209   5.182  17.262  0.00  0.00    +0.000 C 
ATOM      3  C   UNL     1       3.726   3.725  17.355  0.00  0.00    +0.000 C 
ATOM      4  C   UNL     1       2.804   3.788  18.532  0.00  0.00    +0.000 A 
ATOM      5  C   UNL     1       2.227   2.697  19.167  0.00  0.00    +0.000 A 
ATOM      6  C   UNL     1       1.329   2.935  20.200  0.00  0.00    +0.000 A 
ATOM      7  C   UNL     1       1.033   4.248  20.582  0.00  0.00    +0.000 A 
ATOM      8  C   UNL     1       1.641   5.341  19.944  0.00  0.00    +0.000 A 
ATOM      9  C   UNL     1       2.519   5.112  18.897  0.00  0.00    +0.000 A 
ATOM     10  N   UNL     1       3.247   5.994  18.065  0.00  0.00    +0.000 N 
ATOM     11  C   UNL     1       3.177   7.358  17.840  0.00  0.00    +0.000 C 
ATOM     12  O   UNL     1       3.899   7.870  16.969  0.00  0.00    +0.000 OA
BRANCH   2  14
ATOM     13  C   UNL     1       5.930   5.188  19.204  0.00  0.00    +0.000 C 
ATOM     14  C   UNL     1       5.688   5.403  17.707  0.00  0.00    +0.000 C 
ATOM     15  C   UNL     1       6.655   4.534  16.893  0.00  0.00    +0.000 C 
ENDBRANCH   2  14
ENDBRANCH   1  11
BRANCH   1  16
ATOM     16  N   UNL     1       1.619   9.313  17.670  0.00  0.00    +0.000 NA
ATOM     17  C   UNL     1       0.138   9.255  17.626  0.00  0.00    +0.000 C 
ATOM     18  C   UNL     1      -0.555   9.678  18.946  0.00  0.00    +0.000 C 
ATOM     19  N   UNL     1      -0.172  11.021  19.435  0.00  0.00    +0.000 NA
ATOM     20  C   UNL     1       1.299  11.145  19.429  0.00  0.00    +0.000 C 
ATOM     21  C   UNL     1       1.999  10.668  18.130  0.00  0.00    +0.000 C 
BRANCH  19  22
ATOM     22  C   UNL     1      -0.812  12.110  18.672  0.00  0.00    +0.000 C 
BRANCH  22  23
ATOM     23  C   UNL     1      -2.309  11.897  18.537  0.00  0.00    +0.000 A 
ATOM     24  C   UNL     1      -2.851  11.452  17.320  0.00  0.00    +0.000 A 
ATOM     25  C   UNL     1      -4.232  11.435  17.126  0.00  0.00    +0.000 A 
ATOM     26  C   UNL     1      -5.078  11.847  18.152  0.00  0.00    +0.000 A 
ATOM     27 CL   UNL     1      -6.778  11.902  17.887  0.00  0.00    +0.000 Cl
ATOM     28  C   UNL     1      -4.558  12.242  19.382  0.00  0.00    +0.000 A 
ATOM     29  C   UNL     1      -3.175  12.262  19.579  0.00  0.00    +0.000 A 
ENDBRANCH  22  23
ENDBRANCH  19  22
ENDBRANCH   1  16
TORSDOF 5
ENDMDL
MODEL 6
REMARK VINA RESULT:      -7.5      4.212      9.718
REMARK  Name = 
REMARK  7 active torsions:
REMARK  status: ('A' for Active; 'I' for Inactive)
REMARK    1  A    between atoms: C_1  and  C_2
REMARK    2  A    between atoms: C_2  and  C_3
REMARK    3  A    between atoms: C_2  and  C_4
REMARK    4  A    between atoms: C_13  and  C_15
REMARK    5  A    between atoms: C_15  and  N_16
REMARK    6  A    between atoms: N_19  and  C_20
REMARK    7  A    between atoms: C_20  and  C_21
REMARK                            x       y       z     vdW  Elec       q    Type
REMARK                         _______ _______ _______ _____ _____    ______ ____
ROOT
ATOM      1  C   UNL     1       2.235   7.973  19.152  0.00  0.00    +0.000 C 
ENDROOT
BRANCH   1  11
ATOM      2  C   UNL     1      -0.177  11.021  18.664  0.00  0.00    +0.000 C 
ATOM      3  C   UNL     1      -0.662  11.932  19.804  0.00  0.00    +0.000 C 
ATOM      4  C   UNL     1      -0.562  11.018  20.984  0.00  0.00    +0.000 A 
ATOM      5  C   UNL     1      -1.051  11.281  22.256  0.00  0.00    +0.000 A 
ATOM      6  C   UNL     1      -0.804  10.355  23.263  0.00  0.00    +0.000 A 
ATOM      7  C   UNL     1      -0.085   9.188  22.979  0.00  0.00    +0.000 A 
ATOM      8  C   UNL     1       0.384   8.926  21.682  0.00  0.00    +0.000 A 
ATOM      9  C   UNL     1       0.163   9.856  20.680  0.00  0.00    +0.000 A 
ATOM     10  N   UNL     1       0.532   9.879  19.314  0.00  0.00    +0.000 N 
ATOM     11  C   UNL     1       1.415   9.127  18.559  0.00  0.00    +0.000 C 
ATOM     12  O   UNL     1       1.611   9.428  17.371  0.00  0.00    +0.000 OA
BRANCH   2  14
ATOM     13  C   UNL     1      -2.281   9.545  18.311  0.00  0.00    +0.000 C 
ATOM     14  C   UNL     1      -1.301  10.546  17.692  0.00  0.00    +0.000 C 
ATOM     15  C   UNL     1      -2.072  11.734  17.103  0.00  0.00    +0.000 C 
ENDBRANCH   2  14
ENDBRANCH   1  11
BRANCH   1  16
ATOM     16  N   UNL     1       2.155   6.746  18.310  0.00  0.00    +0.000 NA
ATOM     17  C   UNL     1       3.286   6.670  17.353  0.00  0.00    +0.000 C 
ATOM     18  C   UNL     1       4.664   6.418  18.014  0.00  0.00    +0.000 C 
ATOM     19  N   UNL     1       4.719   5.213  18.873  0.00  0.00    +0.000 NA
ATOM     20  C   UNL     1       3.568   5.217  19.798  0.00  0.00    +0.000 C 
ATOM     21  C   UNL     1       2.196   5.525  19.146  0.00  0.00    +0.000 C 
BRANCH  19  22
ATOM     22  C   UNL     1       4.789   3.962  18.095  0.00  0.00    +0.000 C 
BRANCH  22  23
ATOM     23  C   UNL     1       5.592   4.136  16.820  0.00  0.00    +0.000 A 
ATOM     24  C   UNL     1       6.926   4.573  16.881  0.00  0.00    +0.000 A 
ATOM     25  C   UNL     1       7.611   4.917  15.716  0.00  0.00    +0.000 A 
ATOM     26  C   UNL     1       6.973   4.810  14.483  0.00  0.00    +0.000 A 
ATOM     27 CL   UNL     1       7.789   5.309  13.052  0.00  0.00    +0.000 Cl
ATOM     28  C   UNL     1       5.668   4.328  14.401  0.00  0.00    +0.000 A 
ATOM     29  C   UNL     1       4.979   3.985  15.567  0.00  0.00    +0.000 A 
ENDBRANCH  22  23
ENDBRANCH  19  22
ENDBRANCH   1  16
TORSDOF 5
ENDMDL
MODEL 7
REMARK VINA RESULT:      -7.5      1.875      2.471
REMARK  Name = 
REMARK  7 active torsions:
REMARK  status: ('A' for Active; 'I' for Inactive)
REMARK    1  A    between atoms: C_1  and  C_2
REMARK    2  A    between atoms: C_2  and  C_3
REMARK    3  A    between atoms: C_2  and  C_4
REMARK    4  A    between atoms: C_13  and  C_15
REMARK    5  A    between atoms: C_15  and  N_16
REMARK    6  A    between atoms: N_19  and  C_20
REMARK    7  A    between atoms: C_20  and  C_21
REMARK                            x       y       z     vdW  Elec       q    Type
REMARK                         _______ _______ _______ _____ _____    ______ ____
ROOT
ATOM      1  C   UNL     1       1.717   7.754  18.788  0.00  0.00    +0.000 C 
ENDROOT
BRANCH   1  11
ATOM      2  C   UNL     1       4.694   5.368  17.898  0.00  0.00    +0.000 C 
ATOM      3  C   UNL     1       4.720   3.862  18.211  0.00  0.00    +0.000 C 
ATOM      4  C   UNL     1       3.796   3.783  19.385  0.00  0.00    +0.000 A 
ATOM      5  C   UNL     1       3.596   2.665  20.183  0.00  0.00    +0.000 A 
ATOM      6  C   UNL     1       2.639   2.735  21.189  0.00  0.00    +0.000 A 
ATOM      7  C   UNL     1       1.913   3.916  21.382  0.00  0.00    +0.000 A 
ATOM      8  C   UNL     1       2.142   5.045  20.580  0.00  0.00    +0.000 A 
ATOM      9  C   UNL     1       3.076   4.974  19.560  0.00  0.00    +0.000 A 
ATOM     10  N   UNL     1       3.493   5.919  18.594  0.00  0.00    +0.000 N 
ATOM     11  C   UNL     1       2.981   7.135  18.176  0.00  0.00    +0.000 C 
ATOM     12  O   UNL     1       3.517   7.727  17.225  0.00  0.00    +0.000 OA
BRANCH   2  14
ATOM     13  C   UNL     1       6.849   5.428  19.342  0.00  0.00    +0.000 C 
ATOM     14  C   UNL     1       6.002   6.130  18.276  0.00  0.00    +0.000 C 
ATOM     15  C   UNL     1       6.859   6.422  17.039  0.00  0.00    +0.000 C 
ENDBRANCH   2  14
ENDBRANCH   1  11
BRANCH   1  16
ATOM     16  N   UNL     1       1.991   9.087  19.395  0.00  0.00    +0.000 NA
ATOM     17  C   UNL     1       1.459  10.187  18.553  0.00  0.00    +0.000 C 
ATOM     18  C   UNL     1      -0.087  10.259  18.503  0.00  0.00    +0.000 C 
ATOM     19  N   UNL     1      -0.739  10.351  19.829  0.00  0.00    +0.000 NA
ATOM     20  C   UNL     1      -0.186   9.312  20.722  0.00  0.00    +0.000 C 
ATOM     21  C   UNL     1       1.360   9.201  20.729  0.00  0.00    +0.000 C 
BRANCH  19  22
ATOM     22  C   UNL     1      -0.629  11.696  20.426  0.00  0.00    +0.000 C 
BRANCH  22  23
ATOM     23  C   UNL     1      -1.974  12.210  20.907  0.00  0.00    +0.000 A 
ATOM     24  C   UNL     1      -2.237  12.317  22.283  0.00  0.00    +0.000 A 
ATOM     25  C   UNL     1      -3.524  12.605  22.736  0.00  0.00    +0.000 A 
ATOM     26  C   UNL     1      -4.551  12.804  21.817  0.00  0.00    +0.000 A 
ATOM     27 CL   UNL     1      -6.155  13.081  22.375  0.00  0.00    +0.000 Cl
ATOM     28  C   UNL     1      -4.295  12.753  20.448  0.00  0.00    +0.000 A 
ATOM     29  C   UNL     1      -3.008  12.462  19.992  0.00  0.00    +0.000 A 
ENDBRANCH  22  23
ENDBRANCH  19  22
ENDBRANCH   1  16
TORSDOF 5
ENDMDL
MODEL 8
REMARK VINA RESULT:      -7.4      1.304      3.196
REMARK  Name = 
REMARK  7 active torsions:
REMARK  status: ('A' for Active; 'I' for Inactive)
REMARK    1  A    between atoms: C_1  and  C_2
REMARK    2  A    between atoms: C_2  and  C_3
REMARK    3  A    between atoms: C_2  and  C_4
REMARK    4  A    between atoms: C_13  and  C_15
REMARK    5  A    between atoms: C_15  and  N_16
REMARK    6  A    between atoms: N_19  and  C_20
REMARK    7  A    between atoms: C_20  and  C_21
REMARK                            x       y       z     vdW  Elec       q    Type
REMARK                         _______ _______ _______ _____ _____    ______ ____
ROOT
ATOM      1  C   UNL     1       2.193   8.249  19.452  0.00  0.00    +0.000 C 
ENDROOT
BRANCH   1  11
ATOM      2  C   UNL     1       2.973   4.419  19.720  0.00  0.00    +0.000 C 
ATOM      3  C   UNL     1       4.221   3.746  19.126  0.00  0.00    +0.000 C 
ATOM      4  C   UNL     1       4.562   4.679  18.006  0.00  0.00    +0.000 A 
ATOM      5  C   UNL     1       5.512   4.448  17.021  0.00  0.00    +0.000 A 
ATOM      6  C   UNL     1       5.762   5.454  16.096  0.00  0.00    +0.000 A 
ATOM      7  C   UNL     1       5.057   6.661  16.168  0.00  0.00    +0.000 A 
ATOM      8  C   UNL     1       4.083   6.871  17.158  0.00  0.00    +0.000 A 
ATOM      9  C   UNL     1       3.847   5.881  18.097  0.00  0.00    +0.000 A 
ATOM     10  N   UNL     1       2.967   5.820  19.203  0.00  0.00    +0.000 N 
ATOM     11  C   UNL     1       2.216   6.773  19.870  0.00  0.00    +0.000 C 
ATOM     12  O   UNL     1       1.584   6.448  20.888  0.00  0.00    +0.000 OA
BRANCH   2  14
ATOM     13  C   UNL     1       1.730   2.632  18.309  0.00  0.00    +0.000 C 
ATOM     14  C   UNL     1       1.634   3.672  19.428  0.00  0.00    +0.000 C 
ATOM     15  C   UNL     1       1.066   3.023  20.696  0.00  0.00    +0.000 C 
ENDBRANCH   2  14
ENDBRANCH   1  11
BRANCH   1  16
ATOM     16  N   UNL     1       0.802   8.764  19.309  0.00  0.00    +0.000 NA
ATOM     17  C   UNL     1       0.259   9.229  20.609  0.00  0.00    +0.000 C 
ATOM     18  C   UNL     1       0.934  10.511  21.158  0.00  0.00    +0.000 C 
ATOM     19  N   UNL     1       0.915  11.660  20.225  0.00  0.00    +0.000 NA
ATOM     20  C   UNL     1       1.386  11.221  18.896  0.00  0.00    +0.000 C 
ATOM     21  C   UNL     1       0.753   9.907  18.370  0.00  0.00    +0.000 C 
BRANCH  19  22
ATOM     22  C   UNL     1      -0.407  12.309  20.147  0.00  0.00    +0.000 C 
BRANCH  22  23
ATOM     23  C   UNL     1      -0.851  12.846  21.495  0.00  0.00    +0.000 A 
ATOM     24  C   UNL     1      -1.983  12.307  22.130  0.00  0.00    +0.000 A 
ATOM     25  C   UNL     1      -2.509  12.914  23.270  0.00  0.00    +0.000 A 
ATOM     26  C   UNL     1      -1.897  14.051  23.791  0.00  0.00    +0.000 A 
ATOM     27 CL   UNL     1      -2.590  14.848  25.151  0.00  0.00    +0.000 Cl
ATOM     28  C   UNL     1      -0.744  14.566  23.203  0.00  0.00    +0.000 A 
ATOM     29  C   UNL     1      -0.216  13.962  22.060  0.00  0.00    +0.000 A 
ENDBRANCH  22  23
ENDBRANCH  19  22
ENDBRANCH   1  16
TORSDOF 5
ENDMDL
MODEL 9
REMARK VINA RESULT:      -7.4      1.067      1.437
REMARK  Name = 
REMARK  7 active torsions:
REMARK  status: ('A' for Active; 'I' for Inactive)
REMARK    1  A    between atoms: C_1  and  C_2
REMARK    2  A    between atoms: C_2  and  C_3
REMARK    3  A    between atoms: C_2  and  C_4
REMARK    4  A    between atoms: C_13  and  C_15
REMARK    5  A    between atoms: C_15  and  N_16
REMARK    6  A    between atoms: N_19  and  C_20
REMARK    7  A    between atoms: C_20  and  C_21
REMARK                            x       y       z     vdW  Elec       q    Type
REMARK                         _______ _______ _______ _____ _____    ______ ____
ROOT
ATOM      1  C   UNL     1       1.479   8.216  19.424  0.00  0.00    +0.000 C 
ENDROOT
BRANCH   1  11
ATOM      2  C   UNL     1       3.785   5.687  17.517  0.00  0.00    +0.000 C 
ATOM      3  C   UNL     1       3.511   4.178  17.410  0.00  0.00    +0.000 C 
ATOM      4  C   UNL     1       2.694   3.932  18.639  0.00  0.00    +0.000 A 
ATOM      5  C   UNL     1       2.326   2.687  19.130  0.00  0.00    +0.000 A 
ATOM      6  C   UNL     1       1.495   2.636  20.244  0.00  0.00    +0.000 A 
ATOM      7  C   UNL     1       1.060   3.822  20.846  0.00  0.00    +0.000 A 
ATOM      8  C   UNL     1       1.459   5.074  20.350  0.00  0.00    +0.000 A 
ATOM      9  C   UNL     1       2.266   5.131  19.226  0.00  0.00    +0.000 A 
ATOM     10  N   UNL     1       2.794   6.223  18.498  0.00  0.00    +0.000 N 
ATOM     11  C   UNL     1       2.523   7.580  18.496  0.00  0.00    +0.000 C 
ATOM     12  O   UNL     1       3.091   8.315  17.672  0.00  0.00    +0.000 OA
BRANCH   2  14
ATOM     13  C   UNL     1       6.007   4.940  18.628  0.00  0.00    +0.000 C 
ATOM     14  C   UNL     1       5.253   6.054  17.895  0.00  0.00    +0.000 C 
ATOM     15  C   UNL     1       6.053   6.503  16.666  0.00  0.00    +0.000 C 
ENDBRANCH   2  14
ENDBRANCH   1  11
BRANCH   1  16
ATOM     16  N   UNL     1       1.563   9.704  19.417  0.00  0.00    +0.000 NA
ATOM     17  C   UNL     1       0.597  10.299  18.461  0.00  0.00    +0.000 C 
ATOM     18  C   UNL     1      -0.887  10.144  18.878  0.00  0.00    +0.000 C 
ATOM     19  N   UNL     1      -1.203  10.673  20.224  0.00  0.00    +0.000 NA
ATOM     20  C   UNL     1      -0.219  10.157  21.197  0.00  0.00    +0.000 C 
ATOM     21  C   UNL     1       1.264  10.259  20.757  0.00  0.00    +0.000 C 
BRANCH  19  22
ATOM     22  C   UNL     1      -1.278  12.146  20.255  0.00  0.00    +0.000 C 
BRANCH  22  23
ATOM     23  C   UNL     1      -1.667  12.661  21.628  0.00  0.00    +0.000 A 
ATOM     24  C   UNL     1      -2.974  12.470  22.108  0.00  0.00    +0.000 A 
ATOM     25  C   UNL     1      -3.395  13.100  23.279  0.00  0.00    +0.000 A 
ATOM     26  C   UNL     1      -2.509  13.909  23.985  0.00  0.00    +0.000 A 
ATOM     27 CL   UNL     1      -3.049  14.750  25.386  0.00  0.00    +0.000 Cl
ATOM     28  C   UNL     1      -1.194  14.066  23.550  0.00  0.00    +0.000 A 
ATOM     29  C   UNL     1      -0.770  13.438  22.377  0.00  0.00    +0.000 A 
ENDBRANCH  22  23
ENDBRANCH  19  22
ENDBRANCH   1  16
TORSDOF 5
ENDMDL
