MODEL 1
REMARK VINA RESULT:      -7.8      0.000      0.000
REMARK  Name = 
REMARK  7 active torsions:
REMARK  status: ('A' for Active; 'I' for Inactive)
REMARK    1  A    between atoms: C_1  and  C_2
REMARK    2  A    between atoms: C_2  and  N_3
REMARK    3  A    between atoms: C_5  and  C_6
REMARK    4  A    between atoms: C_6  and  C_7
REMARK    5  A    between atoms: C_17  and  C_18
REMARK    6  A    between atoms: C_25  and  C_26
REMARK    7  A    between atoms: C_28  and  N_29
REMARK                            x       y       z     vdW  Elec       q    Type
REMARK                         _______ _______ _______ _____ _____    ______ ____
ROOT
ATOM      1  N   UNL     1       2.856   7.810  18.122  0.00  0.00    +0.000 N 
ATOM      2  C   UNL     1       2.585   6.721  18.933  0.00  0.00    +0.000 C 
ATOM      3  C   UNL     1       1.811   6.772  20.036  0.00  0.00    +0.000 C 
ATOM      4  C   UNL     1       1.201   8.050  20.365  0.00  0.00    +0.000 C 
ATOM      5  C   UNL     1       1.358   9.125  19.569  0.00  0.00    +0.000 C 
ATOM      6  C   UNL     1       2.196   9.108  18.322  0.00  0.00    +0.000 C 
ATOM      7  C   UNL     1       0.675  10.430  19.904  0.00  0.00    +0.000 C 
ATOM      8  C   UNL     1       0.192  10.443  21.329  0.00  0.00    +0.000 C 
ATOM      9  C   UNL     1       0.036   9.306  22.042  0.00  0.00    +0.000 C 
ATOM     10  O   UNL     1       0.432   8.082  21.515  0.00  0.00    +0.000 OA
ENDROOT
BRANCH   7  11
ATOM     11  C   UNL     1      -0.476  10.701  18.931  0.00  0.00    +0.000 A 
ATOM     12  C   UNL     1      -1.368   9.672  18.558  0.00  0.00    +0.000 A 
ATOM     13  C   UNL     1      -2.400   9.913  17.653  0.00  0.00    +0.000 A 
ATOM     14  C   UNL     1      -2.549  11.182  17.111  0.00  0.00    +0.000 A 
ATOM     15  F   UNL     1      -3.533  11.413  16.234  0.00  0.00    +0.000 F 
ATOM     16  C   UNL     1      -1.688  12.215  17.465  0.00  0.00    +0.000 A 
ATOM     17  C   UNL     1      -0.654  11.979  18.375  0.00  0.00    +0.000 A 
ENDBRANCH   7  11
BRANCH   9  18
ATOM     18  N   UNL     1      -0.519   9.211  23.294  0.00  0.00    +0.000 N 
ATOM     19  H   UNL     1      -0.210   9.883  23.991  0.00  0.00    +0.000 HD
ATOM     20  H   UNL     1      -0.590   8.258  23.637  0.00  0.00    +0.000 HD
ENDBRANCH   9  18
BRANCH   1  22
ATOM     21  C   UNL     1       4.652   6.497  17.076  0.00  0.00    +0.000 C 
ATOM     22  C   UNL     1       3.793   7.747  16.999  0.00  0.00    +0.000 C 
ENDBRANCH   1  22
BRANCH   8  23
ATOM     23  C   UNL     1      -0.164  11.767  21.984  0.00  0.00    +0.000 C 
ATOM     24  N   UNL     1      -0.459  12.865  22.527  0.00  0.00    +0.000 NA
ENDBRANCH   8  23
BRANCH   3  25
ATOM     25  C   UNL     1       1.562   5.560  20.905  0.00  0.00    +0.000 C 
BRANCH  25  26
ATOM     26  C   UNL     1       2.055   4.273  20.272  0.00  0.00    +0.000 A 
ATOM     27  C   UNL     1       3.416   3.930  20.307  0.00  0.00    +0.000 A 
ATOM     28  C   UNL     1       3.876   2.787  19.651  0.00  0.00    +0.000 A 
ATOM     29  C   UNL     1       2.974   1.981  18.969  0.00  0.00    +0.000 A 
ATOM     30  F   UNL     1       3.417   0.892  18.327  0.00  0.00    +0.000 F 
ATOM     31  C   UNL     1       1.620   2.289  18.938  0.00  0.00    +0.000 A 
ATOM     32  C   UNL     1       1.160   3.436  19.588  0.00  0.00    +0.000 A 
ENDBRANCH  25  26
ENDBRANCH   3  25
TORSDOF 6
ENDMDL
MODEL 2
REMARK VINA RESULT:      -7.6      3.095      5.023
REMARK  Name = 
REMARK  7 active torsions:
REMARK  status: ('A' for Active; 'I' for Inactive)
REMARK    1  A    between atoms: C_1  and  C_2
REMARK    2  A    between atoms: C_2  and  N_3
REMARK    3  A    between atoms: C_5  and  C_6
REMARK    4  A    between atoms: C_6  and  C_7
REMARK    5  A    between atoms: C_17  and  C_18
REMARK    6  A    between atoms: C_25  and  C_26
REMARK    7  A    between atoms: C_28  and  N_29
REMARK                            x       y       z     vdW  Elec       q    Type
REMARK                         _______ _______ _______ _____ _____    ______ ____
ROOT
ATOM      1  N   UNL     1      -1.776  10.257  17.484  0.00  0.00    +0.000 N 
ATOM      2  C   UNL     1      -0.521   9.671  17.468  0.00  0.00    +0.000 C 
ATOM      3  C   UNL     1       0.558  10.175  18.097  0.00  0.00    +0.000 C 
ATOM      4  C   UNL     1       0.373  11.394  18.868  0.00  0.00    +0.000 C 
ATOM      5  C   UNL     1      -0.840  11.965  18.991  0.00  0.00    +0.000 C 
ATOM      6  C   UNL     1      -2.073  11.426  18.322  0.00  0.00    +0.000 C 
ATOM      7  C   UNL     1      -1.020  13.204  19.837  0.00  0.00    +0.000 C 
ATOM      8  C   UNL     1       0.303  13.855  20.137  0.00  0.00    +0.000 C 
ATOM      9  C   UNL     1       1.473  13.191  20.012  0.00  0.00    +0.000 C 
ATOM     10  O   UNL     1       1.502  11.905  19.485  0.00  0.00    +0.000 OA
ENDROOT
BRANCH   7  11
ATOM     11  C   UNL     1      -1.774  12.872  21.128  0.00  0.00    +0.000 A 
ATOM     12  C   UNL     1      -1.237  11.965  22.068  0.00  0.00    +0.000 A 
ATOM     13  C   UNL     1      -1.935  11.643  23.230  0.00  0.00    +0.000 A 
ATOM     14  C   UNL     1      -3.175  12.221  23.463  0.00  0.00    +0.000 A 
ATOM     15  F   UNL     1      -3.853  11.906  24.573  0.00  0.00    +0.000 F 
ATOM     16  C   UNL     1      -3.725  13.120  22.556  0.00  0.00    +0.000 A 
ATOM     17  C   UNL     1      -3.026  13.450  21.391  0.00  0.00    +0.000 A 
ENDBRANCH   7  11
BRANCH   9  18
ATOM     18  N   UNL     1       2.709  13.659  20.386  0.00  0.00    +0.000 N 
ATOM     19  H   UNL     1       3.365  12.982  20.766  0.00  0.00    +0.000 HD
ATOM     20  H   UNL     1       2.675  14.537  20.893  0.00  0.00    +0.000 HD
ENDBRANCH   9  18
BRANCH   1  22
ATOM     21  C   UNL     1      -2.855  10.287  15.275  0.00  0.00    +0.000 C 
ATOM     22  C   UNL     1      -2.898   9.747  16.694  0.00  0.00    +0.000 C 
ENDBRANCH   1  22
BRANCH   8  23
ATOM     23  C   UNL     1       0.332  15.293  20.627  0.00  0.00    +0.000 C 
ATOM     24  N   UNL     1       0.356  16.486  21.034  0.00  0.00    +0.000 NA
ENDBRANCH   8  23
BRANCH   3  25
ATOM     25  C   UNL     1       1.915   9.512  18.032  0.00  0.00    +0.000 C 
BRANCH  25  26
ATOM     26  C   UNL     1       1.989   8.244  18.860  0.00  0.00    +0.000 A 
ATOM     27  C   UNL     1       2.457   7.045  18.299  0.00  0.00    +0.000 A 
ATOM     28  C   UNL     1       2.444   5.863  19.041  0.00  0.00    +0.000 A 
ATOM     29  C   UNL     1       1.974   5.881  20.348  0.00  0.00    +0.000 A 
ATOM     30  F   UNL     1       1.947   4.743  21.055  0.00  0.00    +0.000 F 
ATOM     31  C   UNL     1       1.526   7.059  20.931  0.00  0.00    +0.000 A 
ATOM     32  C   UNL     1       1.532   8.241  20.187  0.00  0.00    +0.000 A 
ENDBRANCH  25  26
ENDBRANCH   3  25
TORSDOF 6
ENDMDL
MODEL 3
REMARK VINA RESULT:      -7.6      1.840      7.851
REMARK  Name = 
REMARK  7 active torsions:
REMARK  status: ('A' for Active; 'I' for Inactive)
REMARK    1  A    between atoms: C_1  and  C_2
REMARK    2  A    between atoms: C_2  and  N_3
REMARK    3  A    between atoms: C_5  and  C_6
REMARK    4  A    between atoms: C_6  and  C_7
REMARK    5  A    between atoms: C_17  and  C_18
REMARK    6  A    between atoms: C_25  and  C_26
REMARK    7  A    between atoms: C_28  and  N_29
REMARK                            x       y       z     vdW  Elec       q    Type
REMARK                         _______ _______ _______ _____ _____    ______ ____
ROOT
ATOM      1  N   UNL     1       0.546   8.613  21.407  0.00  0.00    +0.000 N 
ATOM      2  C   UNL     1       0.296   9.459  20.338  0.00  0.00    +0.000 C 
ATOM      3  C   UNL     1       0.908   9.368  19.141  0.00  0.00    +0.000 C 
ATOM      4  C   UNL     1       1.865   8.288  18.961  0.00  0.00    +0.000 C 
ATOM      5  C   UNL     1       2.090   7.384  19.933  0.00  0.00    +0.000 C 
ATOM      6  C   UNL     1       1.416   7.437  21.275  0.00  0.00    +0.000 C 
ATOM      7  C   UNL     1       3.052   6.241  19.707  0.00  0.00    +0.000 C 
ATOM      8  C   UNL     1       3.929   6.496  18.511  0.00  0.00    +0.000 C 
ATOM      9  C   UNL     1       3.606   7.406  17.567  0.00  0.00    +0.000 C 
ATOM     10  O   UNL     1       2.498   8.231  17.731  0.00  0.00    +0.000 OA
ENDROOT
BRANCH   7  11
ATOM     11  C   UNL     1       2.294   4.918  19.561  0.00  0.00    +0.000 A 
ATOM     12  C   UNL     1       2.080   4.078  20.675  0.00  0.00    +0.000 A 
ATOM     13  C   UNL     1       1.414   2.862  20.537  0.00  0.00    +0.000 A 
ATOM     14  C   UNL     1       0.957   2.474  19.285  0.00  0.00    +0.000 A 
ATOM     15  F   UNL     1       0.325   1.302  19.148  0.00  0.00    +0.000 F 
ATOM     16  C   UNL     1       1.150   3.284  18.172  0.00  0.00    +0.000 A 
ATOM     17  C   UNL     1       1.814   4.506  18.307  0.00  0.00    +0.000 A 
ENDBRANCH   7  11
BRANCH   9  18
ATOM     18  N   UNL     1       4.273   7.612  16.385  0.00  0.00    +0.000 N 
ATOM     19  H   UNL     1       5.102   7.048  16.215  0.00  0.00    +0.000 HD
ATOM     20  H   UNL     1       4.378   8.591  16.141  0.00  0.00    +0.000 HD
ENDBRANCH   9  18
BRANCH   1  22
ATOM     21  C   UNL     1      -0.675  10.191  22.843  0.00  0.00    +0.000 C 
ATOM     22  C   UNL     1      -0.050   8.811  22.729  0.00  0.00    +0.000 C 
ENDBRANCH   1  22
BRANCH   8  23
ATOM     23  C   UNL     1       5.202   5.685  18.335  0.00  0.00    +0.000 C 
ATOM     24  N   UNL     1       6.258   5.013  18.187  0.00  0.00    +0.000 NA
ENDBRANCH   8  23
BRANCH   3  25
ATOM     25  C   UNL     1       0.619  10.329  18.010  0.00  0.00    +0.000 C 
BRANCH  25  26
ATOM     26  C   UNL     1      -0.862  10.592  17.828  0.00  0.00    +0.000 A 
ATOM     27  C   UNL     1      -1.471  11.713  18.414  0.00  0.00    +0.000 A 
ATOM     28  C   UNL     1      -2.850  11.905  18.314  0.00  0.00    +0.000 A 
ATOM     29  C   UNL     1      -3.620  10.982  17.617  0.00  0.00    +0.000 A 
ATOM     30  F   UNL     1      -4.945  11.159  17.533  0.00  0.00    +0.000 F 
ATOM     31  C   UNL     1      -3.037   9.877  17.011  0.00  0.00    +0.000 A 
ATOM     32  C   UNL     1      -1.659   9.680  17.117  0.00  0.00    +0.000 A 
ENDBRANCH  25  26
ENDBRANCH   3  25
TORSDOF 6
ENDMDL
MODEL 4
REMARK VINA RESULT:      -7.6      2.564      8.219
REMARK  Name = 
REMARK  7 active torsions:
REMARK  status: ('A' for Active; 'I' for Inactive)
REMARK    1  A    between atoms: C_1  and  C_2
REMARK    2  A    between atoms: C_2  and  N_3
REMARK    3  A    between atoms: C_5  and  C_6
REMARK    4  A    between atoms: C_6  and  C_7
REMARK    5  A    between atoms: C_17  and  C_18
REMARK    6  A    between atoms: C_25  and  C_26
REMARK    7  A    between atoms: C_28  and  N_29
REMARK                            x       y       z     vdW  Elec       q    Type
REMARK                         _______ _______ _______ _____ _____    ______ ____
ROOT
ATOM      1  N   UNL     1       0.586   8.624  21.084  0.00  0.00    +0.000 N 
ATOM      2  C   UNL     1       0.583   9.488  20.001  0.00  0.00    +0.000 C 
ATOM      3  C   UNL     1       1.369   9.344  18.916  0.00  0.00    +0.000 C 
ATOM      4  C   UNL     1       2.247   8.186  18.876  0.00  0.00    +0.000 C 
ATOM      5  C   UNL     1       2.235   7.266  19.859  0.00  0.00    +0.000 C 
ATOM      6  C   UNL     1       1.362   7.376  21.077  0.00  0.00    +0.000 C 
ATOM      7  C   UNL     1       3.121   6.044  19.774  0.00  0.00    +0.000 C 
ATOM      8  C   UNL     1       4.197   6.223  18.737  0.00  0.00    +0.000 C 
ATOM      9  C   UNL     1       4.108   7.158  17.767  0.00  0.00    +0.000 C 
ATOM     10  O   UNL     1       3.063   8.075  17.763  0.00  0.00    +0.000 OA
ENDROOT
BRANCH   7  11
ATOM     11  C   UNL     1       2.287   4.792  19.490  0.00  0.00    +0.000 A 
ATOM     12  C   UNL     1       1.904   3.922  20.535  0.00  0.00    +0.000 A 
ATOM     13  C   UNL     1       1.168   2.769  20.273  0.00  0.00    +0.000 A 
ATOM     14  C   UNL     1       0.808   2.472  18.966  0.00  0.00    +0.000 A 
ATOM     15  F   UNL     1       0.109   1.360  18.710  0.00  0.00    +0.000 F 
ATOM     16  C   UNL     1       1.167   3.313  17.919  0.00  0.00    +0.000 A 
ATOM     17  C   UNL     1       1.902   4.473  18.177  0.00  0.00    +0.000 A 
ENDBRANCH   7  11
BRANCH   9  18
ATOM     18  N   UNL     1       4.971   7.305  16.709  0.00  0.00    +0.000 N 
ATOM     19  H   UNL     1       4.948   8.192  16.211  0.00  0.00    +0.000 HD
ATOM     20  H   UNL     1       5.020   6.491  16.106  0.00  0.00    +0.000 HD
ENDBRANCH   9  18
BRANCH   1  22
ATOM     21  C   UNL     1      -0.434  10.359  22.495  0.00  0.00    +0.000 C 
ATOM     22  C   UNL     1      -0.195   8.872  22.297  0.00  0.00    +0.000 C 
ENDBRANCH   1  22
BRANCH   8  23
ATOM     23  C   UNL     1       5.408   5.306  18.755  0.00  0.00    +0.000 C 
ATOM     24  N   UNL     1       6.413   4.544  18.770  0.00  0.00    +0.000 NA
ENDBRANCH   8  23
BRANCH   3  25
ATOM     25  C   UNL     1       1.349  10.327  17.767  0.00  0.00    +0.000 C 
BRANCH  25  26
ATOM     26  C   UNL     1       1.413  11.769  18.228  0.00  0.00    +0.000 A 
ATOM     27  C   UNL     1       0.258  12.437  18.665  0.00  0.00    +0.000 A 
ATOM     28  C   UNL     1       0.308  13.790  19.008  0.00  0.00    +0.000 A 
ATOM     29  C   UNL     1       1.515  14.472  18.925  0.00  0.00    +0.000 A 
ATOM     30  F   UNL     1       1.560  15.773  19.240  0.00  0.00    +0.000 F 
ATOM     31  C   UNL     1       2.675  13.826  18.517  0.00  0.00    +0.000 A 
ATOM     32  C   UNL     1       2.625  12.476  18.166  0.00  0.00    +0.000 A 
ENDBRANCH  25  26
ENDBRANCH   3  25
TORSDOF 6
ENDMDL
MODEL 5
REMARK VINA RESULT:      -7.5      4.136      6.931
REMARK  Name = 
REMARK  7 active torsions:
REMARK  status: ('A' for Active; 'I' for Inactive)
REMARK    1  A    between atoms: C_1  and  C_2
REMARK    2  A    between atoms: C_2  and  N_3
REMARK    3  A    between atoms: C_5  and  C_6
REMARK    4  A    between atoms: C_6  and  C_7
REMARK    5  A    between atoms: C_17  and  C_18
REMARK    6  A    between atoms: C_25  and  C_26
REMARK    7  A    between atoms: C_28  and  N_29
REMARK                            x       y       z     vdW  Elec       q    Type
REMARK                         _______ _______ _______ _____ _____    ______ ____
ROOT
ATOM      1  N   UNL     1       7.005   5.821  18.077  0.00  0.00    +0.000 N 
ATOM      2  C   UNL     1       6.920   4.987  16.973  0.00  0.00    +0.000 C 
ATOM      3  C   UNL     1       5.900   4.138  16.742  0.00  0.00    +0.000 C 
ATOM      4  C   UNL     1       4.809   4.129  17.702  0.00  0.00    +0.000 C 
ATOM      5  C   UNL     1       4.792   4.974  18.750  0.00  0.00    +0.000 C 
ATOM      6  C   UNL     1       5.898   5.950  19.035  0.00  0.00    +0.000 C 
ATOM      7  C   UNL     1       3.623   4.982  19.708  0.00  0.00    +0.000 C 
ATOM      8  C   UNL     1       2.784   3.743  19.553  0.00  0.00    +0.000 C 
ATOM      9  C   UNL     1       2.847   2.969  18.448  0.00  0.00    +0.000 C 
ATOM     10  O   UNL     1       3.785   3.230  17.455  0.00  0.00    +0.000 OA
ENDROOT
BRANCH   7  11
ATOM     11  C   UNL     1       2.778   6.245  19.519  0.00  0.00    +0.000 A 
ATOM     12  C   UNL     1       2.656   6.853  18.249  0.00  0.00    +0.000 A 
ATOM     13  C   UNL     1       1.908   8.016  18.082  0.00  0.00    +0.000 A 
ATOM     14  C   UNL     1       1.279   8.586  19.181  0.00  0.00    +0.000 A 
ATOM     15  F   UNL     1       0.569   9.709  19.025  0.00  0.00    +0.000 F 
ATOM     16  C   UNL     1       1.380   8.007  20.440  0.00  0.00    +0.000 A 
ATOM     17  C   UNL     1       2.125   6.836  20.612  0.00  0.00    +0.000 A 
ENDBRANCH   7  11
BRANCH   9  18
ATOM     18  N   UNL     1       2.030   1.902  18.164  0.00  0.00    +0.000 N 
ATOM     19  H   UNL     1       2.174   1.431  17.275  0.00  0.00    +0.000 HD
ATOM     20  H   UNL     1       1.056   2.061  18.398  0.00  0.00    +0.000 HD
ENDBRANCH   9  18
BRANCH   1  22
ATOM     21  C   UNL     1       7.991   8.059  17.835  0.00  0.00    +0.000 C 
ATOM     22  C   UNL     1       8.180   6.646  18.358  0.00  0.00    +0.000 C 
ENDBRANCH   1  22
BRANCH   8  23
ATOM     23  C   UNL     1       1.808   3.361  20.654  0.00  0.00    +0.000 C 
ATOM     24  N   UNL     1       0.999   3.044  21.567  0.00  0.00    +0.000 NA
ENDBRANCH   8  23
BRANCH   3  25
ATOM     25  C   UNL     1       5.863   3.230  15.534  0.00  0.00    +0.000 C 
BRANCH  25  26
ATOM     26  C   UNL     1       6.330   3.919  14.268  0.00  0.00    +0.000 A 
ATOM     27  C   UNL     1       5.849   3.517  13.011  0.00  0.00    +0.000 A 
ATOM     28  C   UNL     1       6.344   4.098  11.843  0.00  0.00    +0.000 A 
ATOM     29  C   UNL     1       7.313   5.090  11.931  0.00  0.00    +0.000 A 
ATOM     30  F   UNL     1       7.799   5.637  10.809  0.00  0.00    +0.000 F 
ATOM     31  C   UNL     1       7.788   5.518  13.163  0.00  0.00    +0.000 A 
ATOM     32  C   UNL     1       7.299   4.933  14.332  0.00  0.00    +0.000 A 
ENDBRANCH  25  26
ENDBRANCH   3  25
TORSDOF 6
ENDMDL
MODEL 6
REMARK VINA RESULT:      -7.5      3.187      5.236
REMARK  Name = 
REMARK  7 active torsions:
REMARK  status: ('A' for Active; 'I' for Inactive)
REMARK    1  A    between atoms: C_1  and  C_2
REMARK    2  A    between atoms: C_2  and  N_3
REMARK    3  A    between atoms: C_5  and  C_6
REMARK    4  A    between atoms: C_6  and  C_7
REMARK    5  A    between atoms: C_17  and  C_18
REMARK    6  A    between atoms: C_25  and  C_26
REMARK    7  A    between atoms: C_28  and  N_29
REMARK                            x       y       z     vdW  Elec       q    Type
REMARK                         _______ _______ _______ _____ _____    ______ ____
ROOT
ATOM      1  N   UNL     1      -1.969  10.457  17.603  0.00  0.00    +0.000 N 
ATOM      2  C   UNL     1      -0.687   9.929  17.587  0.00  0.00    +0.000 C 
ATOM      3  C   UNL     1       0.363  10.471  18.235  0.00  0.00    +0.000 C 
ATOM      4  C   UNL     1       0.115  11.666  19.024  0.00  0.00    +0.000 C 
ATOM      5  C   UNL     1      -1.123  12.179  19.147  0.00  0.00    +0.000 C 
ATOM      6  C   UNL     1      -2.325  11.597  18.458  0.00  0.00    +0.000 C 
ATOM      7  C   UNL     1      -1.366  13.394  20.012  0.00  0.00    +0.000 C 
ATOM      8  C   UNL     1      -0.077  14.099  20.335  0.00  0.00    +0.000 C 
ATOM      9  C   UNL     1       1.123  13.492  20.209  0.00  0.00    +0.000 C 
ATOM     10  O   UNL     1       1.215  12.217  19.659  0.00  0.00    +0.000 OA
ENDROOT
BRANCH   7  11
ATOM     11  C   UNL     1      -2.114  13.005  21.291  0.00  0.00    +0.000 A 
ATOM     12  C   UNL     1      -3.357  13.593  21.612  0.00  0.00    +0.000 A 
ATOM     13  C   UNL     1      -4.025  13.258  22.788  0.00  0.00    +0.000 A 
ATOM     14  C   UNL     1      -3.457  12.336  23.655  0.00  0.00    +0.000 A 
ATOM     15  F   UNL     1      -4.091  12.020  24.791  0.00  0.00    +0.000 F 
ATOM     16  C   UNL     1      -2.236  11.738  23.362  0.00  0.00    +0.000 A 
ATOM     17  C   UNL     1      -1.565  12.068  22.181  0.00  0.00    +0.000 A 
ENDBRANCH   7  11
BRANCH   9  18
ATOM     18  N   UNL     1       2.333  14.009  20.601  0.00  0.00    +0.000 N 
ATOM     19  H   UNL     1       2.966  13.385  21.095  0.00  0.00    +0.000 HD
ATOM     20  H   UNL     1       2.268  14.939  21.001  0.00  0.00    +0.000 HD
ENDBRANCH   9  18
BRANCH   1  22
ATOM     21  C   UNL     1      -2.853  10.217  15.322  0.00  0.00    +0.000 C 
ATOM     22  C   UNL     1      -3.060   9.910  16.795  0.00  0.00    +0.000 C 
ENDBRANCH   1  22
BRANCH   8  23
ATOM     23  C   UNL     1      -0.118  15.529  20.849  0.00  0.00    +0.000 C 
ATOM     24  N   UNL     1      -0.152  16.714  21.277  0.00  0.00    +0.000 NA
ENDBRANCH   8  23
BRANCH   3  25
ATOM     25  C   UNL     1       1.749   9.871  18.170  0.00  0.00    +0.000 C 
BRANCH  25  26
ATOM     26  C   UNL     1       1.840   8.526  18.863  0.00  0.00    +0.000 A 
ATOM     27  C   UNL     1       1.427   8.375  20.196  0.00  0.00    +0.000 A 
ATOM     28  C   UNL     1       1.591   7.156  20.855  0.00  0.00    +0.000 A 
ATOM     29  C   UNL     1       2.158   6.084  20.178  0.00  0.00    +0.000 A 
ATOM     30  F   UNL     1       2.329   4.918  20.815  0.00  0.00    +0.000 F 
ATOM     31  C   UNL     1       2.553   6.203  18.853  0.00  0.00    +0.000 A 
ATOM     32  C   UNL     1       2.397   7.424  18.194  0.00  0.00    +0.000 A 
ENDBRANCH  25  26
ENDBRANCH   3  25
TORSDOF 6
ENDMDL
MODEL 7
REMARK VINA RESULT:      -7.4      2.885      7.939
REMARK  Name = 
REMARK  7 active torsions:
REMARK  status: ('A' for Active; 'I' for Inactive)
REMARK    1  A    between atoms: C_1  and  C_2
REMARK    2  A    between atoms: C_2  and  N_3
REMARK    3  A    between atoms: C_5  and  C_6
REMARK    4  A    between atoms: C_6  and  C_7
REMARK    5  A    between atoms: C_17  and  C_18
REMARK    6  A    between atoms: C_25  and  C_26
REMARK    7  A    between atoms: C_28  and  N_29
REMARK                            x       y       z     vdW  Elec       q    Type
REMARK                         _______ _______ _______ _____ _____    ______ ____
ROOT
ATOM      1  N   UNL     1       2.262   9.305  18.336  0.00  0.00    +0.000 N 
ATOM      2  C   UNL     1       1.736   9.358  19.617  0.00  0.00    +0.000 C 
ATOM      3  C   UNL     1       1.462   8.274  20.369  0.00  0.00    +0.000 C 
ATOM      4  C   UNL     1       1.773   6.973  19.802  0.00  0.00    +0.000 C 
ATOM      5  C   UNL     1       2.363   6.857  18.597  0.00  0.00    +0.000 C 
ATOM      6  C   UNL     1       2.703   8.039  17.733  0.00  0.00    +0.000 C 
ATOM      7  C   UNL     1       2.723   5.497  18.048  0.00  0.00    +0.000 C 
ATOM      8  C   UNL     1       2.013   4.402  18.797  0.00  0.00    +0.000 C 
ATOM      9  C   UNL     1       1.476   4.603  20.020  0.00  0.00    +0.000 C 
ATOM     10  O   UNL     1       1.459   5.874  20.584  0.00  0.00    +0.000 OA
ENDROOT
BRANCH   7  11
ATOM     11  C   UNL     1       4.240   5.287  18.076  0.00  0.00    +0.000 A 
ATOM     12  C   UNL     1       4.971   5.443  19.274  0.00  0.00    +0.000 A 
ATOM     13  C   UNL     1       6.354   5.278  19.294  0.00  0.00    +0.000 A 
ATOM     14  C   UNL     1       7.020   4.958  18.119  0.00  0.00    +0.000 A 
ATOM     15  F   UNL     1       8.350   4.809  18.134  0.00  0.00    +0.000 F 
ATOM     16  C   UNL     1       6.324   4.795  16.927  0.00  0.00    +0.000 A 
ATOM     17  C   UNL     1       4.936   4.955  16.903  0.00  0.00    +0.000 A 
ENDBRANCH   7  11
BRANCH   9  18
ATOM     18  N   UNL     1       0.929   3.637  20.829  0.00  0.00    +0.000 N 
ATOM     19  H   UNL     1       1.532   3.232  21.540  0.00  0.00    +0.000 HD
ATOM     20  H   UNL     1       0.361   2.961  20.329  0.00  0.00    +0.000 HD
ENDBRANCH   9  18
BRANCH   1  22
ATOM     21  C   UNL     1       2.140  11.759  18.288  0.00  0.00    +0.000 C 
ATOM     22  C   UNL     1       2.439  10.494  17.502  0.00  0.00    +0.000 C 
ENDBRANCH   1  22
BRANCH   8  23
ATOM     23  C   UNL     1       1.921   3.016  18.182  0.00  0.00    +0.000 C 
ATOM     24  N   UNL     1       1.844   1.866  17.670  0.00  0.00    +0.000 NA
ENDBRANCH   8  23
BRANCH   3  25
ATOM     25  C   UNL     1       0.866   8.382  21.754  0.00  0.00    +0.000 C 
BRANCH  25  26
ATOM     26  C   UNL     1      -0.078   9.559  21.897  0.00  0.00    +0.000 A 
ATOM     27  C   UNL     1      -0.444  10.327  20.779  0.00  0.00    +0.000 A 
ATOM     28  C   UNL     1      -1.246  11.460  20.929  0.00  0.00    +0.000 A 
ATOM     29  C   UNL     1      -1.692  11.819  22.195  0.00  0.00    +0.000 A 
ATOM     30  F   UNL     1      -2.449  12.914  22.341  0.00  0.00    +0.000 F 
ATOM     31  C   UNL     1      -1.360  11.062  23.311  0.00  0.00    +0.000 A 
ATOM     32  C   UNL     1      -0.552   9.934  23.164  0.00  0.00    +0.000 A 
ENDBRANCH  25  26
ENDBRANCH   3  25
TORSDOF 6
ENDMDL
MODEL 8
REMARK VINA RESULT:      -7.3      3.039      7.931
REMARK  Name = 
REMARK  7 active torsions:
REMARK  status: ('A' for Active; 'I' for Inactive)
REMARK    1  A    between atoms: C_1  and  C_2
REMARK    2  A    between atoms: C_2  and  N_3
REMARK    3  A    between atoms: C_5  and  C_6
REMARK    4  A    between atoms: C_6  and  C_7
REMARK    5  A    between atoms: C_17  and  C_18
REMARK    6  A    between atoms: C_25  and  C_26
REMARK    7  A    between atoms: C_28  and  N_29
REMARK                            x       y       z     vdW  Elec       q    Type
REMARK                         _______ _______ _______ _____ _____    ______ ____
ROOT
ATOM      1  N   UNL     1       2.152   9.343  18.374  0.00  0.00    +0.000 N 
ATOM      2  C   UNL     1       1.730   9.415  19.692  0.00  0.00    +0.000 C 
ATOM      3  C   UNL     1       1.516   8.342  20.479  0.00  0.00    +0.000 C 
ATOM      4  C   UNL     1       1.783   7.032  19.908  0.00  0.00    +0.000 C 
ATOM      5  C   UNL     1       2.275   6.900  18.661  0.00  0.00    +0.000 C 
ATOM      6  C   UNL     1       2.545   8.069  17.757  0.00  0.00    +0.000 C 
ATOM      7  C   UNL     1       2.591   5.531  18.105  0.00  0.00    +0.000 C 
ATOM      8  C   UNL     1       1.943   4.447  18.924  0.00  0.00    +0.000 C 
ATOM      9  C   UNL     1       1.505   4.666  20.182  0.00  0.00    +0.000 C 
ATOM     10  O   UNL     1       1.532   5.945  20.728  0.00  0.00    +0.000 OA
ENDROOT
BRANCH   7  11
ATOM     11  C   UNL     1       4.105   5.321  18.016  0.00  0.00    +0.000 A 
ATOM     12  C   UNL     1       4.719   4.974  16.792  0.00  0.00    +0.000 A 
ATOM     13  C   UNL     1       6.093   4.758  16.716  0.00  0.00    +0.000 A 
ATOM     14  C   UNL     1       6.867   4.883  17.862  0.00  0.00    +0.000 A 
ATOM     15  F   UNL     1       8.186   4.666  17.794  0.00  0.00    +0.000 F 
ATOM     16  C   UNL     1       6.289   5.228  19.079  0.00  0.00    +0.000 A 
ATOM     17  C   UNL     1       4.912   5.451  19.158  0.00  0.00    +0.000 A 
ENDBRANCH   7  11
BRANCH   9  18
ATOM     18  N   UNL     1       1.024   3.712  21.046  0.00  0.00    +0.000 N 
ATOM     19  H   UNL     1       0.086   3.849  21.412  0.00  0.00    +0.000 HD
ATOM     20  H   UNL     1       1.702   3.410  21.737  0.00  0.00    +0.000 HD
ENDBRANCH   9  18
BRANCH   1  22
ATOM     21  C   UNL     1       2.174  11.801  18.326  0.00  0.00    +0.000 C 
ATOM     22  C   UNL     1       2.262  10.521  17.513  0.00  0.00    +0.000 C 
ENDBRANCH   1  22
BRANCH   8  23
ATOM     23  C   UNL     1       1.803   3.053  18.337  0.00  0.00    +0.000 C 
ATOM     24  N   UNL     1       1.687   1.896  17.850  0.00  0.00    +0.000 NA
ENDBRANCH   8  23
BRANCH   3  25
ATOM     25  C   UNL     1       1.032   8.469  21.905  0.00  0.00    +0.000 C 
BRANCH  25  26
ATOM     26  C   UNL     1       0.298   9.770  22.161  0.00  0.00    +0.000 A 
ATOM     27  C   UNL     1      -0.752   9.832  23.092  0.00  0.00    +0.000 A 
ATOM     28  C   UNL     1      -1.480  11.011  23.263  0.00  0.00    +0.000 A 
ATOM     29  C   UNL     1      -1.151  12.132  22.511  0.00  0.00    +0.000 A 
ATOM     30  F   UNL     1      -1.859  13.259  22.664  0.00  0.00    +0.000 F 
ATOM     31  C   UNL     1      -0.103  12.100  21.600  0.00  0.00    +0.000 A 
ATOM     32  C   UNL     1       0.621  10.920  21.424  0.00  0.00    +0.000 A 
ENDBRANCH  25  26
ENDBRANCH   3  25
TORSDOF 6
ENDMDL
MODEL 9
REMARK VINA RESULT:      -7.3      3.324      5.506
REMARK  Name = 
REMARK  7 active torsions:
REMARK  status: ('A' for Active; 'I' for Inactive)
REMARK    1  A    between atoms: C_1  and  C_2
REMARK    2  A    between atoms: C_2  and  N_3
REMARK    3  A    between atoms: C_5  and  C_6
REMARK    4  A    between atoms: C_6  and  C_7
REMARK    5  A    between atoms: C_17  and  C_18
REMARK    6  A    between atoms: C_25  and  C_26
REMARK    7  A    between atoms: C_28  and  N_29
REMARK                            x       y       z     vdW  Elec       q    Type
REMARK                         _______ _______ _______ _____ _____    ______ ____
ROOT
ATOM      1  N   UNL     1      -2.239  10.561  17.887  0.00  0.00    +0.000 N 
ATOM      2  C   UNL     1      -0.927  10.117  17.856  0.00  0.00    +0.000 C 
ATOM      3  C   UNL     1       0.098  10.741  18.468  0.00  0.00    +0.000 C 
ATOM      4  C   UNL     1      -0.210  11.938  19.233  0.00  0.00    +0.000 C 
ATOM      5  C   UNL     1      -1.477  12.374  19.370  0.00  0.00    +0.000 C 
ATOM      6  C   UNL     1      -2.652  11.698  18.721  0.00  0.00    +0.000 C 
ATOM      7  C   UNL     1      -1.781  13.592  20.210  0.00  0.00    +0.000 C 
ATOM      8  C   UNL     1      -0.534  14.387  20.488  0.00  0.00    +0.000 C 
ATOM      9  C   UNL     1       0.700  13.855  20.351  0.00  0.00    +0.000 C 
ATOM     10  O   UNL     1       0.864  12.575  19.831  0.00  0.00    +0.000 OA
ENDROOT
BRANCH   7  11
ATOM     11  C   UNL     1      -2.476  13.189  21.514  0.00  0.00    +0.000 A 
ATOM     12  C   UNL     1      -3.653  13.843  21.941  0.00  0.00    +0.000 A 
ATOM     13  C   UNL     1      -4.270  13.494  23.140  0.00  0.00    +0.000 A 
ATOM     14  C   UNL     1      -3.719  12.491  23.924  0.00  0.00    +0.000 A 
ATOM     15  F   UNL     1      -4.305  12.160  25.081  0.00  0.00    +0.000 F 
ATOM     16  C   UNL     1      -2.564  11.827  23.525  0.00  0.00    +0.000 A 
ATOM     17  C   UNL     1      -1.943  12.171  22.321  0.00  0.00    +0.000 A 
ENDBRANCH   7  11
BRANCH   9  18
ATOM     18  N   UNL     1       1.882  14.458  20.705  0.00  0.00    +0.000 N 
ATOM     19  H   UNL     1       1.833  15.423  21.023  0.00  0.00    +0.000 HD
ATOM     20  H   UNL     1       2.644  14.270  20.062  0.00  0.00    +0.000 HD
ENDBRANCH   9  18
BRANCH   1  22
ATOM     21  C   UNL     1      -2.903   9.751  15.662  0.00  0.00    +0.000 C 
ATOM     22  C   UNL     1      -3.309   9.925  17.116  0.00  0.00    +0.000 C 
ENDBRANCH   1  22
BRANCH   8  23
ATOM     23  C   UNL     1      -0.657  15.823  20.968  0.00  0.00    +0.000 C 
ATOM     24  N   UNL     1      -0.758  17.015  21.366  0.00  0.00    +0.000 NA
ENDBRANCH   8  23
BRANCH   3  25
ATOM     25  C   UNL     1       1.519  10.231  18.387  0.00  0.00    +0.000 C 
BRANCH  25  26
ATOM     26  C   UNL     1       1.712   8.916  19.116  0.00  0.00    +0.000 A 
ATOM     27  C   UNL     1       2.362   7.838  18.494  0.00  0.00    +0.000 A 
ATOM     28  C   UNL     1       2.463   6.603  19.137  0.00  0.00    +0.000 A 
ATOM     29  C   UNL     1       1.923   6.449  20.408  0.00  0.00    +0.000 A 
ATOM     30  F   UNL     1       2.006   5.260  21.019  0.00  0.00    +0.000 F 
ATOM     31  C   UNL     1       1.293   7.506  21.051  0.00  0.00    +0.000 A 
ATOM     32  C   UNL     1       1.186   8.740  20.406  0.00  0.00    +0.000 A 
ENDBRANCH  25  26
ENDBRANCH   3  25
TORSDOF 6
ENDMDL
