MODEL 1
REMARK VINA RESULT:      -7.7      0.000      0.000
REMARK  Name = 
REMARK  13 active torsions:
REMARK  status: ('A' for Active; 'I' for Inactive)
REMARK    1  A    between atoms: C_1  and  O_2
REMARK    2  A    between atoms: O_2  and  C_3
REMARK    3  A    between atoms: C_5  and  N_6
REMARK    4  A    between atoms: N_6  and  C_7
REMARK    5  A    between atoms: N_6  and  C_8
REMARK    6  A    between atoms: C_8  and  C_9
REMARK    7  A    between atoms: C_9  and  N_10
REMARK    8  A    between atoms: N_10  and  C_11
REMARK    9  A    between atoms: N_10  and  C_12
REMARK   10  A    between atoms: C_13  and  N_14
REMARK   11  A    between atoms: C_16  and  N_17
REMARK   12  A    between atoms: C_22  and  C_23
REMARK   13  A    between atoms: N_25  and  C_26
REMARK                            x       y       z     vdW  Elec       q    Type
REMARK                         _______ _______ _______ _____ _____    ______ ____
ROOT
ATOM      1  C   UNL     1      -0.133  12.741  20.012  0.00  0.00    +0.000 A 
ATOM      2  C   UNL     1      -1.101  13.598  20.571  0.00  0.00    +0.000 A 
ATOM      3  C   UNL     1      -2.479  13.488  20.291  0.00  0.00    +0.000 A 
ATOM      4  C   UNL     1      -2.871  12.462  19.370  0.00  0.00    +0.000 A 
ATOM      5  C   UNL     1      -1.892  11.626  18.808  0.00  0.00    +0.000 A 
ATOM      6  C   UNL     1      -0.526  11.736  19.118  0.00  0.00    +0.000 A 
ENDROOT
BRANCH   6   7
ATOM      7  N   UNL     1       0.466  10.860  18.544  0.00  0.00    +0.000 N 
ATOM      8  C   UNL     1       0.961   9.675  19.166  0.00  0.00    +0.000 A 
ATOM      9  N   UNL     1       0.710   9.425  20.476  0.00  0.00    +0.000 NA
ATOM     10  C   UNL     1       1.155   8.310  21.092  0.00  0.00    +0.000 A 
ATOM     11  C   UNL     1       1.899   7.384  20.382  0.00  0.00    +0.000 A 
ATOM     12  C   UNL     1       2.194   7.635  19.034  0.00  0.00    +0.000 A 
ATOM     13  N   UNL     1       1.720   8.785  18.457  0.00  0.00    +0.000 NA
ATOM     14  H   UNL     1       0.883  11.115  17.635  0.00  0.00    +0.000 HD
BRANCH  12  15
ATOM     15  C   UNL     1       3.001   6.656  18.250  0.00  0.00    +0.000 A 
ATOM     16  C   UNL     1       4.152   6.945  17.516  0.00  0.00    +0.000 A 
ATOM     17  N   UNL     1       4.629   5.823  16.938  0.00  0.00    +0.000 N 
ATOM     18  C   UNL     1       5.823   5.732  16.098  0.00  0.00    +0.000 C 
ATOM     19  C   UNL     1       3.801   4.822  17.288  0.00  0.00    +0.000 A 
ATOM     20  C   UNL     1       3.887   3.478  16.920  0.00  0.00    +0.000 A 
ATOM     21  C   UNL     1       2.902   2.600  17.401  0.00  0.00    +0.000 A 
ATOM     22  C   UNL     1       1.864   3.075  18.230  0.00  0.00    +0.000 A 
ATOM     23  C   UNL     1       1.800   4.434  18.588  0.00  0.00    +0.000 A 
ATOM     24  C   UNL     1       2.791   5.292  18.097  0.00  0.00    +0.000 A 
ENDBRANCH  12  15
ENDBRANCH   6   7
BRANCH   4  25
ATOM     25  N   UNL     1      -4.207  12.248  18.924  0.00  0.00    +0.000 N 
ATOM     26  H   UNL     1      -4.671  12.822  18.215  0.00  0.00    +0.000 HD
ATOM     27  H   UNL     1      -4.733  11.423  19.253  0.00  0.00    +0.000 HD
ENDBRANCH   4  25
BRANCH   1  29
ATOM     28  C   UNL     1       2.020  13.858  19.973  0.00  0.00    +0.000 C 
ATOM     29  O   UNL     1       1.178  12.834  20.354  0.00  0.00    +0.000 OA
ENDBRANCH   1  29
BRANCH   3  30
ATOM     30  N   UNL     1      -3.403  14.394  20.958  0.00  0.00    +0.000 N 
ATOM     31  C   UNL     1      -3.155  15.826  21.055  0.00  0.00    +0.000 C 
BRANCH  30  32
ATOM     32  C   UNL     1      -4.735  13.956  21.395  0.00  0.00    +0.000 C 
BRANCH  32  33
ATOM     33  C   UNL     1      -4.702  13.020  22.623  0.00  0.00    +0.000 C 
BRANCH  33  34
ATOM     34  N   UNL     1      -5.946  12.243  22.832  0.00  0.00    +0.000 NA
ATOM     35  C   UNL     1      -6.702  12.711  24.008  0.00  0.00    +0.000 C 
ATOM     36  C   UNL     1      -6.800  12.382  21.637  0.00  0.00    +0.000 C 
ENDBRANCH  33  34
ENDBRANCH  32  33
ENDBRANCH  30  32
ENDBRANCH   3  30
TORSDOF 8
ENDMDL
MODEL 2
REMARK VINA RESULT:      -7.6      1.470      1.648
REMARK  Name = 
REMARK  13 active torsions:
REMARK  status: ('A' for Active; 'I' for Inactive)
REMARK    1  A    between atoms: C_1  and  O_2
REMARK    2  A    between atoms: O_2  and  C_3
REMARK    3  A    between atoms: C_5  and  N_6
REMARK    4  A    between atoms: N_6  and  C_7
REMARK    5  A    between atoms: N_6  and  C_8
REMARK    6  A    between atoms: C_8  and  C_9
REMARK    7  A    between atoms: C_9  and  N_10
REMARK    8  A    between atoms: N_10  and  C_11
REMARK    9  A    between atoms: N_10  and  C_12
REMARK   10  A    between atoms: C_13  and  N_14
REMARK   11  A    between atoms: C_16  and  N_17
REMARK   12  A    between atoms: C_22  and  C_23
REMARK   13  A    between atoms: N_25  and  C_26
REMARK                            x       y       z     vdW  Elec       q    Type
REMARK                         _______ _______ _______ _____ _____    ______ ____
ROOT
ATOM      1  C   UNL     1       1.100  13.015  19.371  0.00  0.00    +0.000 A 
ATOM      2  C   UNL     1       0.339  14.089  19.871  0.00  0.00    +0.000 A 
ATOM      3  C   UNL     1      -1.069  14.055  19.967  0.00  0.00    +0.000 A 
ATOM      4  C   UNL     1      -1.719  12.866  19.500  0.00  0.00    +0.000 A 
ATOM      5  C   UNL     1      -0.947  11.811  18.989  0.00  0.00    +0.000 A 
ATOM      6  C   UNL     1       0.456  11.854  18.923  0.00  0.00    +0.000 A 
ENDROOT
BRANCH   6   7
ATOM      7  N   UNL     1       1.236  10.754  18.409  0.00  0.00    +0.000 N 
ATOM      8  C   UNL     1       1.468   9.528  19.103  0.00  0.00    +0.000 A 
ATOM      9  N   UNL     1       1.173   9.414  20.422  0.00  0.00    +0.000 NA
ATOM     10  C   UNL     1       1.371   8.267  21.104  0.00  0.00    +0.000 A 
ATOM     11  C   UNL     1       1.898   7.165  20.455  0.00  0.00    +0.000 A 
ATOM     12  C   UNL     1       2.236   7.269  19.098  0.00  0.00    +0.000 A 
ATOM     13  N   UNL     1       2.018   8.458  18.453  0.00  0.00    +0.000 NA
ATOM     14  H   UNL     1       1.695  10.861  17.491  0.00  0.00    +0.000 HD
BRANCH  12  15
ATOM     15  C   UNL     1       2.813   6.096  18.379  0.00  0.00    +0.000 A 
ATOM     16  C   UNL     1       3.903   6.125  17.508  0.00  0.00    +0.000 A 
ATOM     17  N   UNL     1       4.159   4.885  17.042  0.00  0.00    +0.000 N 
ATOM     18  C   UNL     1       5.229   4.521  16.114  0.00  0.00    +0.000 C 
ATOM     19  C   UNL     1       3.249   4.065  17.598  0.00  0.00    +0.000 A 
ATOM     20  C   UNL     1       3.114   2.688  17.405  0.00  0.00    +0.000 A 
ATOM     21  C   UNL     1       2.079   2.027  18.088  0.00  0.00    +0.000 A 
ATOM     22  C   UNL     1       1.213   2.743  18.940  0.00  0.00    +0.000 A 
ATOM     23  C   UNL     1       1.371   4.130  19.120  0.00  0.00    +0.000 A 
ATOM     24  C   UNL     1       2.407   4.769  18.428  0.00  0.00    +0.000 A 
ENDBRANCH  12  15
ENDBRANCH   6   7
BRANCH   4  25
ATOM     25  N   UNL     1      -3.131  12.684  19.463  0.00  0.00    +0.000 N 
ATOM     26  H   UNL     1      -3.618  12.137  18.747  0.00  0.00    +0.000 HD
ATOM     27  H   UNL     1      -3.717  13.039  20.236  0.00  0.00    +0.000 HD
ENDBRANCH   4  25
BRANCH   1  29
ATOM     28  C   UNL     1       3.215  14.163  19.674  0.00  0.00    +0.000 C 
ATOM     29  O   UNL     1       2.457  13.056  19.353  0.00  0.00    +0.000 OA
ENDBRANCH   1  29
BRANCH   3  30
ATOM     30  N   UNL     1      -1.758  15.201  20.543  0.00  0.00    +0.000 N 
ATOM     31  C   UNL     1      -1.781  16.504  19.891  0.00  0.00    +0.000 C 
BRANCH  30  32
ATOM     32  C   UNL     1      -2.642  15.065  21.708  0.00  0.00    +0.000 C 
BRANCH  32  33
ATOM     33  C   UNL     1      -1.944  14.445  22.939  0.00  0.00    +0.000 C 
BRANCH  33  34
ATOM     34  N   UNL     1      -2.821  13.587  23.769  0.00  0.00    +0.000 NA
ATOM     35  C   UNL     1      -4.200  14.103  23.839  0.00  0.00    +0.000 C 
ATOM     36  C   UNL     1      -2.854  12.233  23.183  0.00  0.00    +0.000 C 
ENDBRANCH  33  34
ENDBRANCH  32  33
ENDBRANCH  30  32
ENDBRANCH   3  30
TORSDOF 8
ENDMDL
MODEL 3
REMARK VINA RESULT:      -7.6      1.721      2.601
REMARK  Name = 
REMARK  13 active torsions:
REMARK  status: ('A' for Active; 'I' for Inactive)
REMARK    1  A    between atoms: C_1  and  O_2
REMARK    2  A    between atoms: O_2  and  C_3
REMARK    3  A    between atoms: C_5  and  N_6
REMARK    4  A    between atoms: N_6  and  C_7
REMARK    5  A    between atoms: N_6  and  C_8
REMARK    6  A    between atoms: C_8  and  C_9
REMARK    7  A    between atoms: C_9  and  N_10
REMARK    8  A    between atoms: N_10  and  C_11
REMARK    9  A    between atoms: N_10  and  C_12
REMARK   10  A    between atoms: C_13  and  N_14
REMARK   11  A    between atoms: C_16  and  N_17
REMARK   12  A    between atoms: C_22  and  C_23
REMARK   13  A    between atoms: N_25  and  C_26
REMARK                            x       y       z     vdW  Elec       q    Type
REMARK                         _______ _______ _______ _____ _____    ______ ____
ROOT
ATOM      1  C   UNL     1       1.183  12.946  19.206  0.00  0.00    +0.000 A 
ATOM      2  C   UNL     1       0.490  14.072  19.692  0.00  0.00    +0.000 A 
ATOM      3  C   UNL     1      -0.911  14.102  19.856  0.00  0.00    +0.000 A 
ATOM      4  C   UNL     1      -1.631  12.923  19.474  0.00  0.00    +0.000 A 
ATOM      5  C   UNL     1      -0.928  11.815  18.974  0.00  0.00    +0.000 A 
ATOM      6  C   UNL     1       0.472  11.796  18.841  0.00  0.00    +0.000 A 
ENDROOT
BRANCH   6   7
ATOM      7  N   UNL     1       1.181  10.643  18.341  0.00  0.00    +0.000 N 
ATOM      8  C   UNL     1       1.415   9.447  19.085  0.00  0.00    +0.000 A 
ATOM      9  N   UNL     1       1.201   9.413  20.424  0.00  0.00    +0.000 NA
ATOM     10  C   UNL     1       1.403   8.296  21.155  0.00  0.00    +0.000 A 
ATOM     11  C   UNL     1       1.851   7.143  20.535  0.00  0.00    +0.000 A 
ATOM     12  C   UNL     1       2.106   7.164  19.156  0.00  0.00    +0.000 A 
ATOM     13  N   UNL     1       1.887   8.325  18.462  0.00  0.00    +0.000 NA
ATOM     14  H   UNL     1       1.584  10.685  17.392  0.00  0.00    +0.000 HD
BRANCH  12  15
ATOM     15  C   UNL     1       2.597   5.935  18.468  0.00  0.00    +0.000 A 
ATOM     16  C   UNL     1       2.059   4.655  18.596  0.00  0.00    +0.000 A 
ATOM     17  N   UNL     1       2.745   3.783  17.827  0.00  0.00    +0.000 N 
ATOM     18  C   UNL     1       2.469   2.353  17.697  0.00  0.00    +0.000 C 
ATOM     19  C   UNL     1       3.714   4.484  17.212  0.00  0.00    +0.000 A 
ATOM     20  C   UNL     1       4.678   4.006  16.324  0.00  0.00    +0.000 A 
ATOM     21  C   UNL     1       5.605   4.923  15.802  0.00  0.00    +0.000 A 
ATOM     22  C   UNL     1       5.550   6.283  16.171  0.00  0.00    +0.000 A 
ATOM     23  C   UNL     1       4.567   6.743  17.067  0.00  0.00    +0.000 A 
ATOM     24  C   UNL     1       3.654   5.811  17.576  0.00  0.00    +0.000 A 
ENDBRANCH  12  15
ENDBRANCH   6   7
BRANCH   4  25
ATOM     25  N   UNL     1      -3.049  12.799  19.510  0.00  0.00    +0.000 N 
ATOM     26  H   UNL     1      -3.580  12.548  20.349  0.00  0.00    +0.000 HD
ATOM     27  H   UNL     1      -3.609  13.055  18.682  0.00  0.00    +0.000 HD
ENDBRANCH   4  25
BRANCH   1  29
ATOM     28  C   UNL     1       3.335  14.051  19.036  0.00  0.00    +0.000 C 
ATOM     29  O   UNL     1       2.538  12.929  19.123  0.00  0.00    +0.000 OA
ENDBRANCH   1  29
BRANCH   3  30
ATOM     30  N   UNL     1      -1.524  15.300  20.411  0.00  0.00    +0.000 N 
ATOM     31  C   UNL     1      -1.619  16.545  19.662  0.00  0.00    +0.000 C 
BRANCH  30  32
ATOM     32  C   UNL     1      -2.268  15.270  21.678  0.00  0.00    +0.000 C 
BRANCH  32  33
ATOM     33  C   UNL     1      -1.390  14.908  22.896  0.00  0.00    +0.000 C 
BRANCH  33  34
ATOM     34  N   UNL     1      -1.918  13.795  23.718  0.00  0.00    +0.000 NA
ATOM     35  C   UNL     1      -3.391  13.806  23.791  0.00  0.00    +0.000 C 
ATOM     36  C   UNL     1      -1.486  12.516  23.122  0.00  0.00    +0.000 C 
ENDBRANCH  33  34
ENDBRANCH  32  33
ENDBRANCH  30  32
ENDBRANCH   3  30
TORSDOF 8
ENDMDL
MODEL 4
REMARK VINA RESULT:      -7.6      1.076      1.881
REMARK  Name = 
REMARK  13 active torsions:
REMARK  status: ('A' for Active; 'I' for Inactive)
REMARK    1  A    between atoms: C_1  and  O_2
REMARK    2  A    between atoms: O_2  and  C_3
REMARK    3  A    between atoms: C_5  and  N_6
REMARK    4  A    between atoms: N_6  and  C_7
REMARK    5  A    between atoms: N_6  and  C_8
REMARK    6  A    between atoms: C_8  and  C_9
REMARK    7  A    between atoms: C_9  and  N_10
REMARK    8  A    between atoms: N_10  and  C_11
REMARK    9  A    between atoms: N_10  and  C_12
REMARK   10  A    between atoms: C_13  and  N_14
REMARK   11  A    between atoms: C_16  and  N_17
REMARK   12  A    between atoms: C_22  and  C_23
REMARK   13  A    between atoms: N_25  and  C_26
REMARK                            x       y       z     vdW  Elec       q    Type
REMARK                         _______ _______ _______ _____ _____    ______ ____
ROOT
ATOM      1  C   UNL     1      -1.708  11.829  19.065  0.00  0.00    +0.000 A 
ATOM      2  C   UNL     1      -2.634  12.700  19.673  0.00  0.00    +0.000 A 
ATOM      3  C   UNL     1      -2.275  13.623  20.678  0.00  0.00    +0.000 A 
ATOM      4  C   UNL     1      -0.903  13.626  21.092  0.00  0.00    +0.000 A 
ATOM      5  C   UNL     1       0.004  12.741  20.488  0.00  0.00    +0.000 A 
ATOM      6  C   UNL     1      -0.367  11.845  19.470  0.00  0.00    +0.000 A 
ENDROOT
BRANCH   6   7
ATOM      7  N   UNL     1       0.580  10.951  18.849  0.00  0.00    +0.000 N 
ATOM      8  C   UNL     1       1.023   9.717  19.413  0.00  0.00    +0.000 A 
ATOM      9  N   UNL     1       0.767   9.419  20.711  0.00  0.00    +0.000 NA
ATOM     10  C   UNL     1       1.163   8.257  21.272  0.00  0.00    +0.000 A 
ATOM     11  C   UNL     1       1.860   7.332  20.514  0.00  0.00    +0.000 A 
ATOM     12  C   UNL     1       2.159   7.631  19.177  0.00  0.00    +0.000 A 
ATOM     13  N   UNL     1       1.736   8.827  18.658  0.00  0.00    +0.000 NA
ATOM     14  H   UNL     1       1.003  11.228  17.949  0.00  0.00    +0.000 HD
BRANCH  12  15
ATOM     15  C   UNL     1       2.916   6.653  18.343  0.00  0.00    +0.000 A 
ATOM     16  C   UNL     1       4.039   6.937  17.565  0.00  0.00    +0.000 A 
ATOM     17  N   UNL     1       4.473   5.818  16.948  0.00  0.00    +0.000 N 
ATOM     18  C   UNL     1       5.628   5.723  16.057  0.00  0.00    +0.000 C 
ATOM     19  C   UNL     1       3.645   4.824  17.317  0.00  0.00    +0.000 A 
ATOM     20  C   UNL     1       3.693   3.486  16.924  0.00  0.00    +0.000 A 
ATOM     21  C   UNL     1       2.715   2.615  17.433  0.00  0.00    +0.000 A 
ATOM     22  C   UNL     1       1.722   3.091  18.313  0.00  0.00    +0.000 A 
ATOM     23  C   UNL     1       1.695   4.445  18.696  0.00  0.00    +0.000 A 
ATOM     24  C   UNL     1       2.678   5.296  18.177  0.00  0.00    +0.000 A 
ENDBRANCH  12  15
ENDBRANCH   6   7
BRANCH   4  25
ATOM     25  N   UNL     1      -0.379  14.443  22.134  0.00  0.00    +0.000 N 
ATOM     26  H   UNL     1       0.603  14.723  22.203  0.00  0.00    +0.000 HD
ATOM     27  H   UNL     1      -1.018  14.865  22.828  0.00  0.00    +0.000 HD
ENDBRANCH   4  25
BRANCH   1  29
ATOM     28  C   UNL     1      -3.254  11.094  17.346  0.00  0.00    +0.000 C 
ATOM     29  O   UNL     1      -2.075  10.999  18.055  0.00  0.00    +0.000 OA
ENDBRANCH   1  29
BRANCH   3  30
ATOM     30  N   UNL     1      -3.299  14.511  21.208  0.00  0.00    +0.000 N 
ATOM     31  C   UNL     1      -3.131  15.958  21.246  0.00  0.00    +0.000 C 
BRANCH  30  32
ATOM     32  C   UNL     1      -4.644  14.026  21.547  0.00  0.00    +0.000 C 
BRANCH  32  33
ATOM     33  C   UNL     1      -4.664  13.074  22.764  0.00  0.00    +0.000 C 
BRANCH  33  34
ATOM     34  N   UNL     1      -5.956  12.382  22.975  0.00  0.00    +0.000 NA
ATOM     35  C   UNL     1      -6.752  13.006  24.049  0.00  0.00    +0.000 C 
ATOM     36  C   UNL     1      -6.734  12.433  21.722  0.00  0.00    +0.000 C 
ENDBRANCH  33  34
ENDBRANCH  32  33
ENDBRANCH  30  32
ENDBRANCH   3  30
TORSDOF 8
ENDMDL
MODEL 5
REMARK VINA RESULT:      -7.6      1.576      2.332
REMARK  Name = 
REMARK  13 active torsions:
REMARK  status: ('A' for Active; 'I' for Inactive)
REMARK    1  A    between atoms: C_1  and  O_2
REMARK    2  A    between atoms: O_2  and  C_3
REMARK    3  A    between atoms: C_5  and  N_6
REMARK    4  A    between atoms: N_6  and  C_7
REMARK    5  A    between atoms: N_6  and  C_8
REMARK    6  A    between atoms: C_8  and  C_9
REMARK    7  A    between atoms: C_9  and  N_10
REMARK    8  A    between atoms: N_10  and  C_11
REMARK    9  A    between atoms: N_10  and  C_12
REMARK   10  A    between atoms: C_13  and  N_14
REMARK   11  A    between atoms: C_16  and  N_17
REMARK   12  A    between atoms: C_22  and  C_23
REMARK   13  A    between atoms: N_25  and  C_26
REMARK                            x       y       z     vdW  Elec       q    Type
REMARK                         _______ _______ _______ _____ _____    ______ ____
ROOT
ATOM      1  C   UNL     1      -2.674  11.085  18.488  0.00  0.00    +0.000 A 
ATOM      2  C   UNL     1      -3.741  11.839  19.015  0.00  0.00    +0.000 A 
ATOM      3  C   UNL     1      -3.551  13.011  19.776  0.00  0.00    +0.000 A 
ATOM      4  C   UNL     1      -2.197  13.407  20.026  0.00  0.00    +0.000 A 
ATOM      5  C   UNL     1      -1.144  12.636  19.508  0.00  0.00    +0.000 A 
ATOM      6  C   UNL     1      -1.353  11.483  18.731  0.00  0.00    +0.000 A 
ENDROOT
BRANCH   6   7
ATOM      7  N   UNL     1      -0.260  10.710  18.192  0.00  0.00    +0.000 N 
ATOM      8  C   UNL     1       0.456   9.706  18.911  0.00  0.00    +0.000 A 
ATOM      9  N   UNL     1       0.318   9.587  20.256  0.00  0.00    +0.000 NA
ATOM     10  C   UNL     1       0.973   8.643  20.963  0.00  0.00    +0.000 A 
ATOM     11  C   UNL     1       1.822   7.765  20.314  0.00  0.00    +0.000 A 
ATOM     12  C   UNL     1       2.001   7.887  18.928  0.00  0.00    +0.000 A 
ATOM     13  N   UNL     1       1.314   8.866  18.258  0.00  0.00    +0.000 NA
ATOM     14  H   UNL     1       0.061  10.910  17.232  0.00  0.00    +0.000 HD
BRANCH  12  15
ATOM     15  C   UNL     1       2.918   6.957  18.208  0.00  0.00    +0.000 A 
ATOM     16  C   UNL     1       4.102   7.313  17.561  0.00  0.00    +0.000 A 
ATOM     17  N   UNL     1       4.684   6.221  17.021  0.00  0.00    +0.000 N 
ATOM     18  C   UNL     1       5.940   6.200  16.273  0.00  0.00    +0.000 C 
ATOM     19  C   UNL     1       3.890   5.175  17.310  0.00  0.00    +0.000 A 
ATOM     20  C   UNL     1       4.078   3.839  16.951  0.00  0.00    +0.000 A 
ATOM     21  C   UNL     1       3.111   2.905  17.358  0.00  0.00    +0.000 A 
ATOM     22  C   UNL     1       1.989   3.318  18.107  0.00  0.00    +0.000 A 
ATOM     23  C   UNL     1       1.822   4.671  18.458  0.00  0.00    +0.000 A 
ATOM     24  C   UNL     1       2.798   5.584  18.041  0.00  0.00    +0.000 A 
ENDBRANCH  12  15
ENDBRANCH   6   7
BRANCH   4  25
ATOM     25  N   UNL     1      -1.819  14.524  20.825  0.00  0.00    +0.000 N 
ATOM     26  H   UNL     1      -0.875  14.671  21.193  0.00  0.00    +0.000 HD
ATOM     27  H   UNL     1      -2.492  15.290  20.990  0.00  0.00    +0.000 HD
ENDBRANCH   4  25
BRANCH   1  29
ATOM     28  C   UNL     1      -2.836   9.995  16.326  0.00  0.00    +0.000 C 
ATOM     29  O   UNL     1      -2.894   9.997  17.704  0.00  0.00    +0.000 OA
ENDBRANCH   1  29
BRANCH   3  30
ATOM     30  N   UNL     1      -4.723  13.744  20.235  0.00  0.00    +0.000 N 
ATOM     31  C   UNL     1      -5.809  14.115  19.338  0.00  0.00    +0.000 C 
BRANCH  30  32
ATOM     32  C   UNL     1      -4.980  13.973  21.663  0.00  0.00    +0.000 C 
BRANCH  32  33
ATOM     33  C   UNL     1      -4.814  12.705  22.528  0.00  0.00    +0.000 C 
BRANCH  33  34
ATOM     34  N   UNL     1      -3.803  12.829  23.604  0.00  0.00    +0.000 NA
ATOM     35  C   UNL     1      -4.345  12.449  24.922  0.00  0.00    +0.000 C 
ATOM     36  C   UNL     1      -2.664  11.945  23.291  0.00  0.00    +0.000 C 
ENDBRANCH  33  34
ENDBRANCH  32  33
ENDBRANCH  30  32
ENDBRANCH   3  30
TORSDOF 8
ENDMDL
MODEL 6
REMARK VINA RESULT:      -7.5      1.720      2.961
REMARK  Name = 
REMARK  13 active torsions:
REMARK  status: ('A' for Active; 'I' for Inactive)
REMARK    1  A    between atoms: C_1  and  O_2
REMARK    2  A    between atoms: O_2  and  C_3
REMARK    3  A    between atoms: C_5  and  N_6
REMARK    4  A    between atoms: N_6  and  C_7
REMARK    5  A    between atoms: N_6  and  C_8
REMARK    6  A    between atoms: C_8  and  C_9
REMARK    7  A    between atoms: C_9  and  N_10
REMARK    8  A    between atoms: N_10  and  C_11
REMARK    9  A    between atoms: N_10  and  C_12
REMARK   10  A    between atoms: C_13  and  N_14
REMARK   11  A    between atoms: C_16  and  N_17
REMARK   12  A    between atoms: C_22  and  C_23
REMARK   13  A    between atoms: N_25  and  C_26
REMARK                            x       y       z     vdW  Elec       q    Type
REMARK                         _______ _______ _______ _____ _____    ______ ____
ROOT
ATOM      1  C   UNL     1      -0.843  11.596  18.775  0.00  0.00    +0.000 A 
ATOM      2  C   UNL     1      -1.618  12.649  19.299  0.00  0.00    +0.000 A 
ATOM      3  C   UNL     1      -1.136  13.549  20.273  0.00  0.00    +0.000 A 
ATOM      4  C   UNL     1       0.200  13.333  20.746  0.00  0.00    +0.000 A 
ATOM      5  C   UNL     1       0.954  12.269  20.227  0.00  0.00    +0.000 A 
ATOM      6  C   UNL     1       0.464  11.397  19.238  0.00  0.00    +0.000 A 
ENDROOT
BRANCH   6   7
ATOM      7  N   UNL     1       1.258  10.317  18.704  0.00  0.00    +0.000 N 
ATOM      8  C   UNL     1       1.458   9.059  19.348  0.00  0.00    +0.000 A 
ATOM      9  N   UNL     1       1.113   8.887  20.649  0.00  0.00    +0.000 NA
ATOM     10  C   UNL     1       1.279   7.708  21.285  0.00  0.00    +0.000 A 
ATOM     11  C   UNL     1       1.825   6.633  20.606  0.00  0.00    +0.000 A 
ATOM     12  C   UNL     1       2.214   6.797  19.268  0.00  0.00    +0.000 A 
ATOM     13  N   UNL     1       2.026   8.016  18.671  0.00  0.00    +0.000 NA
ATOM     14  H   UNL     1       1.751  10.463  17.809  0.00  0.00    +0.000 HD
BRANCH  12  15
ATOM     15  C   UNL     1       2.812   5.655  18.518  0.00  0.00    +0.000 A 
ATOM     16  C   UNL     1       2.488   4.308  18.683  0.00  0.00    +0.000 A 
ATOM     17  N   UNL     1       3.215   3.547  17.837  0.00  0.00    +0.000 N 
ATOM     18  C   UNL     1       3.145   2.092  17.717  0.00  0.00    +0.000 C 
ATOM     19  C   UNL     1       4.000   4.386  17.137  0.00  0.00    +0.000 A 
ATOM     20  C   UNL     1       4.930   4.056  16.150  0.00  0.00    +0.000 A 
ATOM     21  C   UNL     1       5.651   5.102  15.549  0.00  0.00    +0.000 A 
ATOM     22  C   UNL     1       5.429   6.439  15.939  0.00  0.00    +0.000 A 
ATOM     23  C   UNL     1       4.485   6.747  16.936  0.00  0.00    +0.000 A 
ATOM     24  C   UNL     1       3.779   5.689  17.522  0.00  0.00    +0.000 A 
ENDBRANCH  12  15
ENDBRANCH   6   7
BRANCH   4  25
ATOM     25  N   UNL     1       0.825  14.101  21.769  0.00  0.00    +0.000 N 
ATOM     26  H   UNL     1       0.407  14.277  22.688  0.00  0.00    +0.000 HD
ATOM     27  H   UNL     1       1.791  14.443  21.640  0.00  0.00    +0.000 HD
ENDBRANCH   4  25
BRANCH   1  29
ATOM     28  C   UNL     1      -2.468  10.034  17.879  0.00  0.00    +0.000 C 
ATOM     29  O   UNL     1      -1.316  10.788  17.792  0.00  0.00    +0.000 OA
ENDBRANCH   1  29
BRANCH   3  30
ATOM     30  N   UNL     1      -2.002  14.632  20.714  0.00  0.00    +0.000 N 
ATOM     31  C   UNL     1      -1.820  16.006  20.265  0.00  0.00    +0.000 C 
BRANCH  30  32
ATOM     32  C   UNL     1      -3.234  14.377  21.471  0.00  0.00    +0.000 C 
BRANCH  32  33
ATOM     33  C   UNL     1      -3.028  13.437  22.680  0.00  0.00    +0.000 C 
BRANCH  33  34
ATOM     34  N   UNL     1      -3.904  13.731  23.838  0.00  0.00    +0.000 NA
ATOM     35  C   UNL     1      -4.307  12.507  24.554  0.00  0.00    +0.000 C 
ATOM     36  C   UNL     1      -3.175  14.607  24.775  0.00  0.00    +0.000 C 
ENDBRANCH  33  34
ENDBRANCH  32  33
ENDBRANCH  30  32
ENDBRANCH   3  30
TORSDOF 8
ENDMDL
MODEL 7
REMARK VINA RESULT:      -7.4      1.928      2.388
REMARK  Name = 
REMARK  13 active torsions:
REMARK  status: ('A' for Active; 'I' for Inactive)
REMARK    1  A    between atoms: C_1  and  O_2
REMARK    2  A    between atoms: O_2  and  C_3
REMARK    3  A    between atoms: C_5  and  N_6
REMARK    4  A    between atoms: N_6  and  C_7
REMARK    5  A    between atoms: N_6  and  C_8
REMARK    6  A    between atoms: C_8  and  C_9
REMARK    7  A    between atoms: C_9  and  N_10
REMARK    8  A    between atoms: N_10  and  C_11
REMARK    9  A    between atoms: N_10  and  C_12
REMARK   10  A    between atoms: C_13  and  N_14
REMARK   11  A    between atoms: C_16  and  N_17
REMARK   12  A    between atoms: C_22  and  C_23
REMARK   13  A    between atoms: N_25  and  C_26
REMARK                            x       y       z     vdW  Elec       q    Type
REMARK                         _______ _______ _______ _____ _____    ______ ____
ROOT
ATOM      1  C   UNL     1       0.252  12.409  21.819  0.00  0.00    +0.000 A 
ATOM      2  C   UNL     1      -0.455  13.565  22.202  0.00  0.00    +0.000 A 
ATOM      3  C   UNL     1      -1.685  13.520  22.893  0.00  0.00    +0.000 A 
ATOM      4  C   UNL     1      -2.219  12.220  23.178  0.00  0.00    +0.000 A 
ATOM      5  C   UNL     1      -1.510  11.077  22.774  0.00  0.00    +0.000 A 
ATOM      6  C   UNL     1      -0.274  11.143  22.107  0.00  0.00    +0.000 A 
ENDROOT
BRANCH   6   7
ATOM      7  N   UNL     1       0.451   9.959  21.712  0.00  0.00    +0.000 N 
ATOM      8  C   UNL     1       0.717   9.582  20.361  0.00  0.00    +0.000 A 
ATOM      9  N   UNL     1       0.076  10.193  19.334  0.00  0.00    +0.000 NA
ATOM     10  C   UNL     1       0.312   9.868  18.046  0.00  0.00    +0.000 A 
ATOM     11  C   UNL     1       1.228   8.875  17.746  0.00  0.00    +0.000 A 
ATOM     12  C   UNL     1       1.882   8.211  18.794  0.00  0.00    +0.000 A 
ATOM     13  N   UNL     1       1.603   8.578  20.084  0.00  0.00    +0.000 NA
ATOM     14  H   UNL     1       0.774   9.310  22.447  0.00  0.00    +0.000 HD
BRANCH  12  15
ATOM     15  C   UNL     1       2.868   7.131  18.495  0.00  0.00    +0.000 A 
ATOM     16  C   UNL     1       3.896   7.199  17.555  0.00  0.00    +0.000 A 
ATOM     17  N   UNL     1       4.601   6.048  17.552  0.00  0.00    +0.000 N 
ATOM     18  C   UNL     1       5.755   5.751  16.706  0.00  0.00    +0.000 C 
ATOM     19  C   UNL     1       4.037   5.245  18.472  0.00  0.00    +0.000 A 
ATOM     20  C   UNL     1       4.419   3.947  18.818  0.00  0.00    +0.000 A 
ATOM     21  C   UNL     1       3.678   3.285  19.811  0.00  0.00    +0.000 A 
ATOM     22  C   UNL     1       2.586   3.925  20.434  0.00  0.00    +0.000 A 
ATOM     23  C   UNL     1       2.222   5.235  20.070  0.00  0.00    +0.000 A 
ATOM     24  C   UNL     1       2.973   5.875  19.077  0.00  0.00    +0.000 A 
ENDBRANCH  12  15
ENDBRANCH   6   7
BRANCH   4  25
ATOM     25  N   UNL     1      -3.474  11.987  23.808  0.00  0.00    +0.000 N 
ATOM     26  H   UNL     1      -4.367  11.947  23.308  0.00  0.00    +0.000 HD
ATOM     27  H   UNL     1      -3.510  11.755  24.814  0.00  0.00    +0.000 HD
ENDBRANCH   4  25
BRANCH   1  29
ATOM     28  C   UNL     1       1.772  13.348  20.178  0.00  0.00    +0.000 C 
ATOM     29  O   UNL     1       1.465  12.489  21.212  0.00  0.00    +0.000 OA
ENDBRANCH   1  29
BRANCH   3  30
ATOM     30  N   UNL     1      -2.312  14.773  23.286  0.00  0.00    +0.000 N 
ATOM     31  C   UNL     1      -2.009  15.434  24.548  0.00  0.00    +0.000 C 
BRANCH  30  32
ATOM     32  C   UNL     1      -3.131  15.554  22.349  0.00  0.00    +0.000 C 
BRANCH  32  33
ATOM     33  C   UNL     1      -4.628  15.594  22.728  0.00  0.00    +0.000 C 
BRANCH  33  34
ATOM     34  N   UNL     1      -5.268  14.261  22.828  0.00  0.00    +0.000 NA
ATOM     35  C   UNL     1      -6.486  14.290  23.658  0.00  0.00    +0.000 C 
ATOM     36  C   UNL     1      -5.632  13.806  21.472  0.00  0.00    +0.000 C 
ENDBRANCH  33  34
ENDBRANCH  32  33
ENDBRANCH  30  32
ENDBRANCH   3  30
TORSDOF 8
ENDMDL
MODEL 8
REMARK VINA RESULT:      -7.3      1.847      3.184
REMARK  Name = 
REMARK  13 active torsions:
REMARK  status: ('A' for Active; 'I' for Inactive)
REMARK    1  A    between atoms: C_1  and  O_2
REMARK    2  A    between atoms: O_2  and  C_3
REMARK    3  A    between atoms: C_5  and  N_6
REMARK    4  A    between atoms: N_6  and  C_7
REMARK    5  A    between atoms: N_6  and  C_8
REMARK    6  A    between atoms: C_8  and  C_9
REMARK    7  A    between atoms: C_9  and  N_10
REMARK    8  A    between atoms: N_10  and  C_11
REMARK    9  A    between atoms: N_10  and  C_12
REMARK   10  A    between atoms: C_13  and  N_14
REMARK   11  A    between atoms: C_16  and  N_17
REMARK   12  A    between atoms: C_22  and  C_23
REMARK   13  A    between atoms: N_25  and  C_26
REMARK                            x       y       z     vdW  Elec       q    Type
REMARK                         _______ _______ _______ _____ _____    ______ ____
ROOT
ATOM      1  C   UNL     1       0.953  13.041  19.609  0.00  0.00    +0.000 A 
ATOM      2  C   UNL     1       0.155  14.081  20.125  0.00  0.00    +0.000 A 
ATOM      3  C   UNL     1      -1.255  14.037  20.132  0.00  0.00    +0.000 A 
ATOM      4  C   UNL     1      -1.868  12.876  19.556  0.00  0.00    +0.000 A 
ATOM      5  C   UNL     1      -1.060  11.856  19.030  0.00  0.00    +0.000 A 
ATOM      6  C   UNL     1       0.345  11.907  19.054  0.00  0.00    +0.000 A 
ENDROOT
BRANCH   6   7
ATOM      7  N   UNL     1       1.162  10.843  18.523  0.00  0.00    +0.000 N 
ATOM      8  C   UNL     1       1.408   9.601  19.183  0.00  0.00    +0.000 A 
ATOM      9  N   UNL     1       1.087   9.438  20.491  0.00  0.00    +0.000 NA
ATOM     10  C   UNL     1       1.298   8.274  21.141  0.00  0.00    +0.000 A 
ATOM     11  C   UNL     1       1.865   7.206  20.470  0.00  0.00    +0.000 A 
ATOM     12  C   UNL     1       2.229   7.361  19.124  0.00  0.00    +0.000 A 
ATOM     13  N   UNL     1       1.997   8.565  18.512  0.00  0.00    +0.000 NA
ATOM     14  H   UNL     1       1.638  10.990  17.619  0.00  0.00    +0.000 HD
BRANCH  12  15
ATOM     15  C   UNL     1       2.850   6.226  18.382  0.00  0.00    +0.000 A 
ATOM     16  C   UNL     1       3.964   6.306  17.547  0.00  0.00    +0.000 A 
ATOM     17  N   UNL     1       4.258   5.087  17.045  0.00  0.00    +0.000 N 
ATOM     18  C   UNL     1       5.361   4.777  16.138  0.00  0.00    +0.000 C 
ATOM     19  C   UNL     1       3.348   4.232  17.543  0.00  0.00    +0.000 A 
ATOM     20  C   UNL     1       3.245   2.861  17.299  0.00  0.00    +0.000 A 
ATOM     21  C   UNL     1       2.203   2.157  17.926  0.00  0.00    +0.000 A 
ATOM     22  C   UNL     1       1.299   2.827  18.776  0.00  0.00    +0.000 A 
ATOM     23  C   UNL     1       1.425   4.209  19.009  0.00  0.00    +0.000 A 
ATOM     24  C   UNL     1       2.468   4.891  18.373  0.00  0.00    +0.000 A 
ENDBRANCH  12  15
ENDBRANCH   6   7
BRANCH   4  25
ATOM     25  N   UNL     1      -3.274  12.693  19.421  0.00  0.00    +0.000 N 
ATOM     26  H   UNL     1      -3.719  11.785  19.257  0.00  0.00    +0.000 HD
ATOM     27  H   UNL     1      -3.914  13.488  19.579  0.00  0.00    +0.000 HD
ENDBRANCH   4  25
BRANCH   1  29
ATOM     28  C   UNL     1       3.067  14.224  19.493  0.00  0.00    +0.000 C 
ATOM     29  O   UNL     1       2.308  13.087  19.676  0.00  0.00    +0.000 OA
ENDBRANCH   1  29
BRANCH   3  30
ATOM     30  N   UNL     1      -1.985  15.144  20.733  0.00  0.00    +0.000 N 
ATOM     31  C   UNL     1      -2.415  15.129  22.125  0.00  0.00    +0.000 C 
BRANCH  30  32
ATOM     32  C   UNL     1      -2.154  16.426  20.037  0.00  0.00    +0.000 C 
BRANCH  32  33
ATOM     33  C   UNL     1      -1.148  17.507  20.489  0.00  0.00    +0.000 C 
BRANCH  33  34
ATOM     34  N   UNL     1      -0.485  18.226  19.377  0.00  0.00    +0.000 NA
ATOM     35  C   UNL     1       0.709  17.514  18.887  0.00  0.00    +0.000 C 
ATOM     36  C   UNL     1      -1.441  18.364  18.262  0.00  0.00    +0.000 C 
ENDBRANCH  33  34
ENDBRANCH  32  33
ENDBRANCH  30  32
ENDBRANCH   3  30
TORSDOF 8
ENDMDL
MODEL 9
REMARK VINA RESULT:      -7.3      1.361      1.606
REMARK  Name = 
REMARK  13 active torsions:
REMARK  status: ('A' for Active; 'I' for Inactive)
REMARK    1  A    between atoms: C_1  and  O_2
REMARK    2  A    between atoms: O_2  and  C_3
REMARK    3  A    between atoms: C_5  and  N_6
REMARK    4  A    between atoms: N_6  and  C_7
REMARK    5  A    between atoms: N_6  and  C_8
REMARK    6  A    between atoms: C_8  and  C_9
REMARK    7  A    between atoms: C_9  and  N_10
REMARK    8  A    between atoms: N_10  and  C_11
REMARK    9  A    between atoms: N_10  and  C_12
REMARK   10  A    between atoms: C_13  and  N_14
REMARK   11  A    between atoms: C_16  and  N_17
REMARK   12  A    between atoms: C_22  and  C_23
REMARK   13  A    between atoms: N_25  and  C_26
REMARK                            x       y       z     vdW  Elec       q    Type
REMARK                         _______ _______ _______ _____ _____    ______ ____
ROOT
ATOM      1  C   UNL     1       0.773  12.927  19.483  0.00  0.00    +0.000 A 
ATOM      2  C   UNL     1      -0.062  13.933  20.007  0.00  0.00    +0.000 A 
ATOM      3  C   UNL     1      -1.471  13.843  20.002  0.00  0.00    +0.000 A 
ATOM      4  C   UNL     1      -2.041  12.673  19.402  0.00  0.00    +0.000 A 
ATOM      5  C   UNL     1      -1.195  11.687  18.868  0.00  0.00    +0.000 A 
ATOM      6  C   UNL     1       0.207  11.783  18.905  0.00  0.00    +0.000 A 
ENDROOT
BRANCH   6   7
ATOM      7  N   UNL     1       1.062  10.754  18.366  0.00  0.00    +0.000 N 
ATOM      8  C   UNL     1       1.385   9.534  19.032  0.00  0.00    +0.000 A 
ATOM      9  N   UNL     1       1.104   9.371  20.350  0.00  0.00    +0.000 NA
ATOM     10  C   UNL     1       1.387   8.227  21.007  0.00  0.00    +0.000 A 
ATOM     11  C   UNL     1       1.990   7.179  20.333  0.00  0.00    +0.000 A 
ATOM     12  C   UNL     1       2.314   7.337  18.978  0.00  0.00    +0.000 A 
ATOM     13  N   UNL     1       2.008   8.520  18.359  0.00  0.00    +0.000 NA
ATOM     14  H   UNL     1       1.509  10.914  17.449  0.00  0.00    +0.000 HD
BRANCH  12  15
ATOM     15  C   UNL     1       2.972   6.224  18.232  0.00  0.00    +0.000 A 
ATOM     16  C   UNL     1       4.103   6.337  17.424  0.00  0.00    +0.000 A 
ATOM     17  N   UNL     1       4.430   5.132  16.910  0.00  0.00    +0.000 N 
ATOM     18  C   UNL     1       5.559   4.856  16.024  0.00  0.00    +0.000 C 
ATOM     19  C   UNL     1       3.525   4.253  17.375  0.00  0.00    +0.000 A 
ATOM     20  C   UNL     1       3.452   2.885  17.106  0.00  0.00    +0.000 A 
ATOM     21  C   UNL     1       2.410   2.152  17.699  0.00  0.00    +0.000 A 
ATOM     22  C   UNL     1       1.474   2.792  18.538  0.00  0.00    +0.000 A 
ATOM     23  C   UNL     1       1.570   4.172  18.795  0.00  0.00    +0.000 A 
ATOM     24  C   UNL     1       2.615   4.883  18.194  0.00  0.00    +0.000 A 
ENDBRANCH  12  15
ENDBRANCH   6   7
BRANCH   4  25
ATOM     25  N   UNL     1      -3.439  12.446  19.252  0.00  0.00    +0.000 N 
ATOM     26  H   UNL     1      -4.157  12.901  19.824  0.00  0.00    +0.000 HD
ATOM     27  H   UNL     1      -3.785  11.862  18.474  0.00  0.00    +0.000 HD
ENDBRANCH   4  25
BRANCH   1  29
ATOM     28  C   UNL     1       2.889  13.979  18.937  0.00  0.00    +0.000 C 
ATOM     29  O   UNL     1       2.125  13.016  19.563  0.00  0.00    +0.000 OA
ENDBRANCH   1  29
BRANCH   3  30
ATOM     30  N   UNL     1      -2.241  14.917  20.612  0.00  0.00    +0.000 N 
ATOM     31  C   UNL     1      -2.035  16.317  20.267  0.00  0.00    +0.000 C 
BRANCH  30  32
ATOM     32  C   UNL     1      -3.411  14.644  21.457  0.00  0.00    +0.000 C 
BRANCH  32  33
ATOM     33  C   UNL     1      -3.201  15.029  22.939  0.00  0.00    +0.000 C 
BRANCH  33  34
ATOM     34  N   UNL     1      -4.303  15.828  23.523  0.00  0.00    +0.000 NA
ATOM     35  C   UNL     1      -5.522  15.026  23.732  0.00  0.00    +0.000 C 
ATOM     36  C   UNL     1      -3.862  16.363  24.826  0.00  0.00    +0.000 C 
ENDBRANCH  33  34
ENDBRANCH  32  33
ENDBRANCH  30  32
ENDBRANCH   3  30
TORSDOF 8
ENDMDL
