MODEL 1
REMARK VINA RESULT:      -5.3      0.000      0.000
REMARK  Name = 
REMARK  4 active torsions:
REMARK  status: ('A' for Active; 'I' for Inactive)
REMARK    1  A    between atoms: P_2  and  O_3
REMARK    2  A    between atoms: P_2  and  O_4
REMARK    3  A    between atoms: P_2  and  C_5
REMARK    4  A    between atoms: C_5  and  C_6
REMARK                            x       y       z     vdW  Elec       q    Type
REMARK                         _______ _______ _______ _____ _____    ______ ____
ROOT
ATOM      1  C   UNL     1       5.653   5.018  18.004  0.00  0.00    +0.000 C 
ENDROOT
BRANCH   1   2
ATOM      2  C   UNL     1       4.274   4.422  17.872  0.00  0.00    +0.000 A 
ATOM      3  C   UNL     1       3.135   5.230  17.835  0.00  0.00    +0.000 A 
ATOM      4  C   UNL     1       1.894   4.621  17.735  0.00  0.00    +0.000 A 
ATOM      5  N   UNL     1       1.711   3.284  17.674  0.00  0.00    +0.000 NA
ATOM      6  C   UNL     1       2.824   2.522  17.717  0.00  0.00    +0.000 A 
ATOM      7  C   UNL     1       4.108   3.036  17.813  0.00  0.00    +0.000 A 
ENDBRANCH   1   2
BRANCH   1   9
ATOM      8  O   UNL     1       6.317   3.947  15.473  0.00  0.00    +0.000 OA
ATOM      9  P   UNL     1       6.783   4.735  16.650  0.00  0.00    +0.000 P 
BRANCH   9  10
ATOM     10  O   UNL     1       8.092   4.082  17.308  0.00  0.00    +0.000 OA
ATOM     11  H   UNL     1       8.781   3.874  16.650  0.00  0.00    +0.000 HD
ENDBRANCH   9  10
BRANCH   9  12
ATOM     12  O   UNL     1       7.360   6.170  16.224  0.00  0.00    +0.000 OA
ATOM     13  H   UNL     1       6.877   6.907  16.642  0.00  0.00    +0.000 HD
ENDBRANCH   9  12
ENDBRANCH   1   9
TORSDOF 4
ENDMDL
MODEL 2
REMARK VINA RESULT:      -5.2      0.159      1.421
REMARK  Name = 
REMARK  4 active torsions:
REMARK  status: ('A' for Active; 'I' for Inactive)
REMARK    1  A    between atoms: P_2  and  O_3
REMARK    2  A    between atoms: P_2  and  O_4
REMARK    3  A    between atoms: P_2  and  C_5
REMARK    4  A    between atoms: C_5  and  C_6
REMARK                            x       y       z     vdW  Elec       q    Type
REMARK                         _______ _______ _______ _____ _____    ______ ____
ROOT
ATOM      1  C   UNL     1       5.716   4.820  18.154  0.00  0.00    +0.000 C 
ENDROOT
BRANCH   1   2
ATOM      2  C   UNL     1       4.296   4.339  17.986  0.00  0.00    +0.000 A 
ATOM      3  C   UNL     1       4.003   2.983  17.831  0.00  0.00    +0.000 A 
ATOM      4  C   UNL     1       2.681   2.605  17.658  0.00  0.00    +0.000 A 
ATOM      5  N   UNL     1       1.646   3.473  17.628  0.00  0.00    +0.000 NA
ATOM      6  C   UNL     1       1.951   4.779  17.774  0.00  0.00    +0.000 A 
ATOM      7  C   UNL     1       3.241   5.255  17.955  0.00  0.00    +0.000 A 
ENDBRANCH   1   2
BRANCH   1   9
ATOM      8  O   UNL     1       6.301   3.927  15.536  0.00  0.00    +0.000 OA
ATOM      9  P   UNL     1       6.785   4.677  16.731  0.00  0.00    +0.000 P 
BRANCH   9  10
ATOM     10  O   UNL     1       8.163   4.068  17.283  0.00  0.00    +0.000 OA
ATOM     11  H   UNL     1       8.550   3.408  16.680  0.00  0.00    +0.000 HD
ENDBRANCH   9  10
BRANCH   9  12
ATOM     12  O   UNL     1       7.256   6.164  16.357  0.00  0.00    +0.000 OA
ATOM     13  H   UNL     1       7.106   6.798  17.083  0.00  0.00    +0.000 HD
ENDBRANCH   9  12
ENDBRANCH   1   9
TORSDOF 4
ENDMDL
MODEL 3
REMARK VINA RESULT:      -5.2      3.609      4.383
REMARK  Name = 
REMARK  4 active torsions:
REMARK  status: ('A' for Active; 'I' for Inactive)
REMARK    1  A    between atoms: P_2  and  O_3
REMARK    2  A    between atoms: P_2  and  O_4
REMARK    3  A    between atoms: P_2  and  C_5
REMARK    4  A    between atoms: C_5  and  C_6
REMARK                            x       y       z     vdW  Elec       q    Type
REMARK                         _______ _______ _______ _____ _____    ______ ____
ROOT
ATOM      1  C   UNL     1       3.648   3.826  17.293  0.00  0.00    +0.000 C 
ENDROOT
BRANCH   1   2
ATOM      2  C   UNL     1       4.908   4.534  16.864  0.00  0.00    +0.000 A 
ATOM      3  C   UNL     1       5.220   5.810  17.339  0.00  0.00    +0.000 A 
ATOM      4  C   UNL     1       6.382   6.419  16.890  0.00  0.00    +0.000 A 
ATOM      5  N   UNL     1       7.240   5.854  16.013  0.00  0.00    +0.000 NA
ATOM      6  C   UNL     1       6.917   4.624  15.562  0.00  0.00    +0.000 A 
ATOM      7  C   UNL     1       5.780   3.932  15.953  0.00  0.00    +0.000 A 
ENDBRANCH   1   2
BRANCH   1   9
ATOM      8  O   UNL     1       2.712   2.746  19.732  0.00  0.00    +0.000 OA
ATOM      9  P   UNL     1       3.782   2.727  18.694  0.00  0.00    +0.000 P 
BRANCH   9  10
ATOM     10  O   UNL     1       5.223   3.018  19.337  0.00  0.00    +0.000 OA
ATOM     11  H   UNL     1       5.535   3.925  19.165  0.00  0.00    +0.000 HD
ENDBRANCH   9  10
BRANCH   9  12
ATOM     12  O   UNL     1       4.022   1.255  18.104  0.00  0.00    +0.000 OA
ATOM     13  H   UNL     1       3.351   0.616  18.408  0.00  0.00    +0.000 HD
ENDBRANCH   9  12
ENDBRANCH   1   9
TORSDOF 4
ENDMDL
MODEL 4
REMARK VINA RESULT:      -5.2      0.529      1.368
REMARK  Name = 
REMARK  4 active torsions:
REMARK  status: ('A' for Active; 'I' for Inactive)
REMARK    1  A    between atoms: P_2  and  O_3
REMARK    2  A    between atoms: P_2  and  O_4
REMARK    3  A    between atoms: P_2  and  C_5
REMARK    4  A    between atoms: C_5  and  C_6
REMARK                            x       y       z     vdW  Elec       q    Type
REMARK                         _______ _______ _______ _____ _____    ______ ____
ROOT
ATOM      1  C   UNL     1       5.727   4.855  18.421  0.00  0.00    +0.000 C 
ENDROOT
BRANCH   1   2
ATOM      2  C   UNL     1       4.400   4.176  18.191  0.00  0.00    +0.000 A 
ATOM      3  C   UNL     1       3.324   4.862  17.625  0.00  0.00    +0.000 A 
ATOM      4  C   UNL     1       2.122   4.191  17.459  0.00  0.00    +0.000 A 
ATOM      5  N   UNL     1       1.923   2.903  17.816  0.00  0.00    +0.000 NA
ATOM      6  C   UNL     1       2.973   2.261  18.366  0.00  0.00    +0.000 A 
ATOM      7  C   UNL     1       4.215   2.844  18.570  0.00  0.00    +0.000 A 
ENDBRANCH   1   2
BRANCH   1   9
ATOM      8  O   UNL     1       7.261   6.042  16.365  0.00  0.00    +0.000 OA
ATOM      9  P   UNL     1       6.908   4.784  17.084  0.00  0.00    +0.000 P 
BRANCH   9  10
ATOM     10  O   UNL     1       6.351   3.671  16.072  0.00  0.00    +0.000 OA
ATOM     11  H   UNL     1       5.461   3.881  15.733  0.00  0.00    +0.000 HD
ENDBRANCH   9  10
BRANCH   9  12
ATOM     12  O   UNL     1       8.205   4.032  17.653  0.00  0.00    +0.000 OA
ATOM     13  H   UNL     1       9.038   4.435  17.343  0.00  0.00    +0.000 HD
ENDBRANCH   9  12
ENDBRANCH   1   9
TORSDOF 4
ENDMDL
MODEL 5
REMARK VINA RESULT:      -5.1      3.578      4.543
REMARK  Name = 
REMARK  4 active torsions:
REMARK  status: ('A' for Active; 'I' for Inactive)
REMARK    1  A    between atoms: P_2  and  O_3
REMARK    2  A    between atoms: P_2  and  O_4
REMARK    3  A    between atoms: P_2  and  C_5
REMARK    4  A    between atoms: C_5  and  C_6
REMARK                            x       y       z     vdW  Elec       q    Type
REMARK                         _______ _______ _______ _____ _____    ______ ____
ROOT
ATOM      1  C   UNL     1       3.648   4.158  17.536  0.00  0.00    +0.000 C 
ENDROOT
BRANCH   1   2
ATOM      2  C   UNL     1       4.930   4.729  16.984  0.00  0.00    +0.000 A 
ATOM      3  C   UNL     1       5.664   4.051  16.008  0.00  0.00    +0.000 A 
ATOM      4  C   UNL     1       6.847   4.616  15.557  0.00  0.00    +0.000 A 
ATOM      5  N   UNL     1       7.342   5.790  16.006  0.00  0.00    +0.000 NA
ATOM      6  C   UNL     1       6.620   6.425  16.953  0.00  0.00    +0.000 A 
ATOM      7  C   UNL     1       5.425   5.943  17.466  0.00  0.00    +0.000 A 
ENDBRANCH   1   2
BRANCH   1   9
ATOM      8  O   UNL     1       2.754   2.710  19.794  0.00  0.00    +0.000 OA
ATOM      9  P   UNL     1       3.804   2.853  18.745  0.00  0.00    +0.000 P 
BRANCH   9  10
ATOM     10  O   UNL     1       5.258   3.040  19.398  0.00  0.00    +0.000 OA
ATOM     11  H   UNL     1       5.722   2.193  19.531  0.00  0.00    +0.000 HD
ENDBRANCH   9  10
BRANCH   9  12
ATOM     12  O   UNL     1       4.029   1.491  17.928  0.00  0.00    +0.000 OA
ATOM     13  H   UNL     1       4.582   1.618  17.135  0.00  0.00    +0.000 HD
ENDBRANCH   9  12
ENDBRANCH   1   9
TORSDOF 4
ENDMDL
MODEL 6
REMARK VINA RESULT:      -5.1      1.192      1.966
REMARK  Name = 
REMARK  4 active torsions:
REMARK  status: ('A' for Active; 'I' for Inactive)
REMARK    1  A    between atoms: P_2  and  O_3
REMARK    2  A    between atoms: P_2  and  O_4
REMARK    3  A    between atoms: P_2  and  C_5
REMARK    4  A    between atoms: C_5  and  C_6
REMARK                            x       y       z     vdW  Elec       q    Type
REMARK                         _______ _______ _______ _____ _____    ______ ____
ROOT
ATOM      1  C   UNL     1       5.222   5.164  17.100  0.00  0.00    +0.000 C 
ENDROOT
BRANCH   1   2
ATOM      2  C   UNL     1       4.408   4.098  17.791  0.00  0.00    +0.000 A 
ATOM      3  C   UNL     1       4.758   3.626  19.057  0.00  0.00    +0.000 A 
ATOM      4  C   UNL     1       3.984   2.629  19.630  0.00  0.00    +0.000 A 
ATOM      5  N   UNL     1       2.904   2.077  19.036  0.00  0.00    +0.000 NA
ATOM      6  C   UNL     1       2.586   2.544  17.811  0.00  0.00    +0.000 A 
ATOM      7  C   UNL     1       3.295   3.540  17.156  0.00  0.00    +0.000 A 
ENDBRANCH   1   2
BRANCH   1   9
ATOM      8  O   UNL     1       7.363   5.553  15.297  0.00  0.00    +0.000 OA
ATOM      9  P   UNL     1       6.700   4.625  16.257  0.00  0.00    +0.000 P 
BRANCH   9  10
ATOM     10  O   UNL     1       6.316   3.235  15.554  0.00  0.00    +0.000 OA
ATOM     11  H   UNL     1       5.754   2.671  16.117  0.00  0.00    +0.000 HD
ENDBRANCH   9  10
BRANCH   9  12
ATOM     12  O   UNL     1       7.712   4.105  17.387  0.00  0.00    +0.000 OA
ATOM     13  H   UNL     1       8.148   4.835  17.864  0.00  0.00    +0.000 HD
ENDBRANCH   9  12
ENDBRANCH   1   9
TORSDOF 4
ENDMDL
MODEL 7
REMARK VINA RESULT:      -5.1      3.775      4.675
REMARK  Name = 
REMARK  4 active torsions:
REMARK  status: ('A' for Active; 'I' for Inactive)
REMARK    1  A    between atoms: P_2  and  O_3
REMARK    2  A    between atoms: P_2  and  O_4
REMARK    3  A    between atoms: P_2  and  C_5
REMARK    4  A    between atoms: C_5  and  C_6
REMARK                            x       y       z     vdW  Elec       q    Type
REMARK                         _______ _______ _______ _____ _____    ______ ____
ROOT
ATOM      1  C   UNL     1       3.600   4.021  17.559  0.00  0.00    +0.000 C 
ENDROOT
BRANCH   1   2
ATOM      2  C   UNL     1       5.021   4.262  17.112  0.00  0.00    +0.000 A 
ATOM      3  C   UNL     1       5.376   4.205  15.763  0.00  0.00    +0.000 A 
ATOM      4  C   UNL     1       6.703   4.413  15.417  0.00  0.00    +0.000 A 
ATOM      5  N   UNL     1       7.684   4.667  16.310  0.00  0.00    +0.000 NA
ATOM      6  C   UNL     1       7.320   4.712  17.608  0.00  0.00    +0.000 A 
ATOM      7  C   UNL     1       6.021   4.521  18.054  0.00  0.00    +0.000 A 
ENDBRANCH   1   2
BRANCH   1   9
ATOM      8  O   UNL     1       3.491   2.605  20.003  0.00  0.00    +0.000 OA
ATOM      9  P   UNL     1       3.301   2.550  18.525  0.00  0.00    +0.000 P 
BRANCH   9  10
ATOM     10  O   UNL     1       4.209   1.404  17.863  0.00  0.00    +0.000 OA
ATOM     11  H   UNL     1       4.176   1.414  16.889  0.00  0.00    +0.000 HD
ENDBRANCH   9  10
BRANCH   9  12
ATOM     12  O   UNL     1       1.839   2.025  18.125  0.00  0.00    +0.000 OA
ATOM     13  H   UNL     1       1.854   1.123  17.755  0.00  0.00    +0.000 HD
ENDBRANCH   9  12
ENDBRANCH   1   9
TORSDOF 4
ENDMDL
MODEL 8
REMARK VINA RESULT:      -5.1      2.434      2.651
REMARK  Name = 
REMARK  4 active torsions:
REMARK  status: ('A' for Active; 'I' for Inactive)
REMARK    1  A    between atoms: P_2  and  O_3
REMARK    2  A    between atoms: P_2  and  O_4
REMARK    3  A    between atoms: P_2  and  C_5
REMARK    4  A    between atoms: C_5  and  C_6
REMARK                            x       y       z     vdW  Elec       q    Type
REMARK                         _______ _______ _______ _____ _____    ______ ____
ROOT
ATOM      1  C   UNL     1       4.075   5.577  19.156  0.00  0.00    +0.000 C 
ENDROOT
BRANCH   1   2
ATOM      2  C   UNL     1       2.883   4.677  19.366  0.00  0.00    +0.000 A 
ATOM      3  C   UNL     1       2.384   4.422  20.645  0.00  0.00    +0.000 A 
ATOM      4  C   UNL     1       1.299   3.568  20.776  0.00  0.00    +0.000 A 
ATOM      5  N   UNL     1       0.690   2.959  19.736  0.00  0.00    +0.000 NA
ATOM      6  C   UNL     1       1.191   3.214  18.510  0.00  0.00    +0.000 A 
ATOM      7  C   UNL     1       2.269   4.054  18.276  0.00  0.00    +0.000 A 
ENDBRANCH   1   2
BRANCH   1   9
ATOM      8  O   UNL     1       6.118   4.842  17.345  0.00  0.00    +0.000 OA
ATOM      9  P   UNL     1       5.621   4.779  18.749  0.00  0.00    +0.000 P 
BRANCH   9  10
ATOM     10  O   UNL     1       5.470   3.262  19.247  0.00  0.00    +0.000 OA
ATOM     11  H   UNL     1       5.974   3.081  20.062  0.00  0.00    +0.000 HD
ENDBRANCH   9  10
BRANCH   9  12
ATOM     12  O   UNL     1       6.708   5.319  19.797  0.00  0.00    +0.000 OA
ATOM     13  H   UNL     1       7.494   5.696  19.360  0.00  0.00    +0.000 HD
ENDBRANCH   9  12
ENDBRANCH   1   9
TORSDOF 4
ENDMDL
MODEL 9
REMARK VINA RESULT:      -5.1      2.454      2.714
REMARK  Name = 
REMARK  4 active torsions:
REMARK  status: ('A' for Active; 'I' for Inactive)
REMARK    1  A    between atoms: P_2  and  O_3
REMARK    2  A    between atoms: P_2  and  O_4
REMARK    3  A    between atoms: P_2  and  C_5
REMARK    4  A    between atoms: C_5  and  C_6
REMARK                            x       y       z     vdW  Elec       q    Type
REMARK                         _______ _______ _______ _____ _____    ______ ____
ROOT
ATOM      1  C   UNL     1       4.080   5.549  19.316  0.00  0.00    +0.000 C 
ENDROOT
BRANCH   1   2
ATOM      2  C   UNL     1       2.904   4.613  19.440  0.00  0.00    +0.000 A 
ATOM      3  C   UNL     1       2.327   4.021  18.315  0.00  0.00    +0.000 A 
ATOM      4  C   UNL     1       1.233   3.188  18.491  0.00  0.00    +0.000 A 
ATOM      5  N   UNL     1       0.682   2.911  19.693  0.00  0.00    +0.000 NA
ATOM      6  C   UNL     1       1.250   3.499  20.766  0.00  0.00    +0.000 A 
ATOM      7  C   UNL     1       2.347   4.344  20.693  0.00  0.00    +0.000 A 
ENDBRANCH   1   2
BRANCH   1   9
ATOM      8  O   UNL     1       6.067   4.987  17.386  0.00  0.00    +0.000 OA
ATOM      9  P   UNL     1       5.630   4.826  18.802  0.00  0.00    +0.000 P 
BRANCH   9  10
ATOM     10  O   UNL     1       5.544   3.278  19.214  0.00  0.00    +0.000 OA
ATOM     11  H   UNL     1       6.397   2.815  19.116  0.00  0.00    +0.000 HD
ENDBRANCH   9  10
BRANCH   9  12
ATOM     12  O   UNL     1       6.744   5.338  19.837  0.00  0.00    +0.000 OA
ATOM     13  H   UNL     1       6.797   6.311  19.878  0.00  0.00    +0.000 HD
ENDBRANCH   9  12
ENDBRANCH   1   9
TORSDOF 4
ENDMDL
