MODEL 1
REMARK VINA RESULT:      -8.1      0.000      0.000
REMARK  Name = 
REMARK  4 active torsions:
REMARK  status: ('A' for Active; 'I' for Inactive)
REMARK    1  A    between atoms: C_2  and  C_3
REMARK    2  A    between atoms: C_3  and  N_4
REMARK    3  A    between atoms: C_6  and  C_7
REMARK    4  A    between atoms: C_26  and  C_27
REMARK                            x       y       z     vdW  Elec       q    Type
REMARK                         _______ _______ _______ _____ _____    ______ ____
ROOT
ATOM      1  O   UNL     1       3.848   7.810  17.658  0.00  0.00    +0.000 OA
ATOM      2  C   UNL     1       3.756   6.639  18.039  0.00  0.00    +0.000 C 
ATOM      3  N   UNL     1       2.494   5.993  18.251  0.00  0.00    +0.000 N 
ATOM      4  C   UNL     1       2.474   4.586  18.441  0.00  0.00    +0.000 A 
ATOM      5  C   UNL     1       2.841   3.797  17.333  0.00  0.00    +0.000 A 
ATOM      6  C   UNL     1       2.964   2.414  17.454  0.00  0.00    +0.000 A 
ATOM      7  C   UNL     1       2.711   1.810  18.680  0.00  0.00    +0.000 A 
ATOM      8  C   UNL     1       2.309   2.584  19.774  0.00  0.00    +0.000 A 
ATOM      9  C   UNL     1       2.184   3.979  19.669  0.00  0.00    +0.000 A 
ATOM     10  S   UNL     1       1.826   4.930  21.135  0.00  0.00    +0.000 S 
ATOM     11  C   UNL     1       1.615   6.558  20.453  0.00  0.00    +0.000 A 
ATOM     12  C   UNL     1       1.576   7.670  21.299  0.00  0.00    +0.000 A 
ATOM     13  C   UNL     1       1.496   8.966  20.768  0.00  0.00    +0.000 A 
ATOM     14  C   UNL     1       1.317   9.163  19.392  0.00  0.00    +0.000 A 
ATOM     15  C   UNL     1       1.286   8.044  18.560  0.00  0.00    +0.000 A 
ATOM     16  C   UNL     1       1.631   6.786  19.073  0.00  0.00    +0.000 A 
ENDROOT
BRANCH  14  17
ATOM     17  C   UNL     1       1.301  10.536  18.762  0.00  0.00    +0.000 C 
ATOM     18  F   UNL     1       0.114  10.836  18.168  0.00  0.00    +0.000 F 
ATOM     19  F   UNL     1       1.530  11.534  19.660  0.00  0.00    +0.000 F 
ATOM     20  F   UNL     1       2.253  10.676  17.802  0.00  0.00    +0.000 F 
ENDBRANCH  14  17
BRANCH   2  21
ATOM     21  C   UNL     1       4.984   5.861  18.486  0.00  0.00    +0.000 C 
BRANCH  21  22
ATOM     22  N   UNL     1       5.777   5.383  17.367  0.00  0.00    +0.000 N 
ATOM     23  C   UNL     1       5.479   5.405  16.033  0.00  0.00    +0.000 A 
ATOM     24  C   UNL     1       6.601   4.872  15.437  0.00  0.00    +0.000 A 
ATOM     25  N   UNL     1       7.538   4.619  16.408  0.00  0.00    +0.000 NA
ATOM     26  N   UNL     1       7.034   4.961  17.583  0.00  0.00    +0.000 NA
BRANCH  24  27
ATOM     27  C   UNL     1       6.816   4.580  14.026  0.00  0.00    +0.000 A 
ATOM     28  C   UNL     1       7.712   5.315  13.236  0.00  0.00    +0.000 A 
ATOM     29  C   UNL     1       7.872   5.021  11.876  0.00  0.00    +0.000 A 
ATOM     30  C   UNL     1       7.137   3.988  11.296  0.00  0.00    +0.000 A 
ATOM     31  C   UNL     1       6.258   3.236  12.067  0.00  0.00    +0.000 A 
ATOM     32  C   UNL     1       6.104   3.532  13.422  0.00  0.00    +0.000 A 
ENDBRANCH  24  27
ENDBRANCH  21  22
ENDBRANCH   2  21
TORSDOF 4
ENDMDL
MODEL 2
REMARK VINA RESULT:      -8.0      0.061      1.083
REMARK  Name = 
REMARK  4 active torsions:
REMARK  status: ('A' for Active; 'I' for Inactive)
REMARK    1  A    between atoms: C_2  and  C_3
REMARK    2  A    between atoms: C_3  and  N_4
REMARK    3  A    between atoms: C_6  and  C_7
REMARK    4  A    between atoms: C_26  and  C_27
REMARK                            x       y       z     vdW  Elec       q    Type
REMARK                         _______ _______ _______ _____ _____    ______ ____
ROOT
ATOM      1  O   UNL     1       3.804   7.793  17.646  0.00  0.00    +0.000 OA
ATOM      2  C   UNL     1       3.718   6.623  18.035  0.00  0.00    +0.000 C 
ATOM      3  N   UNL     1       2.459   5.979  18.270  0.00  0.00    +0.000 N 
ATOM      4  C   UNL     1       2.442   4.574  18.468  0.00  0.00    +0.000 A 
ATOM      5  C   UNL     1       2.792   3.778  17.359  0.00  0.00    +0.000 A 
ATOM      6  C   UNL     1       2.917   2.396  17.486  0.00  0.00    +0.000 A 
ATOM      7  C   UNL     1       2.682   1.799  18.720  0.00  0.00    +0.000 A 
ATOM      8  C   UNL     1       2.296   2.579  19.814  0.00  0.00    +0.000 A 
ATOM      9  C   UNL     1       2.171   3.973  19.704  0.00  0.00    +0.000 A 
ATOM     10  S   UNL     1       1.835   4.932  21.170  0.00  0.00    +0.000 S 
ATOM     11  C   UNL     1       1.614   6.556  20.482  0.00  0.00    +0.000 A 
ATOM     12  C   UNL     1       1.587   7.673  21.322  0.00  0.00    +0.000 A 
ATOM     13  C   UNL     1       1.499   8.966  20.785  0.00  0.00    +0.000 A 
ATOM     14  C   UNL     1       1.299   9.156  19.411  0.00  0.00    +0.000 A 
ATOM     15  C   UNL     1       1.256   8.033  18.586  0.00  0.00    +0.000 A 
ATOM     16  C   UNL     1       1.608   6.777  19.101  0.00  0.00    +0.000 A 
ENDROOT
BRANCH  14  17
ATOM     17  C   UNL     1       1.275  10.525  18.774  0.00  0.00    +0.000 C 
ATOM     18  F   UNL     1       2.219  10.680  17.805  0.00  0.00    +0.000 F 
ATOM     19  F   UNL     1       0.084  10.812  18.179  0.00  0.00    +0.000 F 
ATOM     20  F   UNL     1       1.488  11.520  19.675  0.00  0.00    +0.000 F 
ENDBRANCH  14  17
BRANCH   2  21
ATOM     21  C   UNL     1       4.953   5.848  18.468  0.00  0.00    +0.000 C 
BRANCH  21  22
ATOM     22  N   UNL     1       5.735   5.375  17.340  0.00  0.00    +0.000 N 
ATOM     23  C   UNL     1       5.403   5.353  16.014  0.00  0.00    +0.000 A 
ATOM     24  C   UNL     1       6.530   4.849  15.401  0.00  0.00    +0.000 A 
ATOM     25  N   UNL     1       7.501   4.656  16.354  0.00  0.00    +0.000 NA
ATOM     26  N   UNL     1       7.013   5.007  17.533  0.00  0.00    +0.000 NA
BRANCH  24  27
ATOM     27  C   UNL     1       6.720   4.531  13.992  0.00  0.00    +0.000 A 
ATOM     28  C   UNL     1       5.991   3.521  13.348  0.00  0.00    +0.000 A 
ATOM     29  C   UNL     1       6.220   3.227  11.998  0.00  0.00    +0.000 A 
ATOM     30  C   UNL     1       7.180   3.941  11.283  0.00  0.00    +0.000 A 
ATOM     31  C   UNL     1       7.899   4.959  11.899  0.00  0.00    +0.000 A 
ATOM     32  C   UNL     1       7.665   5.250  13.244  0.00  0.00    +0.000 A 
ENDBRANCH  24  27
ENDBRANCH  21  22
ENDBRANCH   2  21
TORSDOF 4
ENDMDL
MODEL 3
REMARK VINA RESULT:      -8.0      3.983      6.915
REMARK  Name = 
REMARK  4 active torsions:
REMARK  status: ('A' for Active; 'I' for Inactive)
REMARK    1  A    between atoms: C_2  and  C_3
REMARK    2  A    between atoms: C_3  and  N_4
REMARK    3  A    between atoms: C_6  and  C_7
REMARK    4  A    between atoms: C_26  and  C_27
REMARK                            x       y       z     vdW  Elec       q    Type
REMARK                         _______ _______ _______ _____ _____    ______ ____
ROOT
ATOM      1  O   UNL     1       1.911  11.601  18.827  0.00  0.00    +0.000 OA
ATOM      2  C   UNL     1       0.716  11.289  18.832  0.00  0.00    +0.000 C 
ATOM      3  N   UNL     1      -0.309  12.148  18.315  0.00  0.00    +0.000 N 
ATOM      4  C   UNL     1      -1.611  11.616  18.127  0.00  0.00    +0.000 A 
ATOM      5  C   UNL     1      -1.750  10.631  17.130  0.00  0.00    +0.000 A 
ATOM      6  C   UNL     1      -2.962   9.966  16.950  0.00  0.00    +0.000 A 
ATOM      7  C   UNL     1      -4.045  10.290  17.759  0.00  0.00    +0.000 A 
ATOM      8  C   UNL     1      -3.925  11.294  18.724  0.00  0.00    +0.000 A 
ATOM      9  C   UNL     1      -2.710  11.970  18.921  0.00  0.00    +0.000 A 
ATOM     10  S   UNL     1      -2.569  13.125  20.273  0.00  0.00    +0.000 S 
ATOM     11  C   UNL     1      -0.950  13.801  19.987  0.00  0.00    +0.000 A 
ATOM     12  C   UNL     1      -0.329  14.569  20.977  0.00  0.00    +0.000 A 
ATOM     13  C   UNL     1       0.982  15.036  20.799  0.00  0.00    +0.000 A 
ATOM     14  C   UNL     1       1.641  14.860  19.574  0.00  0.00    +0.000 A 
ATOM     15  C   UNL     1       0.988  14.153  18.565  0.00  0.00    +0.000 A 
ATOM     16  C   UNL     1      -0.203  13.472  18.851  0.00  0.00    +0.000 A 
ENDROOT
BRANCH  14  17
ATOM     17  C   UNL     1       3.077  15.275  19.356  0.00  0.00    +0.000 C 
ATOM     18  F   UNL     1       3.564  16.057  20.358  0.00  0.00    +0.000 F 
ATOM     19  F   UNL     1       3.928  14.216  19.265  0.00  0.00    +0.000 F 
ATOM     20  F   UNL     1       3.242  15.983  18.207  0.00  0.00    +0.000 F 
ENDBRANCH  14  17
BRANCH   2  21
ATOM     21  C   UNL     1       0.233  10.043  19.560  0.00  0.00    +0.000 C 
BRANCH  21  22
ATOM     22  N   UNL     1       1.129   8.915  19.380  0.00  0.00    +0.000 N 
ATOM     23  C   UNL     1       1.792   8.515  18.254  0.00  0.00    +0.000 A 
ATOM     24  C   UNL     1       2.526   7.427  18.673  0.00  0.00    +0.000 A 
ATOM     25  N   UNL     1       2.333   7.257  20.022  0.00  0.00    +0.000 NA
ATOM     26  N   UNL     1       1.498   8.190  20.451  0.00  0.00    +0.000 NA
BRANCH  24  27
ATOM     27  C   UNL     1       3.365   6.547  17.870  0.00  0.00    +0.000 A 
ATOM     28  C   UNL     1       4.401   7.035  17.061  0.00  0.00    +0.000 A 
ATOM     29  C   UNL     1       5.172   6.160  16.283  0.00  0.00    +0.000 A 
ATOM     30  C   UNL     1       4.910   4.791  16.310  0.00  0.00    +0.000 A 
ATOM     31  C   UNL     1       3.899   4.287  17.121  0.00  0.00    +0.000 A 
ATOM     32  C   UNL     1       3.137   5.163  17.896  0.00  0.00    +0.000 A 
ENDBRANCH  24  27
ENDBRANCH  21  22
ENDBRANCH   2  21
TORSDOF 4
ENDMDL
MODEL 4
REMARK VINA RESULT:      -7.9      3.986      6.976
REMARK  Name = 
REMARK  4 active torsions:
REMARK  status: ('A' for Active; 'I' for Inactive)
REMARK    1  A    between atoms: C_2  and  C_3
REMARK    2  A    between atoms: C_3  and  N_4
REMARK    3  A    between atoms: C_6  and  C_7
REMARK    4  A    between atoms: C_26  and  C_27
REMARK                            x       y       z     vdW  Elec       q    Type
REMARK                         _______ _______ _______ _____ _____    ______ ____
ROOT
ATOM      1  O   UNL     1       1.986  11.627  18.965  0.00  0.00    +0.000 OA
ATOM      2  C   UNL     1       0.791  11.316  18.954  0.00  0.00    +0.000 C 
ATOM      3  N   UNL     1      -0.221  12.157  18.386  0.00  0.00    +0.000 N 
ATOM      4  C   UNL     1      -1.520  11.619  18.189  0.00  0.00    +0.000 A 
ATOM      5  C   UNL     1      -1.639  10.601  17.223  0.00  0.00    +0.000 A 
ATOM      6  C   UNL     1      -2.847   9.931  17.040  0.00  0.00    +0.000 A 
ATOM      7  C   UNL     1      -3.947  10.283  17.814  0.00  0.00    +0.000 A 
ATOM      8  C   UNL     1      -3.847  11.319  18.747  0.00  0.00    +0.000 A 
ATOM      9  C   UNL     1      -2.635  12.001  18.946  0.00  0.00    +0.000 A 
ATOM     10  S   UNL     1      -2.522  13.202  20.261  0.00  0.00    +0.000 S 
ATOM     11  C   UNL     1      -0.896  13.867  19.987  0.00  0.00    +0.000 A 
ATOM     12  C   UNL     1      -0.295  14.667  20.964  0.00  0.00    +0.000 A 
ATOM     13  C   UNL     1       1.019  15.127  20.797  0.00  0.00    +0.000 A 
ATOM     14  C   UNL     1       1.705  14.909  19.594  0.00  0.00    +0.000 A 
ATOM     15  C   UNL     1       1.072  14.169  18.595  0.00  0.00    +0.000 A 
ATOM     16  C   UNL     1      -0.126  13.498  18.879  0.00  0.00    +0.000 A 
ENDROOT
BRANCH  14  17
ATOM     17  C   UNL     1       3.145  15.317  19.392  0.00  0.00    +0.000 C 
ATOM     18  F   UNL     1       3.465  15.515  18.084  0.00  0.00    +0.000 F 
ATOM     19  F   UNL     1       3.463  16.476  20.031  0.00  0.00    +0.000 F 
ATOM     20  F   UNL     1       4.017  14.384  19.860  0.00  0.00    +0.000 F 
ENDBRANCH  14  17
BRANCH   2  21
ATOM     21  C   UNL     1       0.292  10.096  19.713  0.00  0.00    +0.000 C 
BRANCH  21  22
ATOM     22  N   UNL     1       1.134   8.931  19.508  0.00  0.00    +0.000 N 
ATOM     23  C   UNL     1       1.805   8.545  18.381  0.00  0.00    +0.000 A 
ATOM     24  C   UNL     1       2.472   7.404  18.770  0.00  0.00    +0.000 A 
ATOM     25  N   UNL     1       2.237   7.190  20.106  0.00  0.00    +0.000 NA
ATOM     26  N   UNL     1       1.439   8.146  20.555  0.00  0.00    +0.000 NA
BRANCH  24  27
ATOM     27  C   UNL     1       3.287   6.517  17.951  0.00  0.00    +0.000 A 
ATOM     28  C   UNL     1       3.092   5.128  17.930  0.00  0.00    +0.000 A 
ATOM     29  C   UNL     1       3.913   4.304  17.149  0.00  0.00    +0.000 A 
ATOM     30  C   UNL     1       4.935   4.864  16.384  0.00  0.00    +0.000 A 
ATOM     31  C   UNL     1       5.131   6.240  16.378  0.00  0.00    +0.000 A 
ATOM     32  C   UNL     1       4.309   7.057  17.155  0.00  0.00    +0.000 A 
ENDBRANCH  24  27
ENDBRANCH  21  22
ENDBRANCH   2  21
TORSDOF 4
ENDMDL
MODEL 5
REMARK VINA RESULT:      -7.8      4.029      7.231
REMARK  Name = 
REMARK  4 active torsions:
REMARK  status: ('A' for Active; 'I' for Inactive)
REMARK    1  A    between atoms: C_2  and  C_3
REMARK    2  A    between atoms: C_3  and  N_4
REMARK    3  A    between atoms: C_6  and  C_7
REMARK    4  A    between atoms: C_26  and  C_27
REMARK                            x       y       z     vdW  Elec       q    Type
REMARK                         _______ _______ _______ _____ _____    ______ ____
ROOT
ATOM      1  O   UNL     1       2.115  11.532  18.387  0.00  0.00    +0.000 OA
ATOM      2  C   UNL     1       0.915  11.486  18.676  0.00  0.00    +0.000 C 
ATOM      3  N   UNL     1       0.039  12.610  18.517  0.00  0.00    +0.000 N 
ATOM      4  C   UNL     1      -1.360  12.402  18.630  0.00  0.00    +0.000 A 
ATOM      5  C   UNL     1      -1.964  11.623  17.624  0.00  0.00    +0.000 A 
ATOM      6  C   UNL     1      -3.308  11.266  17.709  0.00  0.00    +0.000 A 
ATOM      7  C   UNL     1      -4.061  11.696  18.796  0.00  0.00    +0.000 A 
ATOM      8  C   UNL     1      -3.478  12.503  19.779  0.00  0.00    +0.000 A 
ATOM      9  C   UNL     1      -2.124  12.867  19.709  0.00  0.00    +0.000 A 
ATOM     10  S   UNL     1      -1.394  13.760  21.070  0.00  0.00    +0.000 S 
ATOM     11  C   UNL     1       0.228  14.106  20.432  0.00  0.00    +0.000 A 
ATOM     12  C   UNL     1       1.230  14.573  21.287  0.00  0.00    +0.000 A 
ATOM     13  C   UNL     1       2.536  14.768  20.814  0.00  0.00    +0.000 A 
ATOM     14  C   UNL     1       2.829  14.631  19.450  0.00  0.00    +0.000 A 
ATOM     15  C   UNL     1       1.807  14.233  18.590  0.00  0.00    +0.000 A 
ATOM     16  C   UNL     1       0.586  13.790  19.117  0.00  0.00    +0.000 A 
ENDROOT
BRANCH  14  17
ATOM     17  C   UNL     1       4.231  14.756  18.902  0.00  0.00    +0.000 C 
ATOM     18  F   UNL     1       5.191  14.618  19.857  0.00  0.00    +0.000 F 
ATOM     19  F   UNL     1       4.515  13.821  17.954  0.00  0.00    +0.000 F 
ATOM     20  F   UNL     1       4.452  15.961  18.313  0.00  0.00    +0.000 F 
ENDBRANCH  14  17
BRANCH   2  21
ATOM     21  C   UNL     1       0.327  10.282  19.395  0.00  0.00    +0.000 C 
BRANCH  21  22
ATOM     22  N   UNL     1       1.164   9.102  19.278  0.00  0.00    +0.000 N 
ATOM     23  C   UNL     1       1.793   8.602  18.172  0.00  0.00    +0.000 A 
ATOM     24  C   UNL     1       2.478   7.506  18.650  0.00  0.00    +0.000 A 
ATOM     25  N   UNL     1       2.294   7.430  20.009  0.00  0.00    +0.000 NA
ATOM     26  N   UNL     1       1.511   8.427  20.387  0.00  0.00    +0.000 NA
BRANCH  24  27
ATOM     27  C   UNL     1       3.264   6.539  17.896  0.00  0.00    +0.000 A 
ATOM     28  C   UNL     1       3.001   5.163  17.941  0.00  0.00    +0.000 A 
ATOM     29  C   UNL     1       3.795   4.260  17.222  0.00  0.00    +0.000 A 
ATOM     30  C   UNL     1       4.859   4.729  16.452  0.00  0.00    +0.000 A 
ATOM     31  C   UNL     1       5.123   6.092  16.380  0.00  0.00    +0.000 A 
ATOM     32  C   UNL     1       4.327   6.987  17.096  0.00  0.00    +0.000 A 
ENDBRANCH  24  27
ENDBRANCH  21  22
ENDBRANCH   2  21
TORSDOF 4
ENDMDL
MODEL 6
REMARK VINA RESULT:      -7.7      4.034      7.177
REMARK  Name = 
REMARK  4 active torsions:
REMARK  status: ('A' for Active; 'I' for Inactive)
REMARK    1  A    between atoms: C_2  and  C_3
REMARK    2  A    between atoms: C_3  and  N_4
REMARK    3  A    between atoms: C_6  and  C_7
REMARK    4  A    between atoms: C_26  and  C_27
REMARK                            x       y       z     vdW  Elec       q    Type
REMARK                         _______ _______ _______ _____ _____    ______ ____
ROOT
ATOM      1  O   UNL     1       2.253  11.523  18.279  0.00  0.00    +0.000 OA
ATOM      2  C   UNL     1       1.080  11.528  18.665  0.00  0.00    +0.000 C 
ATOM      3  N   UNL     1       0.237  12.682  18.555  0.00  0.00    +0.000 N 
ATOM      4  C   UNL     1      -1.156  12.530  18.786  0.00  0.00    +0.000 A 
ATOM      5  C   UNL     1      -1.868  11.757  17.848  0.00  0.00    +0.000 A 
ATOM      6  C   UNL     1      -3.213  11.455  18.050  0.00  0.00    +0.000 A 
ATOM      7  C   UNL     1      -3.858  11.932  19.186  0.00  0.00    +0.000 A 
ATOM      8  C   UNL     1      -3.167  12.732  20.101  0.00  0.00    +0.000 A 
ATOM      9  C   UNL     1      -1.810  13.042  19.914  0.00  0.00    +0.000 A 
ATOM     10  S   UNL     1      -0.939  13.930  21.193  0.00  0.00    +0.000 S 
ATOM     11  C   UNL     1       0.637  14.202  20.418  0.00  0.00    +0.000 A 
ATOM     12  C   UNL     1       1.723  14.644  21.179  0.00  0.00    +0.000 A 
ATOM     13  C   UNL     1       2.992  14.781  20.598  0.00  0.00    +0.000 A 
ATOM     14  C   UNL     1       3.167  14.610  19.218  0.00  0.00    +0.000 A 
ATOM     15  C   UNL     1       2.063  14.237  18.451  0.00  0.00    +0.000 A 
ATOM     16  C   UNL     1       0.874  13.850  19.085  0.00  0.00    +0.000 A 
ENDROOT
BRANCH  14  17
ATOM     17  C   UNL     1       4.522  14.671  18.555  0.00  0.00    +0.000 C 
ATOM     18  F   UNL     1       4.663  15.741  17.725  0.00  0.00    +0.000 F 
ATOM     19  F   UNL     1       5.546  14.758  19.448  0.00  0.00    +0.000 F 
ATOM     20  F   UNL     1       4.781  13.570  17.801  0.00  0.00    +0.000 F 
ENDBRANCH  14  17
BRANCH   2  21
ATOM     21  C   UNL     1       0.509  10.360  19.454  0.00  0.00    +0.000 C 
BRANCH  21  22
ATOM     22  N   UNL     1       1.289   9.146  19.292  0.00  0.00    +0.000 N 
ATOM     23  C   UNL     1       1.991   8.716  18.201  0.00  0.00    +0.000 A 
ATOM     24  C   UNL     1       2.568   7.539  18.624  0.00  0.00    +0.000 A 
ATOM     25  N   UNL     1       2.254   7.345  19.947  0.00  0.00    +0.000 NA
ATOM     26  N   UNL     1       1.493   8.348  20.354  0.00  0.00    +0.000 NA
BRANCH  24  27
ATOM     27  C   UNL     1       3.368   6.601  17.847  0.00  0.00    +0.000 A 
ATOM     28  C   UNL     1       4.401   7.023  16.998  0.00  0.00    +0.000 A 
ATOM     29  C   UNL     1       5.132   6.093  16.247  0.00  0.00    +0.000 A 
ATOM     30  C   UNL     1       4.833   4.734  16.341  0.00  0.00    +0.000 A 
ATOM     31  C   UNL     1       3.826   4.296  17.192  0.00  0.00    +0.000 A 
ATOM     32  C   UNL     1       3.102   5.226  17.940  0.00  0.00    +0.000 A 
ENDBRANCH  24  27
ENDBRANCH  21  22
ENDBRANCH   2  21
TORSDOF 4
ENDMDL
MODEL 7
REMARK VINA RESULT:      -7.6      3.143      8.005
REMARK  Name = 
REMARK  4 active torsions:
REMARK  status: ('A' for Active; 'I' for Inactive)
REMARK    1  A    between atoms: C_2  and  C_3
REMARK    2  A    between atoms: C_3  and  N_4
REMARK    3  A    between atoms: C_6  and  C_7
REMARK    4  A    between atoms: C_26  and  C_27
REMARK                            x       y       z     vdW  Elec       q    Type
REMARK                         _______ _______ _______ _____ _____    ______ ____
ROOT
ATOM      1  O   UNL     1       4.142   7.482  19.159  0.00  0.00    +0.000 OA
ATOM      2  C   UNL     1       3.393   6.500  19.195  0.00  0.00    +0.000 C 
ATOM      3  N   UNL     1       3.882   5.161  19.348  0.00  0.00    +0.000 N 
ATOM      4  C   UNL     1       2.953   4.127  19.632  0.00  0.00    +0.000 A 
ATOM      5  C   UNL     1       2.318   4.179  20.889  0.00  0.00    +0.000 A 
ATOM      6  C   UNL     1       1.307   3.277  21.214  0.00  0.00    +0.000 A 
ATOM      7  C   UNL     1       0.932   2.309  20.288  0.00  0.00    +0.000 A 
ATOM      8  C   UNL     1       1.584   2.227  19.054  0.00  0.00    +0.000 A 
ATOM      9  C   UNL     1       2.602   3.132  18.710  0.00  0.00    +0.000 A 
ATOM     10  S   UNL     1       3.286   3.082  17.063  0.00  0.00    +0.000 S 
ATOM     11  C   UNL     1       4.600   4.272  17.195  0.00  0.00    +0.000 A 
ATOM     12  C   UNL     1       5.237   4.739  16.042  0.00  0.00    +0.000 A 
ATOM     13  C   UNL     1       6.217   5.740  16.125  0.00  0.00    +0.000 A 
ATOM     14  C   UNL     1       6.670   6.193  17.371  0.00  0.00    +0.000 A 
ATOM     15  C   UNL     1       6.078   5.671  18.521  0.00  0.00    +0.000 A 
ATOM     16  C   UNL     1       4.929   4.876  18.413  0.00  0.00    +0.000 A 
ENDROOT
BRANCH  14  17
ATOM     17  C   UNL     1       7.664   7.320  17.515  0.00  0.00    +0.000 C 
ATOM     18  F   UNL     1       8.457   7.475  16.420  0.00  0.00    +0.000 F 
ATOM     19  F   UNL     1       7.071   8.529  17.717  0.00  0.00    +0.000 F 
ATOM     20  F   UNL     1       8.504   7.139  18.569  0.00  0.00    +0.000 F 
ENDBRANCH  14  17
BRANCH   2  21
ATOM     21  C   UNL     1       1.908   6.635  18.892  0.00  0.00    +0.000 C 
BRANCH  21  22
ATOM     22  N   UNL     1       1.384   7.939  19.256  0.00  0.00    +0.000 N 
ATOM     23  C   UNL     1       0.953   8.381  20.476  0.00  0.00    +0.000 A 
ATOM     24  C   UNL     1       0.614   9.697  20.247  0.00  0.00    +0.000 A 
ATOM     25  N   UNL     1       0.911  10.009  18.943  0.00  0.00    +0.000 NA
ATOM     26  N   UNL     1       1.408   8.934  18.353  0.00  0.00    +0.000 NA
BRANCH  24  27
ATOM     27  C   UNL     1       0.017  10.645  21.179  0.00  0.00    +0.000 A 
ATOM     28  C   UNL     1      -0.648  10.233  22.342  0.00  0.00    +0.000 A 
ATOM     29  C   UNL     1      -1.233  11.174  23.201  0.00  0.00    +0.000 A 
ATOM     30  C   UNL     1      -1.156  12.533  22.900  0.00  0.00    +0.000 A 
ATOM     31  C   UNL     1      -0.484  12.961  21.761  0.00  0.00    +0.000 A 
ATOM     32  C   UNL     1       0.098  12.020  20.911  0.00  0.00    +0.000 A 
ENDBRANCH  24  27
ENDBRANCH  21  22
ENDBRANCH   2  21
TORSDOF 4
ENDMDL
MODEL 8
REMARK VINA RESULT:      -7.6      9.262     12.343
REMARK  Name = 
REMARK  4 active torsions:
REMARK  status: ('A' for Active; 'I' for Inactive)
REMARK    1  A    between atoms: C_2  and  C_3
REMARK    2  A    between atoms: C_3  and  N_4
REMARK    3  A    between atoms: C_6  and  C_7
REMARK    4  A    between atoms: C_26  and  C_27
REMARK                            x       y       z     vdW  Elec       q    Type
REMARK                         _______ _______ _______ _____ _____    ______ ____
ROOT
ATOM      1  O   UNL     1       7.533  13.213  17.674  0.00  0.00    +0.000 OA
ATOM      2  C   UNL     1       8.269  14.158  17.975  0.00  0.00    +0.000 C 
ATOM      3  N   UNL     1       9.694  14.102  17.836  0.00  0.00    +0.000 N 
ATOM      4  C   UNL     1      10.437  15.305  17.963  0.00  0.00    +0.000 A 
ATOM      5  C   UNL     1      10.245  16.272  16.956  0.00  0.00    +0.000 A 
ATOM      6  C   UNL     1      10.839  17.528  17.053  0.00  0.00    +0.000 A 
ATOM      7  C   UNL     1      11.638  17.823  18.151  0.00  0.00    +0.000 A 
ATOM      8  C   UNL     1      11.865  16.855  19.135  0.00  0.00    +0.000 A 
ATOM      9  C   UNL     1      11.269  15.586  19.053  0.00  0.00    +0.000 A 
ATOM     10  S   UNL     1      11.462  14.449  20.415  0.00  0.00    +0.000 S 
ATOM     11  C   UNL     1      10.689  12.988  19.762  0.00  0.00    +0.000 A 
ATOM     12  C   UNL     1      10.386  11.919  20.611  0.00  0.00    +0.000 A 
ATOM     13  C   UNL     1       9.700  10.796  20.126  0.00  0.00    +0.000 A 
ATOM     14  C   UNL     1       9.425  10.664  18.758  0.00  0.00    +0.000 A 
ATOM     15  C   UNL     1       9.793  11.704  17.904  0.00  0.00    +0.000 A 
ATOM     16  C   UNL     1      10.234  12.922  18.441  0.00  0.00    +0.000 A 
ENDROOT
BRANCH  14  17
ATOM     17  C   UNL     1       8.623   9.515  18.196  0.00  0.00    +0.000 C 
ATOM     18  F   UNL     1       9.017   9.151  16.944  0.00  0.00    +0.000 F 
ATOM     19  F   UNL     1       8.709   8.387  18.954  0.00  0.00    +0.000 F 
ATOM     20  F   UNL     1       7.297   9.802  18.107  0.00  0.00    +0.000 F 
ENDBRANCH  14  17
BRANCH   2  21
ATOM     21  C   UNL     1       7.718  15.383  18.691  0.00  0.00    +0.000 C 
BRANCH  21  22
ATOM     22  N   UNL     1       7.829  15.279  20.134  0.00  0.00    +0.000 N 
ATOM     23  C   UNL     1       7.640  14.186  20.933  0.00  0.00    +0.000 A 
ATOM     24  C   UNL     1       7.921  14.651  22.199  0.00  0.00    +0.000 A 
ATOM     25  N   UNL     1       8.327  15.960  22.108  0.00  0.00    +0.000 NA
ATOM     26  N   UNL     1       8.293  16.326  20.837  0.00  0.00    +0.000 NA
BRANCH  24  27
ATOM     27  C   UNL     1       7.808  13.937  23.464  0.00  0.00    +0.000 A 
ATOM     28  C   UNL     1       7.238  14.521  24.605  0.00  0.00    +0.000 A 
ATOM     29  C   UNL     1       7.170  13.812  25.811  0.00  0.00    +0.000 A 
ATOM     30  C   UNL     1       7.672  12.513  25.884  0.00  0.00    +0.000 A 
ATOM     31  C   UNL     1       8.223  11.911  24.759  0.00  0.00    +0.000 A 
ATOM     32  C   UNL     1       8.286  12.621  23.559  0.00  0.00    +0.000 A 
ENDBRANCH  24  27
ENDBRANCH  21  22
ENDBRANCH   2  21
TORSDOF 4
ENDMDL
MODEL 9
REMARK VINA RESULT:      -7.6      4.578      7.662
REMARK  Name = 
REMARK  4 active torsions:
REMARK  status: ('A' for Active; 'I' for Inactive)
REMARK    1  A    between atoms: C_2  and  C_3
REMARK    2  A    between atoms: C_3  and  N_4
REMARK    3  A    between atoms: C_6  and  C_7
REMARK    4  A    between atoms: C_26  and  C_27
REMARK                            x       y       z     vdW  Elec       q    Type
REMARK                         _______ _______ _______ _____ _____    ______ ____
ROOT
ATOM      1  O   UNL     1       2.645  12.186  18.266  0.00  0.00    +0.000 OA
ATOM      2  C   UNL     1       1.480  12.052  18.654  0.00  0.00    +0.000 C 
ATOM      3  N   UNL     1       0.516  13.110  18.583  0.00  0.00    +0.000 N 
ATOM      4  C   UNL     1      -0.850  12.801  18.811  0.00  0.00    +0.000 A 
ATOM      5  C   UNL     1      -1.480  11.986  17.850  0.00  0.00    +0.000 A 
ATOM      6  C   UNL     1      -2.783  11.533  18.044  0.00  0.00    +0.000 A 
ATOM      7  C   UNL     1      -3.470  11.901  19.195  0.00  0.00    +0.000 A 
ATOM      8  C   UNL     1      -2.865  12.742  20.135  0.00  0.00    +0.000 A 
ATOM      9  C   UNL     1      -1.550  13.203  19.956  0.00  0.00    +0.000 A 
ATOM     10  S   UNL     1      -0.774  14.139  21.262  0.00  0.00    +0.000 S 
ATOM     11  C   UNL     1       0.760  14.605  20.493  0.00  0.00    +0.000 A 
ATOM     12  C   UNL     1       1.795  15.137  21.267  0.00  0.00    +0.000 A 
ATOM     13  C   UNL     1       3.039  15.429  20.688  0.00  0.00    +0.000 A 
ATOM     14  C   UNL     1       3.224  15.322  19.303  0.00  0.00    +0.000 A 
ATOM     15  C   UNL     1       2.163  14.856  18.526  0.00  0.00    +0.000 A 
ATOM     16  C   UNL     1       1.027  14.323  19.149  0.00  0.00    +0.000 A 
ENDROOT
BRANCH  14  17
ATOM     17  C   UNL     1       4.562  15.550  18.640  0.00  0.00    +0.000 C 
ATOM     18  F   UNL     1       4.620  15.058  17.373  0.00  0.00    +0.000 F 
ATOM     19  F   UNL     1       4.887  16.869  18.540  0.00  0.00    +0.000 F 
ATOM     20  F   UNL     1       5.584  14.968  19.322  0.00  0.00    +0.000 F 
ENDBRANCH  14  17
BRANCH   2  21
ATOM     21  C   UNL     1       1.043  10.804  19.406  0.00  0.00    +0.000 C 
BRANCH  21  22
ATOM     22  N   UNL     1       1.608   9.590  18.845  0.00  0.00    +0.000 N 
ATOM     23  C   UNL     1       1.738   8.357  19.420  0.00  0.00    +0.000 A 
ATOM     24  C   UNL     1       2.292   7.585  18.422  0.00  0.00    +0.000 A 
ATOM     25  N   UNL     1       2.409   8.349  17.287  0.00  0.00    +0.000 NA
ATOM     26  N   UNL     1       1.962   9.567  17.548  0.00  0.00    +0.000 NA
BRANCH  24  27
ATOM     27  C   UNL     1       2.724   6.196  18.497  0.00  0.00    +0.000 A 
ATOM     28  C   UNL     1       1.988   5.151  17.920  0.00  0.00    +0.000 A 
ATOM     29  C   UNL     1       2.423   3.824  18.035  0.00  0.00    +0.000 A 
ATOM     30  C   UNL     1       3.597   3.534  18.728  0.00  0.00    +0.000 A 
ATOM     31  C   UNL     1       4.350   4.558  19.290  0.00  0.00    +0.000 A 
ATOM     32  C   UNL     1       3.914   5.879  19.170  0.00  0.00    +0.000 A 
ENDBRANCH  24  27
ENDBRANCH  21  22
ENDBRANCH   2  21
TORSDOF 4
ENDMDL
