MODEL 1
REMARK VINA RESULT:      -6.9      0.000      0.000
REMARK  Name = 
REMARK  4 active torsions:
REMARK  status: ('A' for Active; 'I' for Inactive)
REMARK    1  A    between atoms: C_1  and  C_2
REMARK    2  A    between atoms: C_5  and  S_6
REMARK    3  A    between atoms: S_6  and  C_7
REMARK    4  A    between atoms: C_12  and  N_13
REMARK                            x       y       z     vdW  Elec       q    Type
REMARK                         _______ _______ _______ _____ _____    ______ ____
ROOT
ATOM      1  C   UNL     1       3.205   3.182  19.204  0.00  0.00    +0.000 A 
ATOM      2  N   UNL     1       3.506   2.456  20.317  0.00  0.00    +0.000 NA
ATOM      3  C   UNL     1       2.738   2.609  21.420  0.00  0.00    +0.000 A 
ATOM      4  C   UNL     1       1.649   3.461  21.487  0.00  0.00    +0.000 A 
ATOM      5  C   UNL     1       1.330   4.198  20.354  0.00  0.00    +0.000 A 
ATOM      6  C   UNL     1       2.117   4.044  19.205  0.00  0.00    +0.000 A 
ENDROOT
BRANCH   6   7
ATOM      7  N   UNL     1       1.738   4.782  18.026  0.00  0.00    +0.000 N 
ATOM      8  O   UNL     1       1.003   4.216  17.209  0.00  0.00    +0.000 OA
ATOM      9  O   UNL     1       2.100   5.966  17.969  0.00  0.00    +0.000 OA
ENDBRANCH   6   7
BRANCH   1  10
ATOM     10  S   UNL     1       4.267   2.865  17.817  0.00  0.00    +0.000 S 
BRANCH  10  15
ATOM     11  C   UNL     1       7.824   7.661  17.799  0.00  0.00    +0.000 C 
ATOM     12  C   UNL     1       6.910   6.485  17.833  0.00  0.00    +0.000 A 
ATOM     13  C   UNL     1       6.878   5.589  18.879  0.00  0.00    +0.000 A 
ATOM     14  N   UNL     1       6.076   4.507  18.916  0.00  0.00    +0.000 NA
ATOM     15  C   UNL     1       5.262   4.328  17.863  0.00  0.00    +0.000 A 
ATOM     16  N   UNL     1       5.198   5.144  16.797  0.00  0.00    +0.000 NA
ATOM     17  C   UNL     1       6.035   6.202  16.805  0.00  0.00    +0.000 A 
ENDBRANCH  10  15
ENDBRANCH   1  10
TORSDOF 3
ENDMDL
MODEL 2
REMARK VINA RESULT:      -6.8      0.175      1.374
REMARK  Name = 
REMARK  4 active torsions:
REMARK  status: ('A' for Active; 'I' for Inactive)
REMARK    1  A    between atoms: C_1  and  C_2
REMARK    2  A    between atoms: C_5  and  S_6
REMARK    3  A    between atoms: S_6  and  C_7
REMARK    4  A    between atoms: C_12  and  N_13
REMARK                            x       y       z     vdW  Elec       q    Type
REMARK                         _______ _______ _______ _____ _____    ______ ____
ROOT
ATOM      1  C   UNL     1       3.197   3.169  19.151  0.00  0.00    +0.000 A 
ATOM      2  N   UNL     1       3.518   2.426  20.246  0.00  0.00    +0.000 NA
ATOM      3  C   UNL     1       2.830   2.629  21.394  0.00  0.00    +0.000 A 
ATOM      4  C   UNL     1       1.806   3.550  21.524  0.00  0.00    +0.000 A 
ATOM      5  C   UNL     1       1.466   4.306  20.410  0.00  0.00    +0.000 A 
ATOM      6  C   UNL     1       2.170   4.101  19.215  0.00  0.00    +0.000 A 
ENDROOT
BRANCH   6   7
ATOM      7  N   UNL     1       1.767   4.862  18.058  0.00  0.00    +0.000 N 
ATOM      8  O   UNL     1       2.252   5.990  17.919  0.00  0.00    +0.000 OA
ATOM      9  O   UNL     1       1.037   4.286  17.239  0.00  0.00    +0.000 OA
ENDBRANCH   6   7
BRANCH   1  10
ATOM     10  S   UNL     1       4.149   2.784  17.703  0.00  0.00    +0.000 S 
BRANCH  10  15
ATOM     11  C   UNL     1       7.743   7.549  17.885  0.00  0.00    +0.000 C 
ATOM     12  C   UNL     1       6.876   6.339  17.815  0.00  0.00    +0.000 A 
ATOM     13  C   UNL     1       6.157   5.995  16.692  0.00  0.00    +0.000 A 
ATOM     14  N   UNL     1       5.351   4.919  16.617  0.00  0.00    +0.000 NA
ATOM     15  C   UNL     1       5.276   4.148  17.715  0.00  0.00    +0.000 A 
ATOM     16  N   UNL     1       5.943   4.380  18.859  0.00  0.00    +0.000 NA
ATOM     17  C   UNL     1       6.723   5.480  18.883  0.00  0.00    +0.000 A 
ENDBRANCH  10  15
ENDBRANCH   1  10
TORSDOF 3
ENDMDL
MODEL 3
REMARK VINA RESULT:      -6.5      1.996      2.579
REMARK  Name = 
REMARK  4 active torsions:
REMARK  status: ('A' for Active; 'I' for Inactive)
REMARK    1  A    between atoms: C_1  and  C_2
REMARK    2  A    between atoms: C_5  and  S_6
REMARK    3  A    between atoms: S_6  and  C_7
REMARK    4  A    between atoms: C_12  and  N_13
REMARK                            x       y       z     vdW  Elec       q    Type
REMARK                         _______ _______ _______ _____ _____    ______ ____
ROOT
ATOM      1  C   UNL     1       2.616   3.525  18.861  0.00  0.00    +0.000 A 
ATOM      2  N   UNL     1       1.629   4.414  19.164  0.00  0.00    +0.000 NA
ATOM      3  C   UNL     1       1.134   4.432  20.423  0.00  0.00    +0.000 A 
ATOM      4  C   UNL     1       1.577   3.599  21.436  0.00  0.00    +0.000 A 
ATOM      5  C   UNL     1       2.589   2.697  21.139  0.00  0.00    +0.000 A 
ATOM      6  C   UNL     1       3.112   2.672  19.838  0.00  0.00    +0.000 A 
ENDROOT
BRANCH   6   7
ATOM      7  N   UNL     1       4.195   1.761  19.565  0.00  0.00    +0.000 N 
ATOM      8  O   UNL     1       5.200   1.836  20.282  0.00  0.00    +0.000 OA
ATOM      9  O   UNL     1       3.997   0.904  18.692  0.00  0.00    +0.000 OA
ENDBRANCH   6   7
BRANCH   1  10
ATOM     10  S   UNL     1       3.201   3.626  17.189  0.00  0.00    +0.000 S 
BRANCH  10  15
ATOM     11  C   UNL     1       7.696   7.533  17.619  0.00  0.00    +0.000 C 
ATOM     12  C   UNL     1       6.572   6.558  17.556  0.00  0.00    +0.000 A 
ATOM     13  C   UNL     1       6.723   5.219  17.840  0.00  0.00    +0.000 A 
ATOM     14  N   UNL     1       5.725   4.318  17.766  0.00  0.00    +0.000 NA
ATOM     15  C   UNL     1       4.520   4.787  17.404  0.00  0.00    +0.000 A 
ATOM     16  N   UNL     1       4.254   6.074  17.118  0.00  0.00    +0.000 NA
ATOM     17  C   UNL     1       5.294   6.929  17.193  0.00  0.00    +0.000 A 
ENDBRANCH  10  15
ENDBRANCH   1  10
TORSDOF 3
ENDMDL
MODEL 4
REMARK VINA RESULT:      -6.4      1.755      5.174
REMARK  Name = 
REMARK  4 active torsions:
REMARK  status: ('A' for Active; 'I' for Inactive)
REMARK    1  A    between atoms: C_1  and  C_2
REMARK    2  A    between atoms: C_5  and  S_6
REMARK    3  A    between atoms: S_6  and  C_7
REMARK    4  A    between atoms: C_12  and  N_13
REMARK                            x       y       z     vdW  Elec       q    Type
REMARK                         _______ _______ _______ _____ _____    ______ ____
ROOT
ATOM      1  C   UNL     1       6.058   4.953  17.375  0.00  0.00    +0.000 A 
ATOM      2  N   UNL     1       7.021   4.434  18.187  0.00  0.00    +0.000 NA
ATOM      3  C   UNL     1       7.924   5.274  18.745  0.00  0.00    +0.000 A 
ATOM      4  C   UNL     1       7.925   6.644  18.545  0.00  0.00    +0.000 A 
ATOM      5  C   UNL     1       6.942   7.182  17.726  0.00  0.00    +0.000 A 
ATOM      6  C   UNL     1       6.000   6.321  17.146  0.00  0.00    +0.000 A 
ENDROOT
BRANCH   6   7
ATOM      7  N   UNL     1       4.959   6.908  16.338  0.00  0.00    +0.000 N 
ATOM      8  O   UNL     1       5.136   6.945  15.116  0.00  0.00    +0.000 OA
ATOM      9  O   UNL     1       3.921   7.244  16.926  0.00  0.00    +0.000 OA
ENDBRANCH   6   7
BRANCH   1  10
ATOM     10  S   UNL     1       4.918   3.752  16.735  0.00  0.00    +0.000 S 
BRANCH  10  15
ATOM     11  C   UNL     1       1.375   2.844  21.455  0.00  0.00    +0.000 C 
ATOM     12  C   UNL     1       2.294   3.067  20.304  0.00  0.00    +0.000 A 
ATOM     13  C   UNL     1       2.941   4.263  20.081  0.00  0.00    +0.000 A 
ATOM     14  N   UNL     1       3.757   4.491  19.034  0.00  0.00    +0.000 NA
ATOM     15  C   UNL     1       3.941   3.468  18.183  0.00  0.00    +0.000 A 
ATOM     16  N   UNL     1       3.374   2.256  18.310  0.00  0.00    +0.000 NA
ATOM     17  C   UNL     1       2.554   2.088  19.367  0.00  0.00    +0.000 A 
ENDBRANCH  10  15
ENDBRANCH   1  10
TORSDOF 3
ENDMDL
MODEL 5
REMARK VINA RESULT:      -6.4      2.028      5.426
REMARK  Name = 
REMARK  4 active torsions:
REMARK  status: ('A' for Active; 'I' for Inactive)
REMARK    1  A    between atoms: C_1  and  C_2
REMARK    2  A    between atoms: C_5  and  S_6
REMARK    3  A    between atoms: S_6  and  C_7
REMARK    4  A    between atoms: C_12  and  N_13
REMARK                            x       y       z     vdW  Elec       q    Type
REMARK                         _______ _______ _______ _____ _____    ______ ____
ROOT
ATOM      1  C   UNL     1       6.080   4.833  17.509  0.00  0.00    +0.000 A 
ATOM      2  N   UNL     1       6.480   4.702  18.805  0.00  0.00    +0.000 NA
ATOM      3  C   UNL     1       7.341   5.613  19.315  0.00  0.00    +0.000 A 
ATOM      4  C   UNL     1       7.839   6.686  18.596  0.00  0.00    +0.000 A 
ATOM      5  C   UNL     1       7.430   6.833  17.278  0.00  0.00    +0.000 A 
ATOM      6  C   UNL     1       6.536   5.896  16.741  0.00  0.00    +0.000 A 
ENDROOT
BRANCH   6   7
ATOM      7  N   UNL     1       6.086   6.096  15.385  0.00  0.00    +0.000 N 
ATOM      8  O   UNL     1       5.119   6.844  15.208  0.00  0.00    +0.000 OA
ATOM      9  O   UNL     1       6.768   5.576  14.490  0.00  0.00    +0.000 OA
ENDBRANCH   6   7
BRANCH   1  10
ATOM     10  S   UNL     1       4.927   3.595  16.972  0.00  0.00    +0.000 S 
BRANCH  10  15
ATOM     11  C   UNL     1       1.355   3.004  21.721  0.00  0.00    +0.000 C 
ATOM     12  C   UNL     1       2.270   3.181  20.559  0.00  0.00    +0.000 A 
ATOM     13  C   UNL     1       2.230   4.283  19.733  0.00  0.00    +0.000 A 
ATOM     14  N   UNL     1       3.032   4.449  18.664  0.00  0.00    +0.000 NA
ATOM     15  C   UNL     1       3.923   3.473  18.425  0.00  0.00    +0.000 A 
ATOM     16  N   UNL     1       4.061   2.364  19.172  0.00  0.00    +0.000 NA
ATOM     17  C   UNL     1       3.221   2.241  20.220  0.00  0.00    +0.000 A 
ENDBRANCH  10  15
ENDBRANCH   1  10
TORSDOF 3
ENDMDL
MODEL 6
REMARK VINA RESULT:      -6.4      1.753      5.154
REMARK  Name = 
REMARK  4 active torsions:
REMARK  status: ('A' for Active; 'I' for Inactive)
REMARK    1  A    between atoms: C_1  and  C_2
REMARK    2  A    between atoms: C_5  and  S_6
REMARK    3  A    between atoms: S_6  and  C_7
REMARK    4  A    between atoms: C_12  and  N_13
REMARK                            x       y       z     vdW  Elec       q    Type
REMARK                         _______ _______ _______ _____ _____    ______ ____
ROOT
ATOM      1  C   UNL     1       6.033   4.926  17.336  0.00  0.00    +0.000 A 
ATOM      2  N   UNL     1       6.986   4.409  18.161  0.00  0.00    +0.000 NA
ATOM      3  C   UNL     1       7.883   5.250  18.726  0.00  0.00    +0.000 A 
ATOM      4  C   UNL     1       7.887   6.619  18.522  0.00  0.00    +0.000 A 
ATOM      5  C   UNL     1       6.914   7.156  17.690  0.00  0.00    +0.000 A 
ATOM      6  C   UNL     1       5.978   6.294  17.102  0.00  0.00    +0.000 A 
ENDROOT
BRANCH   6   7
ATOM      7  N   UNL     1       4.947   6.879  16.282  0.00  0.00    +0.000 N 
ATOM      8  O   UNL     1       3.949   7.332  16.853  0.00  0.00    +0.000 OA
ATOM      9  O   UNL     1       5.185   6.970  15.069  0.00  0.00    +0.000 OA
ENDBRANCH   6   7
BRANCH   1  10
ATOM     10  S   UNL     1       4.899   3.725  16.687  0.00  0.00    +0.000 S 
BRANCH  10  15
ATOM     11  C   UNL     1       1.648   2.927  21.632  0.00  0.00    +0.000 C 
ATOM     12  C   UNL     1       2.421   3.126  20.374  0.00  0.00    +0.000 A 
ATOM     13  C   UNL     1       2.647   2.117  19.464  0.00  0.00    +0.000 A 
ATOM     14  N   UNL     1       3.364   2.272  18.334  0.00  0.00    +0.000 NA
ATOM     15  C   UNL     1       3.862   3.498  18.103  0.00  0.00    +0.000 A 
ATOM     16  N   UNL     1       3.692   4.557  18.913  0.00  0.00    +0.000 NA
ATOM     17  C   UNL     1       2.981   4.341  20.038  0.00  0.00    +0.000 A 
ENDBRANCH  10  15
ENDBRANCH   1  10
TORSDOF 3
ENDMDL
MODEL 7
REMARK VINA RESULT:      -6.4      1.957      2.682
REMARK  Name = 
REMARK  4 active torsions:
REMARK  status: ('A' for Active; 'I' for Inactive)
REMARK    1  A    between atoms: C_1  and  C_2
REMARK    2  A    between atoms: C_5  and  S_6
REMARK    3  A    between atoms: S_6  and  C_7
REMARK    4  A    between atoms: C_12  and  N_13
REMARK                            x       y       z     vdW  Elec       q    Type
REMARK                         _______ _______ _______ _____ _____    ______ ____
ROOT
ATOM      1  C   UNL     1       3.161   3.837  18.786  0.00  0.00    +0.000 A 
ATOM      2  N   UNL     1       2.409   4.952  18.997  0.00  0.00    +0.000 NA
ATOM      3  C   UNL     1       1.790   5.103  20.192  0.00  0.00    +0.000 A 
ATOM      4  C   UNL     1       1.882   4.187  21.226  0.00  0.00    +0.000 A 
ATOM      5  C   UNL     1       2.655   3.052  21.022  0.00  0.00    +0.000 A 
ATOM      6  C   UNL     1       3.303   2.888  19.790  0.00  0.00    +0.000 A 
ENDROOT
BRANCH   6   7
ATOM      7  N   UNL     1       4.139   1.726  19.619  0.00  0.00    +0.000 N 
ATOM      8  O   UNL     1       3.826   0.922  18.734  0.00  0.00    +0.000 OA
ATOM      9  O   UNL     1       5.166   1.672  20.311  0.00  0.00    +0.000 OA
ENDBRANCH   6   7
BRANCH   1  10
ATOM     10  S   UNL     1       3.945   3.776  17.194  0.00  0.00    +0.000 S 
BRANCH  10  15
ATOM     11  C   UNL     1       8.292   7.693  18.384  0.00  0.00    +0.000 C 
ATOM     12  C   UNL     1       7.227   6.707  18.049  0.00  0.00    +0.000 A 
ATOM     13  C   UNL     1       6.231   6.960  17.132  0.00  0.00    +0.000 A 
ATOM     14  N   UNL     1       5.247   6.090  16.833  0.00  0.00    +0.000 NA
ATOM     15  C   UNL     1       5.275   4.910  17.474  0.00  0.00    +0.000 A 
ATOM     16  N   UNL     1       6.206   4.550  18.374  0.00  0.00    +0.000 NA
ATOM     17  C   UNL     1       7.158   5.466  18.647  0.00  0.00    +0.000 A 
ENDBRANCH  10  15
ENDBRANCH   1  10
TORSDOF 3
ENDMDL
MODEL 8
REMARK VINA RESULT:      -6.3      2.095      5.277
REMARK  Name = 
REMARK  4 active torsions:
REMARK  status: ('A' for Active; 'I' for Inactive)
REMARK    1  A    between atoms: C_1  and  C_2
REMARK    2  A    between atoms: C_5  and  S_6
REMARK    3  A    between atoms: S_6  and  C_7
REMARK    4  A    between atoms: C_12  and  N_13
REMARK                            x       y       z     vdW  Elec       q    Type
REMARK                         _______ _______ _______ _____ _____    ______ ____
ROOT
ATOM      1  C   UNL     1       6.404   4.725  17.351  0.00  0.00    +0.000 A 
ATOM      2  N   UNL     1       6.852   4.570  18.628  0.00  0.00    +0.000 NA
ATOM      3  C   UNL     1       7.575   5.567  19.189  0.00  0.00    +0.000 A 
ATOM      4  C   UNL     1       7.884   6.751  18.542  0.00  0.00    +0.000 A 
ATOM      5  C   UNL     1       7.424   6.921  17.243  0.00  0.00    +0.000 A 
ATOM      6  C   UNL     1       6.672   5.896  16.653  0.00  0.00    +0.000 A 
ENDROOT
BRANCH   6   7
ATOM      7  N   UNL     1       6.163   6.115  15.322  0.00  0.00    +0.000 N 
ATOM      8  O   UNL     1       5.158   6.825  15.204  0.00  0.00    +0.000 OA
ATOM      9  O   UNL     1       6.832   5.653  14.387  0.00  0.00    +0.000 OA
ENDBRANCH   6   7
BRANCH   1  10
ATOM     10  S   UNL     1       5.442   3.363  16.744  0.00  0.00    +0.000 S 
BRANCH  10  15
ATOM     11  C   UNL     1       0.810   4.056  20.448  0.00  0.00    +0.000 C 
ATOM     12  C   UNL     1       1.944   3.850  19.504  0.00  0.00    +0.000 A 
ATOM     13  C   UNL     1       2.838   2.808  19.621  0.00  0.00    +0.000 A 
ATOM     14  N   UNL     1       3.883   2.619  18.792  0.00  0.00    +0.000 NA
ATOM     15  C   UNL     1       4.025   3.507  17.795  0.00  0.00    +0.000 A 
ATOM     16  N   UNL     1       3.206   4.550  17.577  0.00  0.00    +0.000 NA
ATOM     17  C   UNL     1       2.187   4.701  18.447  0.00  0.00    +0.000 A 
ENDBRANCH  10  15
ENDBRANCH   1  10
TORSDOF 3
ENDMDL
MODEL 9
REMARK VINA RESULT:      -6.3      2.649      5.694
REMARK  Name = 
REMARK  4 active torsions:
REMARK  status: ('A' for Active; 'I' for Inactive)
REMARK    1  A    between atoms: C_1  and  C_2
REMARK    2  A    between atoms: C_5  and  S_6
REMARK    3  A    between atoms: S_6  and  C_7
REMARK    4  A    between atoms: C_12  and  N_13
REMARK                            x       y       z     vdW  Elec       q    Type
REMARK                         _______ _______ _______ _____ _____    ______ ____
ROOT
ATOM      1  C   UNL     1       5.303   5.731  17.161  0.00  0.00    +0.000 A 
ATOM      2  N   UNL     1       4.768   5.182  16.035  0.00  0.00    +0.000 NA
ATOM      3  C   UNL     1       5.534   4.352  15.290  0.00  0.00    +0.000 A 
ATOM      4  C   UNL     1       6.838   4.015  15.608  0.00  0.00    +0.000 A 
ATOM      5  C   UNL     1       7.388   4.562  16.759  0.00  0.00    +0.000 A 
ATOM      6  C   UNL     1       6.603   5.422  17.540  0.00  0.00    +0.000 A 
ENDROOT
BRANCH   6   7
ATOM      7  N   UNL     1       7.178   5.939  18.757  0.00  0.00    +0.000 N 
ATOM      8  O   UNL     1       6.909   5.353  19.811  0.00  0.00    +0.000 OA
ATOM      9  O   UNL     1       7.979   6.877  18.639  0.00  0.00    +0.000 OA
ENDBRANCH   6   7
BRANCH   1  10
ATOM     10  S   UNL     1       4.188   6.773  18.067  0.00  0.00    +0.000 S 
BRANCH  10  15
ATOM     11  C   UNL     1       1.601   2.724  21.611  0.00  0.00    +0.000 C 
ATOM     12  C   UNL     1       2.222   3.719  20.693  0.00  0.00    +0.000 A 
ATOM     13  C   UNL     1       3.192   3.387  19.773  0.00  0.00    +0.000 A 
ATOM     14  N   UNL     1       3.783   4.277  18.951  0.00  0.00    +0.000 NA
ATOM     15  C   UNL     1       3.368   5.551  19.049  0.00  0.00    +0.000 A 
ATOM     16  N   UNL     1       2.420   5.983  19.898  0.00  0.00    +0.000 NA
ATOM     17  C   UNL     1       1.875   5.054  20.709  0.00  0.00    +0.000 A 
ENDBRANCH  10  15
ENDBRANCH   1  10
TORSDOF 3
ENDMDL
