MODEL 1
REMARK VINA RESULT:      -6.3      0.000      0.000
REMARK  Name = 
REMARK  10 active torsions:
REMARK  status: ('A' for Active; 'I' for Inactive)
REMARK    1  A    between atoms: C_1  and  C_2
REMARK    2  A    between atoms: C_2  and  O_3
REMARK    3  A    between atoms: O_3  and  P_4
REMARK    4  A    between atoms: P_4  and  O_6
REMARK    5  A    between atoms: P_4  and  C_9
REMARK    6  A    between atoms: O_6  and  C_7
REMARK    7  A    between atoms: C_7  and  C_8
REMARK    8  A    between atoms: C_9  and  N_10
REMARK    9  A    between atoms: N_10  and  S_11
REMARK   10  A    between atoms: S_11  and  C_14
REMARK                            x       y       z     vdW  Elec       q    Type
REMARK                         _______ _______ _______ _____ _____    ______ ____
ROOT
ATOM      1  C   UNL     1      -1.314  11.867  18.811  0.00  0.00    +0.000 C 
ATOM      2  C   UNL     1      -0.233  11.026  18.126  0.00  0.00    +0.000 C 
ATOM      3  C   UNL     1       0.527  10.105  18.731  0.00  0.00    +0.000 C 
ATOM      4 CL   UNL     1       1.636   9.149  17.818  0.00  0.00    +0.000 Cl
ATOM      5  C   UNL     1       0.459   9.877  20.195  0.00  0.00    +0.000 C 
ATOM      6  O   UNL     1       1.205   9.092  20.771  0.00  0.00    +0.000 OA
ATOM      7  C   UNL     1      -0.538  10.672  20.961  0.00  0.00    +0.000 A 
ATOM      8  C   UNL     1      -0.575  10.513  22.353  0.00  0.00    +0.000 A 
ATOM      9  C   UNL     1      -1.447  11.276  23.127  0.00  0.00    +0.000 A 
ATOM     10  C   UNL     1      -2.292  12.199  22.517  0.00  0.00    +0.000 A 
ATOM     11  C   UNL     1      -2.260  12.372  21.132  0.00  0.00    +0.000 A 
ATOM     12  C   UNL     1      -1.374  11.617  20.334  0.00  0.00    +0.000 A 
ENDROOT
BRANCH   1  13
ATOM     13  P   UNL     1      -2.919  11.283  18.155  0.00  0.00    +0.000 P 
ATOM     14  O   UNL     1      -2.590   9.836  18.576  0.00  0.00    +0.000 OA
BRANCH  13  15
ATOM     15  O   UNL     1      -4.437  10.730  17.535  0.00  0.00    +0.000 OA
BRANCH  15  17
ATOM     16  C   UNL     1      -5.349  12.385  19.039  0.00  0.00    +0.000 C 
ATOM     17  C   UNL     1      -5.538  11.029  18.397  0.00  0.00    +0.000 C 
ENDBRANCH  15  17
ENDBRANCH  13  15
BRANCH  13  18
ATOM     18  O   UNL     1      -2.420  11.498  16.582  0.00  0.00    +0.000 OA
BRANCH  18  19
ATOM     19  C   UNL     1      -3.321  11.184  15.527  0.00  0.00    +0.000 C 
ATOM     20  C   UNL     1      -2.772  10.016  14.732  0.00  0.00    +0.000 C 
ENDBRANCH  18  19
ENDBRANCH  13  18
ENDBRANCH   1  13
BRANCH   1  21
ATOM     21  N   UNL     1      -0.868  13.278  18.562  0.00  0.00    +0.000 NA
ATOM     22  H   UNL     1      -1.512  14.030  18.793  0.00  0.00    +0.000 HD
BRANCH  21  23
ATOM     23  S   UNL     1       0.736  13.763  18.925  0.00  0.00    +0.000 S 
ATOM     24  O   UNL     1       0.921  13.371  20.307  0.00  0.00    +0.000 OA
ATOM     25  O   UNL     1       1.640  13.294  17.911  0.00  0.00    +0.000 OA
BRANCH  23  26
ATOM     26  C   UNL     1       0.740  15.543  18.890  0.00  0.00    +0.000 A 
ATOM     27  C   UNL     1      -0.415  16.214  18.487  0.00  0.00    +0.000 A 
ATOM     28  C   UNL     1      -0.431  17.611  18.476  0.00  0.00    +0.000 A 
ATOM     29  C   UNL     1       0.699  18.333  18.870  0.00  0.00    +0.000 A 
ATOM     30  C   UNL     1       1.844  17.664  19.296  0.00  0.00    +0.000 A 
ATOM     31  C   UNL     1       1.866  16.265  19.321  0.00  0.00    +0.000 A 
ENDBRANCH  23  26
ENDBRANCH  21  23
ENDBRANCH   1  21
TORSDOF 8
ENDMDL
MODEL 2
REMARK VINA RESULT:      -6.2      0.931      1.178
REMARK  Name = 
REMARK  10 active torsions:
REMARK  status: ('A' for Active; 'I' for Inactive)
REMARK    1  A    between atoms: C_1  and  C_2
REMARK    2  A    between atoms: C_2  and  O_3
REMARK    3  A    between atoms: O_3  and  P_4
REMARK    4  A    between atoms: P_4  and  O_6
REMARK    5  A    between atoms: P_4  and  C_9
REMARK    6  A    between atoms: O_6  and  C_7
REMARK    7  A    between atoms: C_7  and  C_8
REMARK    8  A    between atoms: C_9  and  N_10
REMARK    9  A    between atoms: N_10  and  S_11
REMARK   10  A    between atoms: S_11  and  C_14
REMARK                            x       y       z     vdW  Elec       q    Type
REMARK                         _______ _______ _______ _____ _____    ______ ____
ROOT
ATOM      1  C   UNL     1      -1.147  11.815  18.882  0.00  0.00    +0.000 C 
ATOM      2  C   UNL     1      -0.119  10.941  18.157  0.00  0.00    +0.000 C 
ATOM      3  C   UNL     1       0.584   9.949  18.717  0.00  0.00    +0.000 C 
ATOM      4 CL   UNL     1       1.632   8.970  17.759  0.00  0.00    +0.000 Cl
ATOM      5  C   UNL     1       0.502   9.661  20.171  0.00  0.00    +0.000 C 
ATOM      6  O   UNL     1       1.201   8.807  20.709  0.00  0.00    +0.000 OA
ATOM      7  C   UNL     1      -0.444  10.480  20.974  0.00  0.00    +0.000 A 
ATOM      8  C   UNL     1      -0.489  10.262  22.358  0.00  0.00    +0.000 A 
ATOM      9  C   UNL     1      -1.313  11.041  23.169  0.00  0.00    +0.000 A 
ATOM     10  C   UNL     1      -2.101  12.040  22.602  0.00  0.00    +0.000 A 
ATOM     11  C   UNL     1      -2.059  12.272  21.226  0.00  0.00    +0.000 A 
ATOM     12  C   UNL     1      -1.221  11.501  20.393  0.00  0.00    +0.000 A 
ENDROOT
BRANCH   1  13
ATOM     13  P   UNL     1      -2.785  11.358  18.207  0.00  0.00    +0.000 P 
ATOM     14  O   UNL     1      -2.583   9.893  18.644  0.00  0.00    +0.000 OA
BRANCH  13  15
ATOM     15  O   UNL     1      -4.334  10.927  17.568  0.00  0.00    +0.000 OA
BRANCH  15  17
ATOM     16  C   UNL     1      -5.201  12.477  19.204  0.00  0.00    +0.000 C 
ATOM     17  C   UNL     1      -5.406  11.163  18.485  0.00  0.00    +0.000 C 
ENDBRANCH  15  17
ENDBRANCH  13  15
BRANCH  13  18
ATOM     18  O   UNL     1      -2.247  11.518  16.640  0.00  0.00    +0.000 OA
BRANCH  18  19
ATOM     19  C   UNL     1      -3.145  11.231  15.574  0.00  0.00    +0.000 C 
ATOM     20  C   UNL     1      -2.734   9.931  14.910  0.00  0.00    +0.000 C 
ENDBRANCH  18  19
ENDBRANCH  13  18
ENDBRANCH   1  13
BRANCH   1  21
ATOM     21  N   UNL     1      -0.617  13.205  18.694  0.00  0.00    +0.000 NA
ATOM     22  H   UNL     1      -1.283  13.949  18.505  0.00  0.00    +0.000 HD
BRANCH  21  23
ATOM     23  S   UNL     1       0.640  13.802  19.697  0.00  0.00    +0.000 S 
ATOM     24  O   UNL     1      -0.053  14.532  20.738  0.00  0.00    +0.000 OA
ATOM     25  O   UNL     1       1.552  12.745  20.036  0.00  0.00    +0.000 OA
BRANCH  23  26
ATOM     26  C   UNL     1       1.524  15.005  18.727  0.00  0.00    +0.000 A 
ATOM     27  C   UNL     1       1.024  16.305  18.641  0.00  0.00    +0.000 A 
ATOM     28  C   UNL     1       1.721  17.263  17.900  0.00  0.00    +0.000 A 
ATOM     29  C   UNL     1       2.912  16.926  17.253  0.00  0.00    +0.000 A 
ATOM     30  C   UNL     1       3.425  15.635  17.359  0.00  0.00    +0.000 A 
ATOM     31  C   UNL     1       2.741  14.671  18.108  0.00  0.00    +0.000 A 
ENDBRANCH  23  26
ENDBRANCH  21  23
ENDBRANCH   1  21
TORSDOF 8
ENDMDL
MODEL 3
REMARK VINA RESULT:      -6.2      2.388      6.018
REMARK  Name = 
REMARK  10 active torsions:
REMARK  status: ('A' for Active; 'I' for Inactive)
REMARK    1  A    between atoms: C_1  and  C_2
REMARK    2  A    between atoms: C_2  and  O_3
REMARK    3  A    between atoms: O_3  and  P_4
REMARK    4  A    between atoms: P_4  and  O_6
REMARK    5  A    between atoms: P_4  and  C_9
REMARK    6  A    between atoms: O_6  and  C_7
REMARK    7  A    between atoms: C_7  and  C_8
REMARK    8  A    between atoms: C_9  and  N_10
REMARK    9  A    between atoms: N_10  and  S_11
REMARK   10  A    between atoms: S_11  and  C_14
REMARK                            x       y       z     vdW  Elec       q    Type
REMARK                         _______ _______ _______ _____ _____    ______ ____
ROOT
ATOM      1  C   UNL     1       0.362  11.733  19.252  0.00  0.00    +0.000 C 
ATOM      2  C   UNL     1      -0.437  11.900  20.548  0.00  0.00    +0.000 C 
ATOM      3  C   UNL     1      -0.488  11.008  21.544  0.00  0.00    +0.000 C 
ATOM      4 CL   UNL     1      -1.342  11.369  22.999  0.00  0.00    +0.000 Cl
ATOM      5  C   UNL     1       0.168   9.681  21.436  0.00  0.00    +0.000 C 
ATOM      6  O   UNL     1       0.061   8.825  22.309  0.00  0.00    +0.000 OA
ATOM      7  C   UNL     1       0.943   9.405  20.197  0.00  0.00    +0.000 A 
ATOM      8  C   UNL     1       1.518   8.135  20.052  0.00  0.00    +0.000 A 
ATOM      9  C   UNL     1       2.205   7.800  18.886  0.00  0.00    +0.000 A 
ATOM     10  C   UNL     1       2.325   8.732  17.859  0.00  0.00    +0.000 A 
ATOM     11  C   UNL     1       1.750   9.998  17.988  0.00  0.00    +0.000 A 
ATOM     12  C   UNL     1       1.041  10.349  19.156  0.00  0.00    +0.000 A 
ENDROOT
BRANCH   1  13
ATOM     13  P   UNL     1       1.732  12.945  19.327  0.00  0.00    +0.000 P 
ATOM     14  O   UNL     1       1.693  12.928  20.869  0.00  0.00    +0.000 OA
BRANCH  13  15
ATOM     15  O   UNL     1       3.026  14.091  19.397  0.00  0.00    +0.000 OA
BRANCH  15  17
ATOM     16  C   UNL     1       3.839  15.525  17.633  0.00  0.00    +0.000 C 
ATOM     17  C   UNL     1       3.812  14.125  18.203  0.00  0.00    +0.000 C 
ENDBRANCH  15  17
ENDBRANCH  13  15
BRANCH  13  18
ATOM     18  O   UNL     1       0.748  14.176  18.790  0.00  0.00    +0.000 OA
BRANCH  18  19
ATOM     19  C   UNL     1       0.595  15.335  19.600  0.00  0.00    +0.000 C 
ATOM     20  C   UNL     1      -0.879  15.570  19.864  0.00  0.00    +0.000 C 
ENDBRANCH  18  19
ENDBRANCH  13  18
ENDBRANCH   1  13
BRANCH   1  21
ATOM     21  N   UNL     1      -0.682  11.844  18.181  0.00  0.00    +0.000 NA
ATOM     22  H   UNL     1      -0.392  12.165  17.261  0.00  0.00    +0.000 HD
BRANCH  21  23
ATOM     23  S   UNL     1      -1.890  10.638  18.013  0.00  0.00    +0.000 S 
ATOM     24  O   UNL     1      -1.769  10.203  16.637  0.00  0.00    +0.000 OA
ATOM     25  O   UNL     1      -1.797   9.687  19.086  0.00  0.00    +0.000 OA
BRANCH  23  26
ATOM     26  C   UNL     1      -3.455  11.477  18.152  0.00  0.00    +0.000 A 
ATOM     27  C   UNL     1      -4.310  11.500  17.050  0.00  0.00    +0.000 A 
ATOM     28  C   UNL     1      -5.550  12.135  17.154  0.00  0.00    +0.000 A 
ATOM     29  C   UNL     1      -5.935  12.741  18.353  0.00  0.00    +0.000 A 
ATOM     30  C   UNL     1      -5.092  12.696  19.461  0.00  0.00    +0.000 A 
ATOM     31  C   UNL     1      -3.854  12.052  19.371  0.00  0.00    +0.000 A 
ENDBRANCH  23  26
ENDBRANCH  21  23
ENDBRANCH   1  21
TORSDOF 8
ENDMDL
MODEL 4
REMARK VINA RESULT:      -6.1      2.533      5.805
REMARK  Name = 
REMARK  10 active torsions:
REMARK  status: ('A' for Active; 'I' for Inactive)
REMARK    1  A    between atoms: C_1  and  C_2
REMARK    2  A    between atoms: C_2  and  O_3
REMARK    3  A    between atoms: O_3  and  P_4
REMARK    4  A    between atoms: P_4  and  O_6
REMARK    5  A    between atoms: P_4  and  C_9
REMARK    6  A    between atoms: O_6  and  C_7
REMARK    7  A    between atoms: C_7  and  C_8
REMARK    8  A    between atoms: C_9  and  N_10
REMARK    9  A    between atoms: N_10  and  S_11
REMARK   10  A    between atoms: S_11  and  C_14
REMARK                            x       y       z     vdW  Elec       q    Type
REMARK                         _______ _______ _______ _____ _____    ______ ____
ROOT
ATOM      1  C   UNL     1      -1.302  12.361  18.807  0.00  0.00    +0.000 C 
ATOM      2  C   UNL     1      -0.019  13.097  18.413  0.00  0.00    +0.000 C 
ATOM      3  C   UNL     1       0.412  14.243  18.954  0.00  0.00    +0.000 C 
ATOM      4 CL   UNL     1       1.933  14.911  18.493  0.00  0.00    +0.000 Cl
ATOM      5  C   UNL     1      -0.397  14.984  19.953  0.00  0.00    +0.000 C 
ATOM      6  O   UNL     1      -0.050  16.074  20.398  0.00  0.00    +0.000 OA
ATOM      7  C   UNL     1      -1.682  14.369  20.380  0.00  0.00    +0.000 A 
ATOM      8  C   UNL     1      -2.487  15.085  21.277  0.00  0.00    +0.000 A 
ATOM      9  C   UNL     1      -3.728  14.585  21.665  0.00  0.00    +0.000 A 
ATOM     10  C   UNL     1      -4.174  13.365  21.162  0.00  0.00    +0.000 A 
ATOM     11  C   UNL     1      -3.385  12.646  20.262  0.00  0.00    +0.000 A 
ATOM     12  C   UNL     1      -2.131  13.144  19.849  0.00  0.00    +0.000 A 
ENDROOT
BRANCH   1  13
ATOM     13  P   UNL     1      -0.780  10.824  19.652  0.00  0.00    +0.000 P 
ATOM     14  O   UNL     1      -0.374  11.624  20.907  0.00  0.00    +0.000 OA
BRANCH  13  15
ATOM     15  O   UNL     1      -0.286   9.371  20.451  0.00  0.00    +0.000 OA
BRANCH  15  17
ATOM     16  C   UNL     1       1.409   8.919  22.112  0.00  0.00    +0.000 C 
ATOM     17  C   UNL     1       0.080   9.578  21.819  0.00  0.00    +0.000 C 
ENDBRANCH  15  17
ENDBRANCH  13  15
BRANCH  13  18
ATOM     18  O   UNL     1       0.557  10.672  18.672  0.00  0.00    +0.000 OA
BRANCH  18  19
ATOM     19  C   UNL     1       0.757   9.450  17.971  0.00  0.00    +0.000 C 
ATOM     20  C   UNL     1       2.238   9.124  17.949  0.00  0.00    +0.000 C 
ENDBRANCH  18  19
ENDBRANCH  13  18
ENDBRANCH   1  13
BRANCH   1  21
ATOM     21  N   UNL     1      -2.072  12.288  17.522  0.00  0.00    +0.000 NA
ATOM     22  H   UNL     1      -1.627  12.641  16.678  0.00  0.00    +0.000 HD
BRANCH  21  23
ATOM     23  S   UNL     1      -3.004  10.899  17.141  0.00  0.00    +0.000 S 
ATOM     24  O   UNL     1      -2.937  10.811  15.697  0.00  0.00    +0.000 OA
ATOM     25  O   UNL     1      -2.598   9.788  17.955  0.00  0.00    +0.000 OA
BRANCH  23  26
ATOM     26  C   UNL     1      -4.689  11.301  17.554  0.00  0.00    +0.000 A 
ATOM     27  C   UNL     1      -5.279  12.424  16.974  0.00  0.00    +0.000 A 
ATOM     28  C   UNL     1      -6.607  12.736  17.274  0.00  0.00    +0.000 A 
ATOM     29  C   UNL     1      -7.343  11.929  18.145  0.00  0.00    +0.000 A 
ATOM     30  C   UNL     1      -6.762  10.794  18.706  0.00  0.00    +0.000 A 
ATOM     31  C   UNL     1      -5.437  10.466  18.403  0.00  0.00    +0.000 A 
ENDBRANCH  23  26
ENDBRANCH  21  23
ENDBRANCH   1  21
TORSDOF 8
ENDMDL
MODEL 5
REMARK VINA RESULT:      -6.1      2.465      4.894
REMARK  Name = 
REMARK  10 active torsions:
REMARK  status: ('A' for Active; 'I' for Inactive)
REMARK    1  A    between atoms: C_1  and  C_2
REMARK    2  A    between atoms: C_2  and  O_3
REMARK    3  A    between atoms: O_3  and  P_4
REMARK    4  A    between atoms: P_4  and  O_6
REMARK    5  A    between atoms: P_4  and  C_9
REMARK    6  A    between atoms: O_6  and  C_7
REMARK    7  A    between atoms: C_7  and  C_8
REMARK    8  A    between atoms: C_9  and  N_10
REMARK    9  A    between atoms: N_10  and  S_11
REMARK   10  A    between atoms: S_11  and  C_14
REMARK                            x       y       z     vdW  Elec       q    Type
REMARK                         _______ _______ _______ _____ _____    ______ ____
ROOT
ATOM      1  C   UNL     1      -1.567  11.931  19.354  0.00  0.00    +0.000 C 
ATOM      2  C   UNL     1      -2.392  12.722  20.373  0.00  0.00    +0.000 C 
ATOM      3  C   UNL     1      -3.722  12.871  20.341  0.00  0.00    +0.000 C 
ATOM      4 CL   UNL     1      -4.540  13.699  21.615  0.00  0.00    +0.000 Cl
ATOM      5  C   UNL     1      -4.538  12.349  19.217  0.00  0.00    +0.000 C 
ATOM      6  O   UNL     1      -5.746  12.549  19.138  0.00  0.00    +0.000 OA
ATOM      7  C   UNL     1      -3.825  11.594  18.153  0.00  0.00    +0.000 A 
ATOM      8  C   UNL     1      -4.571  11.145  17.054  0.00  0.00    +0.000 A 
ATOM      9  C   UNL     1      -3.945  10.484  15.999  0.00  0.00    +0.000 A 
ATOM     10  C   UNL     1      -2.571  10.262  16.036  0.00  0.00    +0.000 A 
ATOM     11  C   UNL     1      -1.816  10.710  17.121  0.00  0.00    +0.000 A 
ATOM     12  C   UNL     1      -2.431  11.392  18.192  0.00  0.00    +0.000 A 
ENDROOT
BRANCH   1  13
ATOM     13  P   UNL     1      -0.945  10.449  20.228  0.00  0.00    +0.000 P 
ATOM     14  O   UNL     1      -1.024  11.186  21.581  0.00  0.00    +0.000 OA
BRANCH  13  15
ATOM     15  O   UNL     1      -0.356   9.048  21.055  0.00  0.00    +0.000 OA
BRANCH  15  17
ATOM     16  C   UNL     1       1.327   9.164  22.783  0.00  0.00    +0.000 C 
ATOM     17  C   UNL     1      -0.145   9.268  22.453  0.00  0.00    +0.000 C 
ENDBRANCH  15  17
ENDBRANCH  13  15
BRANCH  13  18
ATOM     18  O   UNL     1       0.586  10.655  19.607  0.00  0.00    +0.000 OA
BRANCH  18  19
ATOM     19  C   UNL     1       1.297   9.514  19.143  0.00  0.00    +0.000 C 
ATOM     20  C   UNL     1       1.880   9.810  17.775  0.00  0.00    +0.000 C 
ENDBRANCH  18  19
ENDBRANCH  13  18
ENDBRANCH   1  13
BRANCH   1  21
ATOM     21  N   UNL     1      -0.604  12.949  18.819  0.00  0.00    +0.000 NA
ATOM     22  H   UNL     1      -0.756  13.303  17.878  0.00  0.00    +0.000 HD
BRANCH  21  23
ATOM     23  S   UNL     1      -0.027  14.215  19.822  0.00  0.00    +0.000 S 
ATOM     24  O   UNL     1      -1.148  15.126  19.924  0.00  0.00    +0.000 OA
ATOM     25  O   UNL     1       0.578  13.674  21.008  0.00  0.00    +0.000 OA
BRANCH  23  26
ATOM     26  C   UNL     1       1.236  15.055  18.890  0.00  0.00    +0.000 A 
ATOM     27  C   UNL     1       1.097  16.420  18.638  0.00  0.00    +0.000 A 
ATOM     28  C   UNL     1       2.092  17.093  17.927  0.00  0.00    +0.000 A 
ATOM     29  C   UNL     1       3.223  16.409  17.473  0.00  0.00    +0.000 A 
ATOM     30  C   UNL     1       3.374  15.051  17.746  0.00  0.00    +0.000 A 
ATOM     31  C   UNL     1       2.388  14.370  18.467  0.00  0.00    +0.000 A 
ENDBRANCH  23  26
ENDBRANCH  21  23
ENDBRANCH   1  21
TORSDOF 8
ENDMDL
MODEL 6
REMARK VINA RESULT:      -6.1      2.416      4.828
REMARK  Name = 
REMARK  10 active torsions:
REMARK  status: ('A' for Active; 'I' for Inactive)
REMARK    1  A    between atoms: C_1  and  C_2
REMARK    2  A    between atoms: C_2  and  O_3
REMARK    3  A    between atoms: O_3  and  P_4
REMARK    4  A    between atoms: P_4  and  O_6
REMARK    5  A    between atoms: P_4  and  C_9
REMARK    6  A    between atoms: O_6  and  C_7
REMARK    7  A    between atoms: C_7  and  C_8
REMARK    8  A    between atoms: C_9  and  N_10
REMARK    9  A    between atoms: N_10  and  S_11
REMARK   10  A    between atoms: S_11  and  C_14
REMARK                            x       y       z     vdW  Elec       q    Type
REMARK                         _______ _______ _______ _____ _____    ______ ____
ROOT
ATOM      1  C   UNL     1      -1.864  12.364  19.298  0.00  0.00    +0.000 C 
ATOM      2  C   UNL     1      -2.773  12.994  20.357  0.00  0.00    +0.000 C 
ATOM      3  C   UNL     1      -4.111  12.938  20.359  0.00  0.00    +0.000 C 
ATOM      4 CL   UNL     1      -5.012  13.599  21.673  0.00  0.00    +0.000 Cl
ATOM      5  C   UNL     1      -4.866  12.323  19.240  0.00  0.00    +0.000 C 
ATOM      6  O   UNL     1      -6.093  12.336  19.193  0.00  0.00    +0.000 OA
ATOM      7  C   UNL     1      -4.075  11.712  18.140  0.00  0.00    +0.000 A 
ATOM      8  C   UNL     1      -4.772  11.180  17.046  0.00  0.00    +0.000 A 
ATOM      9  C   UNL     1      -4.080  10.648  15.959  0.00  0.00    +0.000 A 
ATOM     10  C   UNL     1      -2.688  10.640  15.959  0.00  0.00    +0.000 A 
ATOM     11  C   UNL     1      -1.982  11.173  17.039  0.00  0.00    +0.000 A 
ATOM     12  C   UNL     1      -2.666  11.727  18.141  0.00  0.00    +0.000 A 
ENDROOT
BRANCH   1  13
ATOM     13  P   UNL     1      -0.998  10.976  20.117  0.00  0.00    +0.000 P 
ATOM     14  O   UNL     1      -1.009  11.732  21.461  0.00  0.00    +0.000 OA
BRANCH  13  15
ATOM     15  O   UNL     1      -0.180   9.663  20.891  0.00  0.00    +0.000 OA
BRANCH  15  17
ATOM     16  C   UNL     1       0.667   9.318  23.126  0.00  0.00    +0.000 C 
ATOM     17  C   UNL     1      -0.559   9.493  22.260  0.00  0.00    +0.000 C 
ENDBRANCH  15  17
ENDBRANCH  13  15
BRANCH  13  18
ATOM     18  O   UNL     1       0.426  11.325  19.329  0.00  0.00    +0.000 OA
BRANCH  18  19
ATOM     19  C   UNL     1       1.446  10.334  19.286  0.00  0.00    +0.000 C 
ATOM     20  C   UNL     1       1.542   9.777  17.879  0.00  0.00    +0.000 C 
ENDBRANCH  18  19
ENDBRANCH  13  18
ENDBRANCH   1  13
BRANCH   1  21
ATOM     21  N   UNL     1      -1.084  13.531  18.770  0.00  0.00    +0.000 NA
ATOM     22  H   UNL     1      -1.356  13.921  17.871  0.00  0.00    +0.000 HD
BRANCH  21  23
ATOM     23  S   UNL     1      -0.587  14.794  19.818  0.00  0.00    +0.000 S 
ATOM     24  O   UNL     1      -1.828  15.351  20.315  0.00  0.00    +0.000 OA
ATOM     25  O   UNL     1       0.413  14.318  20.733  0.00  0.00    +0.000 OA
BRANCH  23  26
ATOM     26  C   UNL     1       0.157  16.038  18.783  0.00  0.00    +0.000 A 
ATOM     27  C   UNL     1      -0.661  16.995  18.181  0.00  0.00    +0.000 A 
ATOM     28  C   UNL     1      -0.086  17.989  17.385  0.00  0.00    +0.000 A 
ATOM     29  C   UNL     1       1.297  18.030  17.196  0.00  0.00    +0.000 A 
ATOM     30  C   UNL     1       2.117  17.089  17.817  0.00  0.00    +0.000 A 
ATOM     31  C   UNL     1       1.552  16.097  18.625  0.00  0.00    +0.000 A 
ENDBRANCH  23  26
ENDBRANCH  21  23
ENDBRANCH   1  21
TORSDOF 8
ENDMDL
MODEL 7
REMARK VINA RESULT:      -6.1      2.587      4.951
REMARK  Name = 
REMARK  10 active torsions:
REMARK  status: ('A' for Active; 'I' for Inactive)
REMARK    1  A    between atoms: C_1  and  C_2
REMARK    2  A    between atoms: C_2  and  O_3
REMARK    3  A    between atoms: O_3  and  P_4
REMARK    4  A    between atoms: P_4  and  O_6
REMARK    5  A    between atoms: P_4  and  C_9
REMARK    6  A    between atoms: O_6  and  C_7
REMARK    7  A    between atoms: C_7  and  C_8
REMARK    8  A    between atoms: C_9  and  N_10
REMARK    9  A    between atoms: N_10  and  S_11
REMARK   10  A    between atoms: S_11  and  C_14
REMARK                            x       y       z     vdW  Elec       q    Type
REMARK                         _______ _______ _______ _____ _____    ______ ____
ROOT
ATOM      1  C   UNL     1      -1.592  12.785  19.572  0.00  0.00    +0.000 C 
ATOM      2  C   UNL     1      -2.335  13.379  20.772  0.00  0.00    +0.000 C 
ATOM      3  C   UNL     1      -3.639  13.221  21.028  0.00  0.00    +0.000 C 
ATOM      4 CL   UNL     1      -4.329  13.856  22.477  0.00  0.00    +0.000 Cl
ATOM      5  C   UNL     1      -4.538  12.514  20.084  0.00  0.00    +0.000 C 
ATOM      6  O   UNL     1      -5.749  12.432  20.269  0.00  0.00    +0.000 OA
ATOM      7  C   UNL     1      -3.919  11.928  18.865  0.00  0.00    +0.000 A 
ATOM      8  C   UNL     1      -4.763  11.309  17.933  0.00  0.00    +0.000 A 
ATOM      9  C   UNL     1      -4.246  10.796  16.745  0.00  0.00    +0.000 A 
ATOM     10  C   UNL     1      -2.883  10.893  16.481  0.00  0.00    +0.000 A 
ATOM     11  C   UNL     1      -2.033  11.514  17.399  0.00  0.00    +0.000 A 
ATOM     12  C   UNL     1      -2.541  12.050  18.600  0.00  0.00    +0.000 A 
ENDROOT
BRANCH   1  13
ATOM     13  P   UNL     1      -0.479  11.494  20.238  0.00  0.00    +0.000 P 
ATOM     14  O   UNL     1      -0.244  12.324  21.517  0.00  0.00    +0.000 OA
BRANCH  13  15
ATOM     15  O   UNL     1       0.574  10.274  20.868  0.00  0.00    +0.000 OA
BRANCH  15  17
ATOM     16  C   UNL     1       0.116   9.447  23.090  0.00  0.00    +0.000 C 
ATOM     17  C   UNL     1      -0.117   9.263  21.608  0.00  0.00    +0.000 C 
ENDBRANCH  15  17
ENDBRANCH  13  15
BRANCH  13  18
ATOM     18  O   UNL     1       0.713  11.874  19.140  0.00  0.00    +0.000 OA
BRANCH  18  19
ATOM     19  C   UNL     1       1.945  12.399  19.619  0.00  0.00    +0.000 C 
ATOM     20  C   UNL     1       2.660  13.110  18.487  0.00  0.00    +0.000 C 
ENDBRANCH  18  19
ENDBRANCH  13  18
ENDBRANCH   1  13
BRANCH   1  21
ATOM     21  N   UNL     1      -1.020  13.989  18.885  0.00  0.00    +0.000 NA
ATOM     22  H   UNL     1      -1.403  14.249  17.979  0.00  0.00    +0.000 HD
BRANCH  21  23
ATOM     23  S   UNL     1      -0.644  15.405  19.776  0.00  0.00    +0.000 S 
ATOM     24  O   UNL     1      -1.935  15.940  20.156  0.00  0.00    +0.000 OA
ATOM     25  O   UNL     1       0.344  15.115  20.778  0.00  0.00    +0.000 OA
BRANCH  23  26
ATOM     26  C   UNL     1       0.068  16.552  18.614  0.00  0.00    +0.000 A 
ATOM     27  C   UNL     1       1.453  16.580  18.453  0.00  0.00    +0.000 A 
ATOM     28  C   UNL     1       2.020  17.461  17.529  0.00  0.00    +0.000 A 
ATOM     29  C   UNL     1       1.209  18.305  16.767  0.00  0.00    +0.000 A 
ATOM     30  C   UNL     1      -0.176  18.260  16.910  0.00  0.00    +0.000 A 
ATOM     31  C   UNL     1      -0.755  17.374  17.824  0.00  0.00    +0.000 A 
ENDBRANCH  23  26
ENDBRANCH  21  23
ENDBRANCH   1  21
TORSDOF 8
ENDMDL
MODEL 8
REMARK VINA RESULT:      -6.1      1.444      2.417
REMARK  Name = 
REMARK  10 active torsions:
REMARK  status: ('A' for Active; 'I' for Inactive)
REMARK    1  A    between atoms: C_1  and  C_2
REMARK    2  A    between atoms: C_2  and  O_3
REMARK    3  A    between atoms: O_3  and  P_4
REMARK    4  A    between atoms: P_4  and  O_6
REMARK    5  A    between atoms: P_4  and  C_9
REMARK    6  A    between atoms: O_6  and  C_7
REMARK    7  A    between atoms: C_7  and  C_8
REMARK    8  A    between atoms: C_9  and  N_10
REMARK    9  A    between atoms: N_10  and  S_11
REMARK   10  A    between atoms: S_11  and  C_14
REMARK                            x       y       z     vdW  Elec       q    Type
REMARK                         _______ _______ _______ _____ _____    ______ ____
ROOT
ATOM      1  C   UNL     1      -0.310  10.894  19.118  0.00  0.00    +0.000 C 
ATOM      2  C   UNL     1       0.696  10.128  18.254  0.00  0.00    +0.000 C 
ATOM      3  C   UNL     1       1.456   9.110  18.673  0.00  0.00    +0.000 C 
ATOM      4 CL   UNL     1       2.472   8.262  17.566  0.00  0.00    +0.000 Cl
ATOM      5  C   UNL     1       1.468   8.679  20.093  0.00  0.00    +0.000 C 
ATOM      6  O   UNL     1       2.218   7.800  20.505  0.00  0.00    +0.000 OA
ATOM      7  C   UNL     1       0.549   9.386  21.025  0.00  0.00    +0.000 A 
ATOM      8  C   UNL     1       0.590   9.034  22.381  0.00  0.00    +0.000 A 
ATOM      9  C   UNL     1      -0.205   9.704  23.309  0.00  0.00    +0.000 A 
ATOM     10  C   UNL     1      -1.050  10.727  22.889  0.00  0.00    +0.000 A 
ATOM     11  C   UNL     1      -1.095  11.093  21.542  0.00  0.00    +0.000 A 
ATOM     12  C   UNL     1      -0.288  10.434  20.591  0.00  0.00    +0.000 A 
ENDROOT
BRANCH   1  13
ATOM     13  P   UNL     1      -1.972  10.454  18.492  0.00  0.00    +0.000 P 
ATOM     14  O   UNL     1      -1.416  10.289  17.063  0.00  0.00    +0.000 OA
BRANCH  13  15
ATOM     15  O   UNL     1      -3.544  10.038  17.901  0.00  0.00    +0.000 OA
BRANCH  15  17
ATOM     16  C   UNL     1      -4.162  10.977  15.764  0.00  0.00    +0.000 C 
ATOM     17  C   UNL     1      -3.567   9.793  16.492  0.00  0.00    +0.000 C 
ENDBRANCH  15  17
ENDBRANCH  13  15
BRANCH  13  18
ATOM     18  O   UNL     1      -2.515  12.018  18.667  0.00  0.00    +0.000 OA
BRANCH  18  19
ATOM     19  C   UNL     1      -3.805  12.237  19.225  0.00  0.00    +0.000 C 
ATOM     20  C   UNL     1      -3.678  13.137  20.439  0.00  0.00    +0.000 C 
ENDBRANCH  18  19
ENDBRANCH  13  18
ENDBRANCH   1  13
BRANCH   1  21
ATOM     21  N   UNL     1       0.172  12.313  19.039  0.00  0.00    +0.000 NA
ATOM     22  H   UNL     1      -0.392  13.034  19.481  0.00  0.00    +0.000 HD
BRANCH  21  23
ATOM     23  S   UNL     1       1.835  12.681  19.238  0.00  0.00    +0.000 S 
ATOM     24  O   UNL     1       2.061  12.544  20.662  0.00  0.00    +0.000 OA
ATOM     25  O   UNL     1       2.627  11.932  18.302  0.00  0.00    +0.000 OA
BRANCH  23  26
ATOM     26  C   UNL     1       2.013  14.411  18.853  0.00  0.00    +0.000 A 
ATOM     27  C   UNL     1       3.043  14.811  18.001  0.00  0.00    +0.000 A 
ATOM     28  C   UNL     1       3.178  16.163  17.674  0.00  0.00    +0.000 A 
ATOM     29  C   UNL     1       2.289  17.108  18.192  0.00  0.00    +0.000 A 
ATOM     30  C   UNL     1       1.246  16.705  19.023  0.00  0.00    +0.000 A 
ATOM     31  C   UNL     1       1.094  15.353  19.347  0.00  0.00    +0.000 A 
ENDBRANCH  23  26
ENDBRANCH  21  23
ENDBRANCH   1  21
TORSDOF 8
ENDMDL
MODEL 9
REMARK VINA RESULT:      -6.1      2.133      4.850
REMARK  Name = 
REMARK  10 active torsions:
REMARK  status: ('A' for Active; 'I' for Inactive)
REMARK    1  A    between atoms: C_1  and  C_2
REMARK    2  A    between atoms: C_2  and  O_3
REMARK    3  A    between atoms: O_3  and  P_4
REMARK    4  A    between atoms: P_4  and  O_6
REMARK    5  A    between atoms: P_4  and  C_9
REMARK    6  A    between atoms: O_6  and  C_7
REMARK    7  A    between atoms: C_7  and  C_8
REMARK    8  A    between atoms: C_9  and  N_10
REMARK    9  A    between atoms: N_10  and  S_11
REMARK   10  A    between atoms: S_11  and  C_14
REMARK                            x       y       z     vdW  Elec       q    Type
REMARK                         _______ _______ _______ _____ _____    ______ ____
ROOT
ATOM      1  C   UNL     1      -1.275  12.412  18.950  0.00  0.00    +0.000 C 
ATOM      2  C   UNL     1      -1.801  12.822  20.329  0.00  0.00    +0.000 C 
ATOM      3  C   UNL     1      -3.058  12.653  20.756  0.00  0.00    +0.000 C 
ATOM      4 CL   UNL     1      -3.494  13.062  22.375  0.00  0.00    +0.000 Cl
ATOM      5  C   UNL     1      -4.121  12.125  19.865  0.00  0.00    +0.000 C 
ATOM      6  O   UNL     1      -5.292  12.041  20.221  0.00  0.00    +0.000 OA
ATOM      7  C   UNL     1      -3.719  11.729  18.489  0.00  0.00    +0.000 A 
ATOM      8  C   UNL     1      -4.720  11.286  17.614  0.00  0.00    +0.000 A 
ATOM      9  C   UNL     1      -4.411  10.958  16.295  0.00  0.00    +0.000 A 
ATOM     10  C   UNL     1      -3.099  11.067  15.842  0.00  0.00    +0.000 A 
ATOM     11  C   UNL     1      -2.094  11.515  16.701  0.00  0.00    +0.000 A 
ATOM     12  C   UNL     1      -2.391  11.863  18.035  0.00  0.00    +0.000 A 
ENDROOT
BRANCH   1  13
ATOM     13  P   UNL     1      -0.134  11.008  19.227  0.00  0.00    +0.000 P 
ATOM     14  O   UNL     1      -1.316  10.016  19.216  0.00  0.00    +0.000 OA
BRANCH  13  15
ATOM     15  O   UNL     1       0.944   9.680  19.489  0.00  0.00    +0.000 OA
BRANCH  15  17
ATOM     16  C   UNL     1       2.331   7.955  18.524  0.00  0.00    +0.000 C 
ATOM     17  C   UNL     1       1.648   9.286  18.308  0.00  0.00    +0.000 C 
ENDBRANCH  15  17
ENDBRANCH  13  15
BRANCH  13  18
ATOM     18  O   UNL     1       0.146  11.472  20.801  0.00  0.00    +0.000 OA
BRANCH  18  19
ATOM     19  C   UNL     1       0.509  10.480  21.754  0.00  0.00    +0.000 C 
ATOM     20  C   UNL     1      -0.608  10.328  22.767  0.00  0.00    +0.000 C 
ENDBRANCH  18  19
ENDBRANCH  13  18
ENDBRANCH   1  13
BRANCH   1  21
ATOM     21  N   UNL     1      -0.758  13.698  18.378  0.00  0.00    +0.000 NA
ATOM     22  H   UNL     1      -1.422  14.318  17.920  0.00  0.00    +0.000 HD
BRANCH  21  23
ATOM     23  S   UNL     1       0.402  14.630  19.231  0.00  0.00    +0.000 S 
ATOM     24  O   UNL     1      -0.237  14.916  20.499  0.00  0.00    +0.000 OA
ATOM     25  O   UNL     1       1.684  13.982  19.195  0.00  0.00    +0.000 OA
BRANCH  23  26
ATOM     26  C   UNL     1       0.538  16.177  18.361  0.00  0.00    +0.000 A 
ATOM     27  C   UNL     1      -0.620  16.907  18.093  0.00  0.00    +0.000 A 
ATOM     28  C   UNL     1      -0.523  18.133  17.431  0.00  0.00    +0.000 A 
ATOM     29  C   UNL     1       0.724  18.629  17.042  0.00  0.00    +0.000 A 
ATOM     30  C   UNL     1       1.883  17.912  17.331  0.00  0.00    +0.000 A 
ATOM     31  C   UNL     1       1.798  16.689  18.005  0.00  0.00    +0.000 A 
ENDBRANCH  23  26
ENDBRANCH  21  23
ENDBRANCH   1  21
TORSDOF 8
ENDMDL
