MODEL 1
REMARK VINA RESULT:      -8.0      0.000      0.000
REMARK  Name = 
REMARK  7 active torsions:
REMARK  status: ('A' for Active; 'I' for Inactive)
REMARK    1  A    between atoms: C_2  and  C_3
REMARK    2  A    between atoms: C_3  and  N_4
REMARK    3  A    between atoms: C_5  and  S_6
REMARK    4  A    between atoms: S_6  and  C_7
REMARK    5  A    between atoms: C_7  and  C_8
REMARK    6  A    between atoms: N_10  and  C_11
REMARK    7  A    between atoms: C_21  and  C_22
REMARK                            x       y       z     vdW  Elec       q    Type
REMARK                         _______ _______ _______ _____ _____    ______ ____
ROOT
ATOM      1  N   UNL     1       2.591   5.637  19.871  0.00  0.00    +0.000 N 
ATOM      2  C   UNL     1       3.287   5.801  18.673  0.00  0.00    +0.000 A 
ATOM      3  N   UNL     1       3.277   6.885  17.956  0.00  0.00    +0.000 NA
ATOM      4  C   UNL     1       2.523   7.899  18.446  0.00  0.00    +0.000 A 
ATOM      5  S   UNL     1       2.341   9.355  17.577  0.00  0.00    +0.000 S 
ATOM      6  C   UNL     1       1.342  10.025  18.793  0.00  0.00    +0.000 A 
ATOM      7  C   UNL     1       1.194   9.183  19.882  0.00  0.00    +0.000 A 
ATOM      8  C   UNL     1       1.815   7.906  19.627  0.00  0.00    +0.000 A 
ATOM      9  C   UNL     1       1.770   6.660  20.369  0.00  0.00    +0.000 A 
ATOM     10  O   UNL     1       1.011   6.495  21.322  0.00  0.00    +0.000 OA
ENDROOT
BRANCH   7  11
ATOM     11  C   UNL     1       0.473   9.627  21.131  0.00  0.00    +0.000 A 
ATOM     12  C   UNL     1       0.740   9.159  22.402  0.00  0.00    +0.000 A 
ATOM     13  C   UNL     1      -0.098   9.741  23.397  0.00  0.00    +0.000 A 
ATOM     14  C   UNL     1      -0.968  10.659  22.858  0.00  0.00    +0.000 A 
ATOM     15  S   UNL     1      -0.740  10.840  21.172  0.00  0.00    +0.000 S 
ENDBRANCH   7  11
BRANCH   1  16
ATOM     16  C   UNL     1       2.553   4.384  20.630  0.00  0.00    +0.000 C 
BRANCH  16  18
ATOM     17  C   UNL     1       1.487   2.225  19.907  0.00  0.00    +0.000 C 
ATOM     18  C   UNL     1       1.398   3.537  20.170  0.00  0.00    +0.000 C 
ENDBRANCH  16  18
ENDBRANCH   1  16
BRANCH   2  19
ATOM     19  S   UNL     1       4.223   4.432  18.089  0.00  0.00    +0.000 S 
BRANCH  19  20
ATOM     20  C   UNL     1       5.935   5.007  18.165  0.00  0.00    +0.000 C 
BRANCH  20  21
ATOM     21  C   UNL     1       6.673   4.746  16.866  0.00  0.00    +0.000 C 
ATOM     22  O   UNL     1       7.856   4.413  16.855  0.00  0.00    +0.000 OA
ATOM     23  N   UNL     1       5.892   4.958  15.745  0.00  0.00    +0.000 N 
ATOM     24  H   UNL     1       5.113   5.602  15.862  0.00  0.00    +0.000 HD
BRANCH  23  25
ATOM     25  C   UNL     1       6.324   4.711  14.433  0.00  0.00    +0.000 A 
ATOM     26  C   UNL     1       7.416   5.384  13.880  0.00  0.00    +0.000 A 
ATOM     27  C   UNL     1       7.858   5.056  12.598  0.00  0.00    +0.000 A 
ATOM     28  C   UNL     1       7.182   4.092  11.851  0.00  0.00    +0.000 A 
ATOM     29  C   UNL     1       6.078   3.437  12.395  0.00  0.00    +0.000 A 
ATOM     30  C   UNL     1       5.668   3.724  13.697  0.00  0.00    +0.000 A 
ENDBRANCH  23  25
ENDBRANCH  20  21
ENDBRANCH  19  20
ENDBRANCH   2  19
TORSDOF 7
ENDMDL
MODEL 2
REMARK VINA RESULT:      -7.6      0.964      1.317
REMARK  Name = 
REMARK  7 active torsions:
REMARK  status: ('A' for Active; 'I' for Inactive)
REMARK    1  A    between atoms: C_2  and  C_3
REMARK    2  A    between atoms: C_3  and  N_4
REMARK    3  A    between atoms: C_5  and  S_6
REMARK    4  A    between atoms: S_6  and  C_7
REMARK    5  A    between atoms: C_7  and  C_8
REMARK    6  A    between atoms: N_10  and  C_11
REMARK    7  A    between atoms: C_21  and  C_22
REMARK                            x       y       z     vdW  Elec       q    Type
REMARK                         _______ _______ _______ _____ _____    ______ ____
ROOT
ATOM      1  N   UNL     1       2.335   6.189  20.054  0.00  0.00    +0.000 N 
ATOM      2  C   UNL     1       3.051   6.349  18.867  0.00  0.00    +0.000 A 
ATOM      3  N   UNL     1       3.031   7.420  18.131  0.00  0.00    +0.000 NA
ATOM      4  C   UNL     1       2.245   8.426  18.590  0.00  0.00    +0.000 A 
ATOM      5  S   UNL     1       2.048   9.862  17.693  0.00  0.00    +0.000 S 
ATOM      6  C   UNL     1       1.012  10.531  18.878  0.00  0.00    +0.000 A 
ATOM      7  C   UNL     1       0.862   9.704  19.978  0.00  0.00    +0.000 A 
ATOM      8  C   UNL     1       1.515   8.437  19.757  0.00  0.00    +0.000 A 
ATOM      9  C   UNL     1       1.483   7.202  20.519  0.00  0.00    +0.000 A 
ATOM     10  O   UNL     1       0.709   7.036  21.460  0.00  0.00    +0.000 OA
ENDROOT
BRANCH   7  11
ATOM     11  C   UNL     1       0.107  10.153  21.206  0.00  0.00    +0.000 A 
ATOM     12  C   UNL     1       0.219   9.573  22.453  0.00  0.00    +0.000 A 
ATOM     13  C   UNL     1      -0.616  10.190  23.430  0.00  0.00    +0.000 A 
ATOM     14  C   UNL     1      -1.325  11.242  22.903  0.00  0.00    +0.000 A 
ATOM     15  S   UNL     1      -0.951  11.503  21.254  0.00  0.00    +0.000 S 
ENDBRANCH   7  11
BRANCH   1  16
ATOM     16  C   UNL     1       2.311   4.949  20.834  0.00  0.00    +0.000 C 
BRANCH  16  18
ATOM     17  C   UNL     1       0.920   3.367  19.461  0.00  0.00    +0.000 C 
ATOM     18  C   UNL     1       1.060   4.171  20.525  0.00  0.00    +0.000 C 
ENDBRANCH  16  18
ENDBRANCH   1  16
BRANCH   2  19
ATOM     19  S   UNL     1       4.028   4.991  18.325  0.00  0.00    +0.000 S 
BRANCH  19  20
ATOM     20  C   UNL     1       5.571   5.754  17.775  0.00  0.00    +0.000 C 
BRANCH  20  21
ATOM     21  C   UNL     1       5.682   5.771  16.263  0.00  0.00    +0.000 C 
ATOM     22  O   UNL     1       5.249   6.709  15.597  0.00  0.00    +0.000 OA
ATOM     23  N   UNL     1       6.270   4.631  15.747  0.00  0.00    +0.000 N 
ATOM     24  H   UNL     1       6.200   3.795  16.324  0.00  0.00    +0.000 HD
BRANCH  23  25
ATOM     25  C   UNL     1       6.552   4.444  14.386  0.00  0.00    +0.000 A 
ATOM     26  C   UNL     1       5.841   3.526  13.608  0.00  0.00    +0.000 A 
ATOM     27  C   UNL     1       6.105   3.423  12.241  0.00  0.00    +0.000 A 
ATOM     28  C   UNL     1       7.108   4.200  11.662  0.00  0.00    +0.000 A 
ATOM     29  C   UNL     1       7.833   5.098  12.445  0.00  0.00    +0.000 A 
ATOM     30  C   UNL     1       7.534   5.243  13.800  0.00  0.00    +0.000 A 
ENDBRANCH  23  25
ENDBRANCH  20  21
ENDBRANCH  19  20
ENDBRANCH   2  19
TORSDOF 7
ENDMDL
MODEL 3
REMARK VINA RESULT:      -7.3      4.796      7.069
REMARK  Name = 
REMARK  7 active torsions:
REMARK  status: ('A' for Active; 'I' for Inactive)
REMARK    1  A    between atoms: C_2  and  C_3
REMARK    2  A    between atoms: C_3  and  N_4
REMARK    3  A    between atoms: C_5  and  S_6
REMARK    4  A    between atoms: S_6  and  C_7
REMARK    5  A    between atoms: C_7  and  C_8
REMARK    6  A    between atoms: N_10  and  C_11
REMARK    7  A    between atoms: C_21  and  C_22
REMARK                            x       y       z     vdW  Elec       q    Type
REMARK                         _______ _______ _______ _____ _____    ______ ____
ROOT
ATOM      1  N   UNL     1      -1.407  11.979  19.619  0.00  0.00    +0.000 N 
ATOM      2  C   UNL     1      -0.586  11.351  18.683  0.00  0.00    +0.000 A 
ATOM      3  N   UNL     1      -0.998  10.848  17.557  0.00  0.00    +0.000 NA
ATOM      4  C   UNL     1      -2.329  10.966  17.322  0.00  0.00    +0.000 A 
ATOM      5  S   UNL     1      -3.036  10.281  15.929  0.00  0.00    +0.000 S 
ATOM      6  C   UNL     1      -4.589  10.849  16.366  0.00  0.00    +0.000 A 
ATOM      7  C   UNL     1      -4.570  11.606  17.525  0.00  0.00    +0.000 A 
ATOM      8  C   UNL     1      -3.258  11.591  18.124  0.00  0.00    +0.000 A 
ATOM      9  C   UNL     1      -2.792  12.069  19.412  0.00  0.00    +0.000 A 
ATOM     10  O   UNL     1      -3.569  12.457  20.283  0.00  0.00    +0.000 OA
ENDROOT
BRANCH   7  11
ATOM     11  C   UNL     1      -5.803  12.325  18.018  0.00  0.00    +0.000 A 
ATOM     12  C   UNL     1      -6.408  12.102  19.238  0.00  0.00    +0.000 A 
ATOM     13  C   UNL     1      -7.562  12.913  19.443  0.00  0.00    +0.000 A 
ATOM     14  C   UNL     1      -7.790  13.753  18.379  0.00  0.00    +0.000 A 
ATOM     15  S   UNL     1      -6.596  13.586  17.166  0.00  0.00    +0.000 S 
ENDBRANCH   7  11
BRANCH   1  16
ATOM     16  C   UNL     1      -0.939  12.475  20.916  0.00  0.00    +0.000 C 
BRANCH  16  18
ATOM     17  C   UNL     1      -1.649  11.391  23.070  0.00  0.00    +0.000 C 
ATOM     18  C   UNL     1      -0.948  11.361  21.927  0.00  0.00    +0.000 C 
ENDBRANCH  16  18
ENDBRANCH   1  16
BRANCH   2  19
ATOM     19  S   UNL     1       1.123  11.215  19.071  0.00  0.00    +0.000 S 
BRANCH  19  20
ATOM     20  C   UNL     1       1.305   9.517  19.664  0.00  0.00    +0.000 C 
BRANCH  20  21
ATOM     21  C   UNL     1       1.883   8.608  18.597  0.00  0.00    +0.000 C 
ATOM     22  O   UNL     1       1.937   8.954  17.418  0.00  0.00    +0.000 OA
ATOM     23  N   UNL     1       2.289   7.381  19.088  0.00  0.00    +0.000 N 
ATOM     24  H   UNL     1       1.829   7.071  19.942  0.00  0.00    +0.000 HD
BRANCH  23  25
ATOM     25  C   UNL     1       2.924   6.400  18.314  0.00  0.00    +0.000 A 
ATOM     26  C   UNL     1       4.178   6.617  17.738  0.00  0.00    +0.000 A 
ATOM     27  C   UNL     1       4.808   5.588  17.035  0.00  0.00    +0.000 A 
ATOM     28  C   UNL     1       4.165   4.361  16.868  0.00  0.00    +0.000 A 
ATOM     29  C   UNL     1       2.903   4.154  17.424  0.00  0.00    +0.000 A 
ATOM     30  C   UNL     1       2.296   5.162  18.173  0.00  0.00    +0.000 A 
ENDBRANCH  23  25
ENDBRANCH  20  21
ENDBRANCH  19  20
ENDBRANCH   2  19
TORSDOF 7
ENDMDL
MODEL 4
REMARK VINA RESULT:      -7.3      4.609      7.189
REMARK  Name = 
REMARK  7 active torsions:
REMARK  status: ('A' for Active; 'I' for Inactive)
REMARK    1  A    between atoms: C_2  and  C_3
REMARK    2  A    between atoms: C_3  and  N_4
REMARK    3  A    between atoms: C_5  and  S_6
REMARK    4  A    between atoms: S_6  and  C_7
REMARK    5  A    between atoms: C_7  and  C_8
REMARK    6  A    between atoms: N_10  and  C_11
REMARK    7  A    between atoms: C_21  and  C_22
REMARK                            x       y       z     vdW  Elec       q    Type
REMARK                         _______ _______ _______ _____ _____    ______ ____
ROOT
ATOM      1  N   UNL     1      -2.378  10.752  18.277  0.00  0.00    +0.000 N 
ATOM      2  C   UNL     1      -1.110  10.896  18.840  0.00  0.00    +0.000 A 
ATOM      3  N   UNL     1      -0.811  11.740  19.782  0.00  0.00    +0.000 NA
ATOM      4  C   UNL     1      -1.837  12.516  20.213  0.00  0.00    +0.000 A 
ATOM      5  S   UNL     1      -1.584  13.730  21.383  0.00  0.00    +0.000 S 
ATOM      6  C   UNL     1      -3.235  14.177  21.362  0.00  0.00    +0.000 A 
ATOM      7  C   UNL     1      -3.990  13.375  20.525  0.00  0.00    +0.000 A 
ATOM      8  C   UNL     1      -3.146  12.466  19.789  0.00  0.00    +0.000 A 
ATOM      9  C   UNL     1      -3.439  11.578  18.680  0.00  0.00    +0.000 A 
ATOM     10  O   UNL     1      -4.519  11.602  18.093  0.00  0.00    +0.000 OA
ENDROOT
BRANCH   7  11
ATOM     11  C   UNL     1      -5.494  13.497  20.459  0.00  0.00    +0.000 A 
ATOM     12  C   UNL     1      -6.378  12.704  21.161  0.00  0.00    +0.000 A 
ATOM     13  C   UNL     1      -7.742  13.030  20.903  0.00  0.00    +0.000 A 
ATOM     14  C   UNL     1      -7.858  14.082  20.028  0.00  0.00    +0.000 A 
ATOM     15  S   UNL     1      -6.331  14.692  19.557  0.00  0.00    +0.000 S 
ENDBRANCH   7  11
BRANCH   1  16
ATOM     16  C   UNL     1      -2.682   9.847  17.166  0.00  0.00    +0.000 C 
BRANCH  16  18
ATOM     17  C   UNL     1      -3.045  10.145  14.696  0.00  0.00    +0.000 C 
ATOM     18  C   UNL     1      -2.517  10.566  15.855  0.00  0.00    +0.000 C 
ENDBRANCH  16  18
ENDBRANCH   1  16
BRANCH   2  19
ATOM     19  S   UNL     1       0.173   9.872  18.210  0.00  0.00    +0.000 S 
BRANCH  19  20
ATOM     20  C   UNL     1       1.196   9.511  19.656  0.00  0.00    +0.000 C 
BRANCH  20  21
ATOM     21  C   UNL     1       1.807   8.125  19.580  0.00  0.00    +0.000 C 
ATOM     22  O   UNL     1       1.840   7.382  20.559  0.00  0.00    +0.000 OA
ATOM     23  N   UNL     1       2.333   7.830  18.336  0.00  0.00    +0.000 N 
ATOM     24  H   UNL     1       2.612   8.629  17.771  0.00  0.00    +0.000 HD
BRANCH  23  25
ATOM     25  C   UNL     1       2.883   6.586  17.994  0.00  0.00    +0.000 A 
ATOM     26  C   UNL     1       2.125   5.413  18.031  0.00  0.00    +0.000 A 
ATOM     27  C   UNL     1       2.690   4.206  17.613  0.00  0.00    +0.000 A 
ATOM     28  C   UNL     1       4.023   4.164  17.205  0.00  0.00    +0.000 A 
ATOM     29  C   UNL     1       4.785   5.331  17.191  0.00  0.00    +0.000 A 
ATOM     30  C   UNL     1       4.206   6.547  17.555  0.00  0.00    +0.000 A 
ENDBRANCH  23  25
ENDBRANCH  20  21
ENDBRANCH  19  20
ENDBRANCH   2  19
TORSDOF 7
ENDMDL
MODEL 5
REMARK VINA RESULT:      -7.2      4.501      7.054
REMARK  Name = 
REMARK  7 active torsions:
REMARK  status: ('A' for Active; 'I' for Inactive)
REMARK    1  A    between atoms: C_2  and  C_3
REMARK    2  A    between atoms: C_3  and  N_4
REMARK    3  A    between atoms: C_5  and  S_6
REMARK    4  A    between atoms: S_6  and  C_7
REMARK    5  A    between atoms: C_7  and  C_8
REMARK    6  A    between atoms: N_10  and  C_11
REMARK    7  A    between atoms: C_21  and  C_22
REMARK                            x       y       z     vdW  Elec       q    Type
REMARK                         _______ _______ _______ _____ _____    ______ ____
ROOT
ATOM      1  N   UNL     1      -0.547  11.788  19.656  0.00  0.00    +0.000 N 
ATOM      2  C   UNL     1       0.273  11.169  20.600  0.00  0.00    +0.000 A 
ATOM      3  N   UNL     1       1.332  11.709  21.126  0.00  0.00    +0.000 NA
ATOM      4  C   UNL     1       1.619  12.963  20.696  0.00  0.00    +0.000 A 
ATOM      5  S   UNL     1       3.023  13.771  21.229  0.00  0.00    +0.000 S 
ATOM      6  C   UNL     1       2.647  15.159  20.302  0.00  0.00    +0.000 A 
ATOM      7  C   UNL     1       1.437  15.043  19.640  0.00  0.00    +0.000 A 
ATOM      8  C   UNL     1       0.889  13.719  19.806  0.00  0.00    +0.000 A 
ATOM      9  C   UNL     1      -0.238  13.067  19.167  0.00  0.00    +0.000 A 
ATOM     10  O   UNL     1      -0.832  13.573  18.217  0.00  0.00    +0.000 OA
ENDROOT
BRANCH   7  11
ATOM     11  C   UNL     1       0.839  16.201  18.879  0.00  0.00    +0.000 A 
ATOM     12  C   UNL     1       1.464  16.869  17.845  0.00  0.00    +0.000 A 
ATOM     13  C   UNL     1       0.675  17.929  17.311  0.00  0.00    +0.000 A 
ATOM     14  C   UNL     1      -0.544  18.025  17.940  0.00  0.00    +0.000 A 
ATOM     15  S   UNL     1      -0.742  16.816  19.134  0.00  0.00    +0.000 S 
ENDBRANCH   7  11
BRANCH   1  16
ATOM     16  C   UNL     1      -1.695  11.138  19.018  0.00  0.00    +0.000 C 
BRANCH  16  18
ATOM     17  C   UNL     1      -2.035   9.913  16.849  0.00  0.00    +0.000 C 
ATOM     18  C   UNL     1      -1.234  10.311  17.850  0.00  0.00    +0.000 C 
ENDBRANCH  16  18
ENDBRANCH   1  16
BRANCH   2  19
ATOM     19  S   UNL     1      -0.151   9.534  21.089  0.00  0.00    +0.000 S 
BRANCH  19  20
ATOM     20  C   UNL     1       1.445   8.718  21.321  0.00  0.00    +0.000 C 
BRANCH  20  21
ATOM     21  C   UNL     1       1.871   7.956  20.081  0.00  0.00    +0.000 C 
ATOM     22  O   UNL     1       1.855   8.479  18.968  0.00  0.00    +0.000 OA
ATOM     23  N   UNL     1       2.227   6.646  20.342  0.00  0.00    +0.000 N 
ATOM     24  H   UNL     1       1.817   6.233  21.176  0.00  0.00    +0.000 HD
BRANCH  23  25
ATOM     25  C   UNL     1       2.729   5.764  19.374  0.00  0.00    +0.000 A 
ATOM     26  C   UNL     1       4.101   5.577  19.191  0.00  0.00    +0.000 A 
ATOM     27  C   UNL     1       4.557   4.635  18.267  0.00  0.00    +0.000 A 
ATOM     28  C   UNL     1       3.645   3.917  17.493  0.00  0.00    +0.000 A 
ATOM     29  C   UNL     1       2.276   4.122  17.660  0.00  0.00    +0.000 A 
ATOM     30  C   UNL     1       1.817   5.022  18.622  0.00  0.00    +0.000 A 
ENDBRANCH  23  25
ENDBRANCH  20  21
ENDBRANCH  19  20
ENDBRANCH   2  19
TORSDOF 7
ENDMDL
MODEL 6
REMARK VINA RESULT:      -7.2      4.774      7.197
REMARK  Name = 
REMARK  7 active torsions:
REMARK  status: ('A' for Active; 'I' for Inactive)
REMARK    1  A    between atoms: C_2  and  C_3
REMARK    2  A    between atoms: C_3  and  N_4
REMARK    3  A    between atoms: C_5  and  S_6
REMARK    4  A    between atoms: S_6  and  C_7
REMARK    5  A    between atoms: C_7  and  C_8
REMARK    6  A    between atoms: N_10  and  C_11
REMARK    7  A    between atoms: C_21  and  C_22
REMARK                            x       y       z     vdW  Elec       q    Type
REMARK                         _______ _______ _______ _____ _____    ______ ____
ROOT
ATOM      1  N   UNL     1      -1.441  12.181  20.024  0.00  0.00    +0.000 N 
ATOM      2  C   UNL     1      -0.839  11.582  18.918  0.00  0.00    +0.000 A 
ATOM      3  N   UNL     1      -1.476  11.174  17.861  0.00  0.00    +0.000 NA
ATOM      4  C   UNL     1      -2.819  11.365  17.883  0.00  0.00    +0.000 A 
ATOM      5  S   UNL     1      -3.804  10.805  16.608  0.00  0.00    +0.000 S 
ATOM      6  C   UNL     1      -5.219  11.409  17.357  0.00  0.00    +0.000 A 
ATOM      7  C   UNL     1      -4.947  12.086  18.533  0.00  0.00    +0.000 A 
ATOM      8  C   UNL     1      -3.551  11.974  18.877  0.00  0.00    +0.000 A 
ATOM      9  C   UNL     1      -2.833  12.345  20.082  0.00  0.00    +0.000 A 
ATOM     10  O   UNL     1      -3.415  12.707  21.103  0.00  0.00    +0.000 OA
ENDROOT
BRANCH   7  11
ATOM     11  C   UNL     1      -6.028  12.824  19.287  0.00  0.00    +0.000 A 
ATOM     12  C   UNL     1      -6.456  14.103  18.996  0.00  0.00    +0.000 A 
ATOM     13  C   UNL     1      -7.482  14.559  19.874  0.00  0.00    +0.000 A 
ATOM     14  C   UNL     1      -7.826  13.601  20.798  0.00  0.00    +0.000 A 
ATOM     15  S   UNL     1      -6.942  12.154  20.575  0.00  0.00    +0.000 S 
ENDBRANCH   7  11
BRANCH   1  16
ATOM     16  C   UNL     1      -0.717  12.570  21.238  0.00  0.00    +0.000 C 
BRANCH  16  18
ATOM     17  C   UNL     1      -1.342  11.024  23.120  0.00  0.00    +0.000 C 
ATOM     18  C   UNL     1      -0.515  11.370  22.123  0.00  0.00    +0.000 C 
ENDBRANCH  16  18
ENDBRANCH   1  16
BRANCH   2  19
ATOM     19  S   UNL     1       0.902  11.346  18.975  0.00  0.00    +0.000 S 
BRANCH  19  20
ATOM     20  C   UNL     1       1.096   9.640  19.537  0.00  0.00    +0.000 C 
BRANCH  20  21
ATOM     21  C   UNL     1       1.804   8.785  18.503  0.00  0.00    +0.000 C 
ATOM     22  O   UNL     1       1.872   9.126  17.324  0.00  0.00    +0.000 OA
ATOM     23  N   UNL     1       2.308   7.607  19.023  0.00  0.00    +0.000 N 
ATOM     24  H   UNL     1       1.846   7.259  19.861  0.00  0.00    +0.000 HD
BRANCH  23  25
ATOM     25  C   UNL     1       3.067   6.688  18.285  0.00  0.00    +0.000 A 
ATOM     26  C   UNL     1       2.696   5.345  18.179  0.00  0.00    +0.000 A 
ATOM     27  C   UNL     1       3.439   4.480  17.375  0.00  0.00    +0.000 A 
ATOM     28  C   UNL     1       4.578   4.943  16.717  0.00  0.00    +0.000 A 
ATOM     29  C   UNL     1       4.961   6.278  16.842  0.00  0.00    +0.000 A 
ATOM     30  C   UNL     1       4.188   7.157  17.600  0.00  0.00    +0.000 A 
ENDBRANCH  23  25
ENDBRANCH  20  21
ENDBRANCH  19  20
ENDBRANCH   2  19
TORSDOF 7
ENDMDL
MODEL 7
REMARK VINA RESULT:      -7.1      4.600      7.130
REMARK  Name = 
REMARK  7 active torsions:
REMARK  status: ('A' for Active; 'I' for Inactive)
REMARK    1  A    between atoms: C_2  and  C_3
REMARK    2  A    between atoms: C_3  and  N_4
REMARK    3  A    between atoms: C_5  and  S_6
REMARK    4  A    between atoms: S_6  and  C_7
REMARK    5  A    between atoms: C_7  and  C_8
REMARK    6  A    between atoms: N_10  and  C_11
REMARK    7  A    between atoms: C_21  and  C_22
REMARK                            x       y       z     vdW  Elec       q    Type
REMARK                         _______ _______ _______ _____ _____    ______ ____
ROOT
ATOM      1  N   UNL     1      -1.207  11.859  19.761  0.00  0.00    +0.000 N 
ATOM      2  C   UNL     1      -0.439  11.179  18.816  0.00  0.00    +0.000 A 
ATOM      3  N   UNL     1      -0.904  10.667  17.716  0.00  0.00    +0.000 NA
ATOM      4  C   UNL     1      -2.236  10.829  17.518  0.00  0.00    +0.000 A 
ATOM      5  S   UNL     1      -3.010  10.140  16.164  0.00  0.00    +0.000 S 
ATOM      6  C   UNL     1      -4.528  10.775  16.634  0.00  0.00    +0.000 A 
ATOM      7  C   UNL     1      -4.445  11.557  17.772  0.00  0.00    +0.000 A 
ATOM      8  C   UNL     1      -3.116  11.507  18.332  0.00  0.00    +0.000 A 
ATOM      9  C   UNL     1      -2.594  11.997  19.593  0.00  0.00    +0.000 A 
ATOM     10  O   UNL     1      -3.328  12.433  20.478  0.00  0.00    +0.000 OA
ENDROOT
BRANCH   7  11
ATOM     11  C   UNL     1      -5.634  12.334  18.285  0.00  0.00    +0.000 A 
ATOM     12  C   UNL     1      -6.166  13.451  17.674  0.00  0.00    +0.000 A 
ATOM     13  C   UNL     1      -7.281  13.991  18.379  0.00  0.00    +0.000 A 
ATOM     14  C   UNL     1      -7.583  13.254  19.498  0.00  0.00    +0.000 A 
ATOM     15  S   UNL     1      -6.552  11.900  19.668  0.00  0.00    +0.000 S 
ENDBRANCH   7  11
BRANCH   1  16
ATOM     16  C   UNL     1      -0.681  12.367  21.031  0.00  0.00    +0.000 C 
BRANCH  16  18
ATOM     17  C   UNL     1      -1.399  11.214  23.147  0.00  0.00    +0.000 C 
ATOM     18  C   UNL     1      -0.631  11.260  22.048  0.00  0.00    +0.000 C 
ENDBRANCH  16  18
ENDBRANCH   1  16
BRANCH   2  19
ATOM     19  S   UNL     1       1.276  10.988  19.156  0.00  0.00    +0.000 S 
BRANCH  19  20
ATOM     20  C   UNL     1       1.819   9.730  17.978  0.00  0.00    +0.000 C 
BRANCH  20  21
ATOM     21  C   UNL     1       2.045   8.390  18.651  0.00  0.00    +0.000 C 
ATOM     22  O   UNL     1       1.693   8.186  19.811  0.00  0.00    +0.000 OA
ATOM     23  N   UNL     1       2.702   7.480  17.844  0.00  0.00    +0.000 N 
ATOM     24  H   UNL     1       3.284   7.877  17.109  0.00  0.00    +0.000 HD
BRANCH  23  25
ATOM     25  C   UNL     1       2.957   6.151  18.211  0.00  0.00    +0.000 A 
ATOM     26  C   UNL     1       4.109   5.792  18.917  0.00  0.00    +0.000 A 
ATOM     27  C   UNL     1       4.289   4.470  19.327  0.00  0.00    +0.000 A 
ATOM     28  C   UNL     1       3.345   3.500  18.992  0.00  0.00    +0.000 A 
ATOM     29  C   UNL     1       2.208   3.854  18.267  0.00  0.00    +0.000 A 
ATOM     30  C   UNL     1       1.999   5.185  17.904  0.00  0.00    +0.000 A 
ENDBRANCH  23  25
ENDBRANCH  20  21
ENDBRANCH  19  20
ENDBRANCH   2  19
TORSDOF 7
ENDMDL
MODEL 8
REMARK VINA RESULT:      -7.1      4.569      8.003
REMARK  Name = 
REMARK  7 active torsions:
REMARK  status: ('A' for Active; 'I' for Inactive)
REMARK    1  A    between atoms: C_2  and  C_3
REMARK    2  A    between atoms: C_3  and  N_4
REMARK    3  A    between atoms: C_5  and  S_6
REMARK    4  A    between atoms: S_6  and  C_7
REMARK    5  A    between atoms: C_7  and  C_8
REMARK    6  A    between atoms: N_10  and  C_11
REMARK    7  A    between atoms: C_21  and  C_22
REMARK                            x       y       z     vdW  Elec       q    Type
REMARK                         _______ _______ _______ _____ _____    ______ ____
ROOT
ATOM      1  N   UNL     1      -1.362  11.872  20.182  0.00  0.00    +0.000 N 
ATOM      2  C   UNL     1      -0.735  11.683  21.414  0.00  0.00    +0.000 A 
ATOM      3  N   UNL     1      -1.306  11.863  22.568  0.00  0.00    +0.000 NA
ATOM      4  C   UNL     1      -2.601  12.264  22.519  0.00  0.00    +0.000 A 
ATOM      5  S   UNL     1      -3.460  12.624  23.948  0.00  0.00    +0.000 S 
ATOM      6  C   UNL     1      -4.879  13.001  23.069  0.00  0.00    +0.000 A 
ATOM      7  C   UNL     1      -4.730  12.797  21.709  0.00  0.00    +0.000 A 
ATOM      8  C   UNL     1      -3.365  12.454  21.390  0.00  0.00    +0.000 A 
ATOM      9  C   UNL     1      -2.687  12.330  20.114  0.00  0.00    +0.000 A 
ATOM     10  O   UNL     1      -3.215  12.673  19.058  0.00  0.00    +0.000 OA
ENDROOT
BRANCH   7  11
ATOM     11  C   UNL     1      -5.895  12.929  20.758  0.00  0.00    +0.000 A 
ATOM     12  C   UNL     1      -6.568  11.869  20.186  0.00  0.00    +0.000 A 
ATOM     13  C   UNL     1      -7.622  12.281  19.320  0.00  0.00    +0.000 A 
ATOM     14  C   UNL     1      -7.738  13.650  19.274  0.00  0.00    +0.000 A 
ATOM     15  S   UNL     1      -6.609  14.421  20.301  0.00  0.00    +0.000 S 
ENDBRANCH   7  11
BRANCH   1  16
ATOM     16  C   UNL     1      -0.683  11.736  18.890  0.00  0.00    +0.000 C 
BRANCH  16  18
ATOM     17  C   UNL     1       0.301   9.614  17.968  0.00  0.00    +0.000 C 
ATOM     18  C   UNL     1      -0.754  10.309  18.419  0.00  0.00    +0.000 C 
ENDBRANCH  16  18
ENDBRANCH   1  16
BRANCH   2  19
ATOM     19  S   UNL     1       0.951  11.187  21.394  0.00  0.00    +0.000 S 
BRANCH  19  20
ATOM     20  C   UNL     1       0.973   9.667  22.372  0.00  0.00    +0.000 C 
BRANCH  20  21
ATOM     21  C   UNL     1       0.749   8.441  21.509  0.00  0.00    +0.000 C 
ATOM     22  O   UNL     1      -0.381   8.070  21.199  0.00  0.00    +0.000 OA
ATOM     23  N   UNL     1       1.923   7.798  21.162  0.00  0.00    +0.000 N 
ATOM     24  H   UNL     1       2.710   7.941  21.791  0.00  0.00    +0.000 HD
BRANCH  23  25
ATOM     25  C   UNL     1       1.983   6.687  20.308  0.00  0.00    +0.000 A 
ATOM     26  C   UNL     1       1.561   5.421  20.719  0.00  0.00    +0.000 A 
ATOM     27  C   UNL     1       1.569   4.358  19.815  0.00  0.00    +0.000 A 
ATOM     28  C   UNL     1       2.043   4.548  18.517  0.00  0.00    +0.000 A 
ATOM     29  C   UNL     1       2.487   5.807  18.115  0.00  0.00    +0.000 A 
ATOM     30  C   UNL     1       2.428   6.884  19.000  0.00  0.00    +0.000 A 
ENDBRANCH  23  25
ENDBRANCH  20  21
ENDBRANCH  19  20
ENDBRANCH   2  19
TORSDOF 7
ENDMDL
MODEL 9
REMARK VINA RESULT:      -7.0      4.318      7.121
REMARK  Name = 
REMARK  7 active torsions:
REMARK  status: ('A' for Active; 'I' for Inactive)
REMARK    1  A    between atoms: C_2  and  C_3
REMARK    2  A    between atoms: C_3  and  N_4
REMARK    3  A    between atoms: C_5  and  S_6
REMARK    4  A    between atoms: S_6  and  C_7
REMARK    5  A    between atoms: C_7  and  C_8
REMARK    6  A    between atoms: N_10  and  C_11
REMARK    7  A    between atoms: C_21  and  C_22
REMARK                            x       y       z     vdW  Elec       q    Type
REMARK                         _______ _______ _______ _____ _____    ______ ____
ROOT
ATOM      1  N   UNL     1      -1.642  11.563  18.992  0.00  0.00    +0.000 N 
ATOM      2  C   UNL     1      -0.545  11.386  19.836  0.00  0.00    +0.000 A 
ATOM      3  N   UNL     1      -0.536  11.673  21.104  0.00  0.00    +0.000 NA
ATOM      4  C   UNL     1      -1.695  12.178  21.594  0.00  0.00    +0.000 A 
ATOM      5  S   UNL     1      -1.813  12.683  23.218  0.00  0.00    +0.000 S 
ATOM      6  C   UNL     1      -3.452  13.132  23.022  0.00  0.00    +0.000 A 
ATOM      7  C   UNL     1      -3.931  12.846  21.756  0.00  0.00    +0.000 A 
ATOM      8  C   UNL     1      -2.870  12.373  20.902  0.00  0.00    +0.000 A 
ATOM      9  C   UNL     1      -2.833  12.127  19.472  0.00  0.00    +0.000 A 
ATOM     10  O   UNL     1      -3.756  12.457  18.730  0.00  0.00    +0.000 OA
ENDROOT
BRANCH   7  11
ATOM     11  C   UNL     1      -5.389  13.026  21.404  0.00  0.00    +0.000 A 
ATOM     12  C   UNL     1      -6.263  11.996  21.125  0.00  0.00    +0.000 A 
ATOM     13  C   UNL     1      -7.578  12.452  20.815  0.00  0.00    +0.000 A 
ATOM     14  C   UNL     1      -7.674  13.821  20.890  0.00  0.00    +0.000 A 
ATOM     15  S   UNL     1      -6.198  14.539  21.371  0.00  0.00    +0.000 S 
ENDBRANCH   7  11
BRANCH   1  16
ATOM     16  C   UNL     1      -1.613  11.304  17.550  0.00  0.00    +0.000 C 
BRANCH  16  18
ATOM     17  C   UNL     1      -2.988   9.726  16.156  0.00  0.00    +0.000 C 
ATOM     18  C   UNL     1      -2.258   9.977  17.253  0.00  0.00    +0.000 C 
ENDBRANCH  16  18
ENDBRANCH   1  16
BRANCH   2  19
ATOM     19  S   UNL     1       0.930  10.750  19.121  0.00  0.00    +0.000 S 
BRANCH  19  20
ATOM     20  C   UNL     1       1.147   9.144  19.921  0.00  0.00    +0.000 C 
BRANCH  20  21
ATOM     21  C   UNL     1       1.934   8.184  19.050  0.00  0.00    +0.000 C 
ATOM     22  O   UNL     1       2.356   8.518  17.944  0.00  0.00    +0.000 OA
ATOM     23  N   UNL     1       2.079   6.930  19.614  0.00  0.00    +0.000 N 
ATOM     24  H   UNL     1       1.368   6.664  20.291  0.00  0.00    +0.000 HD
BRANCH  23  25
ATOM     25  C   UNL     1       2.830   5.896  19.037  0.00  0.00    +0.000 A 
ATOM     26  C   UNL     1       4.126   5.601  19.468  0.00  0.00    +0.000 A 
ATOM     27  C   UNL     1       4.811   4.516  18.918  0.00  0.00    +0.000 A 
ATOM     28  C   UNL     1       4.222   3.757  17.908  0.00  0.00    +0.000 A 
ATOM     29  C   UNL     1       2.938   4.066  17.462  0.00  0.00    +0.000 A 
ATOM     30  C   UNL     1       2.230   5.116  18.049  0.00  0.00    +0.000 A 
ENDBRANCH  23  25
ENDBRANCH  20  21
ENDBRANCH  19  20
ENDBRANCH   2  19
TORSDOF 7
ENDMDL
