MODEL 1
REMARK VINA RESULT:      -7.9      0.000      0.000
REMARK  Name = 
REMARK  4 active torsions:
REMARK  status: ('A' for Active; 'I' for Inactive)
REMARK    1  A    between atoms: C_1  and  C_2
REMARK    2  A    between atoms: C_7  and  C_8
REMARK    3  A    between atoms: C_8  and  C_10
REMARK    4  A    between atoms: C_10  and  C_11
REMARK                            x       y       z     vdW  Elec       q    Type
REMARK                         _______ _______ _______ _____ _____    ______ ____
ROOT
ATOM      1  C   UNL     1       2.867   6.252  18.442  0.00  0.00    +0.000 C 
ATOM      2  O   UNL     1       2.183   7.092  19.030  0.00  0.00    +0.000 OA
ENDROOT
BRANCH   1   9
ATOM      3  C   UNL     1       2.164   2.977  22.135  0.00  0.00    +0.000 C 
ATOM      4  C   UNL     1       2.295   3.106  20.619  0.00  0.00    +0.000 C 
ATOM      5  C   UNL     1       0.998   2.669  19.930  0.00  0.00    +0.000 C 
ATOM      6  C   UNL     1       1.128   2.752  18.421  0.00  0.00    +0.000 C 
ATOM      7  C   UNL     1       1.540   4.141  17.993  0.00  0.00    +0.000 C 
ATOM      8  O   UNL     1       1.045   4.643  16.986  0.00  0.00    +0.000 OA
ATOM      9  C   UNL     1       2.724   4.761  18.715  0.00  0.00    +0.000 C 
ATOM     10  C   UNL     1       2.634   4.551  20.231  0.00  0.00    +0.000 C 
ENDBRANCH   1   9
BRANCH   1  11
ATOM     11  C   UNL     1       3.934   6.692  17.450  0.00  0.00    +0.000 C 
BRANCH  11  12
ATOM     12  C   UNL     1       4.999   5.613  17.213  0.00  0.00    +0.000 C 
ATOM     13  C   UNL     1       6.256   5.862  18.047  0.00  0.00    +0.000 C 
ATOM     14  C   UNL     1       7.319   4.830  17.778  0.00  0.00    +0.000 C 
ATOM     15  O   UNL     1       8.198   4.556  18.589  0.00  0.00    +0.000 OA
ATOM     16  N   UNL     1       7.317   4.269  16.529  0.00  0.00    +0.000 N 
ATOM     17  C   UNL     1       6.504   4.584  15.474  0.00  0.00    +0.000 C 
ATOM     18  O   UNL     1       6.719   4.132  14.349  0.00  0.00    +0.000 OA
ATOM     19  C   UNL     1       5.398   5.579  15.736  0.00  0.00    +0.000 C 
ATOM     20  H   UNL     1       8.069   3.621  16.338  0.00  0.00    +0.000 HD
ENDBRANCH  11  12
ENDBRANCH   1  11
TORSDOF 3
ENDMDL
MODEL 2
REMARK VINA RESULT:      -7.6      2.458      6.152
REMARK  Name = 
REMARK  4 active torsions:
REMARK  status: ('A' for Active; 'I' for Inactive)
REMARK    1  A    between atoms: C_1  and  C_2
REMARK    2  A    between atoms: C_7  and  C_8
REMARK    3  A    between atoms: C_8  and  C_10
REMARK    4  A    between atoms: C_10  and  C_11
REMARK                            x       y       z     vdW  Elec       q    Type
REMARK                         _______ _______ _______ _____ _____    ______ ____
ROOT
ATOM      1  C   UNL     1       3.999   6.193  18.078  0.00  0.00    +0.000 C 
ATOM      2  O   UNL     1       3.734   7.169  17.373  0.00  0.00    +0.000 OA
ENDROOT
BRANCH   1   9
ATOM      3  C   UNL     1       5.810   4.019  13.973  0.00  0.00    +0.000 C 
ATOM      4  C   UNL     1       5.922   4.049  15.496  0.00  0.00    +0.000 C 
ATOM      5  C   UNL     1       7.321   4.505  15.921  0.00  0.00    +0.000 C 
ATOM      6  C   UNL     1       7.461   4.499  17.431  0.00  0.00    +0.000 C 
ATOM      7  C   UNL     1       6.386   5.345  18.073  0.00  0.00    +0.000 C 
ATOM      8  O   UNL     1       6.659   6.051  19.042  0.00  0.00    +0.000 OA
ATOM      9  C   UNL     1       4.957   5.104  17.619  0.00  0.00    +0.000 C 
ATOM     10  C   UNL     1       4.861   4.984  16.093  0.00  0.00    +0.000 C 
ENDBRANCH   1   9
BRANCH   1  11
ATOM     11  C   UNL     1       3.320   6.018  19.428  0.00  0.00    +0.000 C 
BRANCH  11  12
ATOM     12  C   UNL     1       2.799   4.591  19.645  0.00  0.00    +0.000 C 
ATOM     13  C   UNL     1       1.667   4.245  18.678  0.00  0.00    +0.000 C 
ATOM     14  C   UNL     1       1.124   2.861  18.924  0.00  0.00    +0.000 C 
ATOM     15  O   UNL     1       0.552   2.210  18.055  0.00  0.00    +0.000 OA
ATOM     16  N   UNL     1       1.217   2.393  20.207  0.00  0.00    +0.000 N 
ATOM     17  C   UNL     1       1.683   3.060  21.307  0.00  0.00    +0.000 C 
ATOM     18  O   UNL     1       1.550   2.592  22.438  0.00  0.00    +0.000 OA
ATOM     19  C   UNL     1       2.279   4.429  21.075  0.00  0.00    +0.000 C 
ATOM     20  H   UNL     1       0.798   1.489  20.374  0.00  0.00    +0.000 HD
ENDBRANCH  11  12
ENDBRANCH   1  11
TORSDOF 3
ENDMDL
MODEL 3
REMARK VINA RESULT:      -7.5      1.792      3.828
REMARK  Name = 
REMARK  4 active torsions:
REMARK  status: ('A' for Active; 'I' for Inactive)
REMARK    1  A    between atoms: C_1  and  C_2
REMARK    2  A    between atoms: C_7  and  C_8
REMARK    3  A    between atoms: C_8  and  C_10
REMARK    4  A    between atoms: C_10  and  C_11
REMARK                            x       y       z     vdW  Elec       q    Type
REMARK                         _______ _______ _______ _____ _____    ______ ____
ROOT
ATOM      1  C   UNL     1       2.402   4.607  17.760  0.00  0.00    +0.000 C 
ATOM      2  O   UNL     1       1.272   4.326  17.356  0.00  0.00    +0.000 OA
ENDROOT
BRANCH   1   9
ATOM      3  C   UNL     1       1.762   9.551  17.849  0.00  0.00    +0.000 C 
ATOM      4  C   UNL     1       2.268   8.365  18.667  0.00  0.00    +0.000 C 
ATOM      5  C   UNL     1       1.429   8.192  19.937  0.00  0.00    +0.000 C 
ATOM      6  C   UNL     1       1.947   7.044  20.782  0.00  0.00    +0.000 C 
ATOM      7  C   UNL     1       1.999   5.767  19.976  0.00  0.00    +0.000 C 
ATOM      8  O   UNL     1       1.677   4.701  20.498  0.00  0.00    +0.000 OA
ATOM      9  C   UNL     1       2.669   5.838  18.615  0.00  0.00    +0.000 C 
ATOM     10  C   UNL     1       2.225   7.079  17.831  0.00  0.00    +0.000 C 
ENDBRANCH   1   9
BRANCH   1  11
ATOM     11  C   UNL     1       3.593   3.749  17.361  0.00  0.00    +0.000 C 
BRANCH  11  12
ATOM     12  C   UNL     1       4.882   4.567  17.198  0.00  0.00    +0.000 C 
ATOM     13  C   UNL     1       5.600   4.241  15.889  0.00  0.00    +0.000 C 
ATOM     14  C   UNL     1       6.889   5.009  15.752  0.00  0.00    +0.000 C 
ATOM     15  O   UNL     1       7.403   5.253  14.664  0.00  0.00    +0.000 OA
ATOM     16  N   UNL     1       7.520   5.347  16.919  0.00  0.00    +0.000 N 
ATOM     17  C   UNL     1       7.153   5.010  18.194  0.00  0.00    +0.000 C 
ATOM     18  O   UNL     1       7.901   5.224  19.147  0.00  0.00    +0.000 OA
ATOM     19  C   UNL     1       5.838   4.284  18.358  0.00  0.00    +0.000 C 
ATOM     20  H   UNL     1       8.412   5.810  16.816  0.00  0.00    +0.000 HD
ENDBRANCH  11  12
ENDBRANCH   1  11
TORSDOF 3
ENDMDL
MODEL 4
REMARK VINA RESULT:      -7.4      1.373      2.880
REMARK  Name = 
REMARK  4 active torsions:
REMARK  status: ('A' for Active; 'I' for Inactive)
REMARK    1  A    between atoms: C_1  and  C_2
REMARK    2  A    between atoms: C_7  and  C_8
REMARK    3  A    between atoms: C_8  and  C_10
REMARK    4  A    between atoms: C_10  and  C_11
REMARK                            x       y       z     vdW  Elec       q    Type
REMARK                         _______ _______ _______ _____ _____    ______ ____
ROOT
ATOM      1  C   UNL     1       2.794   3.526  17.229  0.00  0.00    +0.000 C 
ATOM      2  O   UNL     1       2.308   3.414  16.102  0.00  0.00    +0.000 OA
ENDROOT
BRANCH   1   9
ATOM      3  C   UNL     1       1.721   2.446  21.976  0.00  0.00    +0.000 C 
ATOM      4  C   UNL     1       1.492   3.474  20.871  0.00  0.00    +0.000 C 
ATOM      5  C   UNL     1       2.081   4.830  21.270  0.00  0.00    +0.000 C 
ATOM      6  C   UNL     1       1.824   5.873  20.199  0.00  0.00    +0.000 C 
ATOM      7  C   UNL     1       2.355   5.412  18.862  0.00  0.00    +0.000 C 
ATOM      8  O   UNL     1       2.908   6.215  18.113  0.00  0.00    +0.000 OA
ATOM      9  C   UNL     1       1.974   4.011  18.416  0.00  0.00    +0.000 C 
ATOM     10  C   UNL     1       2.120   2.995  19.555  0.00  0.00    +0.000 C 
ENDBRANCH   1   9
BRANCH   1  11
ATOM     11  C   UNL     1       4.269   3.231  17.459  0.00  0.00    +0.000 C 
BRANCH  11  12
ATOM     12  C   UNL     1       5.182   4.354  16.948  0.00  0.00    +0.000 C 
ATOM     13  C   UNL     1       5.941   3.942  15.688  0.00  0.00    +0.000 C 
ATOM     14  C   UNL     1       6.872   5.027  15.215  0.00  0.00    +0.000 C 
ATOM     15  O   UNL     1       7.243   5.121  14.048  0.00  0.00    +0.000 OA
ATOM     16  N   UNL     1       7.368   5.863  16.179  0.00  0.00    +0.000 N 
ATOM     17  C   UNL     1       7.171   5.786  17.531  0.00  0.00    +0.000 C 
ATOM     18  O   UNL     1       7.816   6.491  18.308  0.00  0.00    +0.000 OA
ATOM     19  C   UNL     1       6.201   4.738  18.023  0.00  0.00    +0.000 C 
ATOM     20  H   UNL     1       8.037   6.551  15.861  0.00  0.00    +0.000 HD
ENDBRANCH  11  12
ENDBRANCH   1  11
TORSDOF 3
ENDMDL
MODEL 5
REMARK VINA RESULT:      -7.3      1.787      3.201
REMARK  Name = 
REMARK  4 active torsions:
REMARK  status: ('A' for Active; 'I' for Inactive)
REMARK    1  A    between atoms: C_1  and  C_2
REMARK    2  A    between atoms: C_7  and  C_8
REMARK    3  A    between atoms: C_8  and  C_10
REMARK    4  A    between atoms: C_10  and  C_11
REMARK                            x       y       z     vdW  Elec       q    Type
REMARK                         _______ _______ _______ _____ _____    ______ ____
ROOT
ATOM      1  C   UNL     1       3.155   3.342  17.431  0.00  0.00    +0.000 C 
ATOM      2  O   UNL     1       2.193   3.254  16.666  0.00  0.00    +0.000 OA
ENDROOT
BRANCH   1   9
ATOM      3  C   UNL     1       1.967   7.444  20.004  0.00  0.00    +0.000 C 
ATOM      4  C   UNL     1       2.330   5.968  20.149  0.00  0.00    +0.000 C 
ATOM      5  C   UNL     1       1.169   5.189  20.776  0.00  0.00    +0.000 C 
ATOM      6  C   UNL     1       1.532   3.728  20.965  0.00  0.00    +0.000 C 
ATOM      7  C   UNL     1       1.970   3.111  19.658  0.00  0.00    +0.000 C 
ATOM      8  O   UNL     1       1.626   1.963  19.378  0.00  0.00    +0.000 OA
ATOM      9  C   UNL     1       3.009   3.869  18.851  0.00  0.00    +0.000 C 
ATOM     10  C   UNL     1       2.689   5.367  18.783  0.00  0.00    +0.000 C 
ENDBRANCH   1   9
BRANCH   1  11
ATOM     11  C   UNL     1       4.552   2.975  16.951  0.00  0.00    +0.000 C 
BRANCH  11  12
ATOM     12  C   UNL     1       5.358   4.197  16.491  0.00  0.00    +0.000 C 
ATOM     13  C   UNL     1       6.195   3.892  15.249  0.00  0.00    +0.000 C 
ATOM     14  C   UNL     1       7.022   5.078  14.827  0.00  0.00    +0.000 C 
ATOM     15  O   UNL     1       7.418   5.235  13.676  0.00  0.00    +0.000 OA
ATOM     16  N   UNL     1       7.398   5.940  15.823  0.00  0.00    +0.000 N 
ATOM     17  C   UNL     1       7.168   5.814  17.166  0.00  0.00    +0.000 C 
ATOM     18  O   UNL     1       7.712   6.565  17.976  0.00  0.00    +0.000 OA
ATOM     19  C   UNL     1       6.298   4.660  17.606  0.00  0.00    +0.000 C 
ATOM     20  H   UNL     1       8.001   6.700  15.540  0.00  0.00    +0.000 HD
ENDBRANCH  11  12
ENDBRANCH   1  11
TORSDOF 3
ENDMDL
MODEL 6
REMARK VINA RESULT:      -7.2      2.129      2.732
REMARK  Name = 
REMARK  4 active torsions:
REMARK  status: ('A' for Active; 'I' for Inactive)
REMARK    1  A    between atoms: C_1  and  C_2
REMARK    2  A    between atoms: C_7  and  C_8
REMARK    3  A    between atoms: C_8  and  C_10
REMARK    4  A    between atoms: C_10  and  C_11
REMARK                            x       y       z     vdW  Elec       q    Type
REMARK                         _______ _______ _______ _____ _____    ______ ____
ROOT
ATOM      1  C   UNL     1       3.752   2.979  17.842  0.00  0.00    +0.000 C 
ATOM      2  O   UNL     1       4.079   1.801  17.683  0.00  0.00    +0.000 OA
ENDROOT
BRANCH   1   9
ATOM      3  C   UNL     1       2.095   7.114  20.080  0.00  0.00    +0.000 C 
ATOM      4  C   UNL     1       2.332   5.620  20.285  0.00  0.00    +0.000 C 
ATOM      5  C   UNL     1       1.005   4.899  20.547  0.00  0.00    +0.000 C 
ATOM      6  C   UNL     1       1.229   3.419  20.795  0.00  0.00    +0.000 C 
ATOM      7  C   UNL     1       1.984   2.791  19.646  0.00  0.00    +0.000 C 
ATOM      8  O   UNL     1       1.676   1.666  19.255  0.00  0.00    +0.000 OA
ATOM      9  C   UNL     1       3.242   3.500  19.178  0.00  0.00    +0.000 C 
ATOM     10  C   UNL     1       3.026   5.014  19.059  0.00  0.00    +0.000 C 
ENDBRANCH   1   9
BRANCH   1  11
ATOM     11  C   UNL     1       3.794   3.950  16.671  0.00  0.00    +0.000 C 
BRANCH  11  12
ATOM     12  C   UNL     1       5.227   4.302  16.248  0.00  0.00    +0.000 C 
ATOM     13  C   UNL     1       5.649   5.680  16.759  0.00  0.00    +0.000 C 
ATOM     14  C   UNL     1       7.037   6.044  16.303  0.00  0.00    +0.000 C 
ATOM     15  O   UNL     1       7.742   6.850  16.904  0.00  0.00    +0.000 OA
ATOM     16  N   UNL     1       7.449   5.498  15.117  0.00  0.00    +0.000 N 
ATOM     17  C   UNL     1       6.722   4.714  14.263  0.00  0.00    +0.000 C 
ATOM     18  O   UNL     1       7.147   4.433  13.142  0.00  0.00    +0.000 OA
ATOM     19  C   UNL     1       5.346   4.294  14.723  0.00  0.00    +0.000 C 
ATOM     20  H   UNL     1       8.358   5.794  14.791  0.00  0.00    +0.000 HD
ENDBRANCH  11  12
ENDBRANCH   1  11
TORSDOF 3
ENDMDL
MODEL 7
REMARK VINA RESULT:      -7.2      1.872      2.569
REMARK  Name = 
REMARK  4 active torsions:
REMARK  status: ('A' for Active; 'I' for Inactive)
REMARK    1  A    between atoms: C_1  and  C_2
REMARK    2  A    between atoms: C_7  and  C_8
REMARK    3  A    between atoms: C_8  and  C_10
REMARK    4  A    between atoms: C_10  and  C_11
REMARK                            x       y       z     vdW  Elec       q    Type
REMARK                         _______ _______ _______ _____ _____    ______ ____
ROOT
ATOM      1  C   UNL     1       3.452   5.513  17.781  0.00  0.00    +0.000 C 
ATOM      2  O   UNL     1       2.569   6.359  17.935  0.00  0.00    +0.000 OA
ENDROOT
BRANCH   1   9
ATOM      3  C   UNL     1       2.056   3.185  21.963  0.00  0.00    +0.000 C 
ATOM      4  C   UNL     1       2.579   2.954  20.547  0.00  0.00    +0.000 C 
ATOM      5  C   UNL     1       1.555   2.169  19.720  0.00  0.00    +0.000 C 
ATOM      6  C   UNL     1       2.078   1.895  18.323  0.00  0.00    +0.000 C 
ATOM      7  C   UNL     1       2.473   3.181  17.636  0.00  0.00    +0.000 C 
ATOM      8  O   UNL     1       2.227   3.337  16.442  0.00  0.00    +0.000 OA
ATOM      9  C   UNL     1       3.364   4.133  18.416  0.00  0.00    +0.000 C 
ATOM     10  C   UNL     1       2.889   4.293  19.865  0.00  0.00    +0.000 C 
ENDBRANCH   1   9
BRANCH   1  11
ATOM     11  C   UNL     1       4.705   5.850  16.986  0.00  0.00    +0.000 C 
BRANCH  11  12
ATOM     12  C   UNL     1       5.830   6.409  17.868  0.00  0.00    +0.000 C 
ATOM     13  C   UNL     1       6.714   7.395  17.104  0.00  0.00    +0.000 C 
ATOM     14  C   UNL     1       7.846   7.906  17.955  0.00  0.00    +0.000 C 
ATOM     15  O   UNL     1       8.405   8.978  17.741  0.00  0.00    +0.000 OA
ATOM     16  N   UNL     1       8.294   7.064  18.938  0.00  0.00    +0.000 N 
ATOM     17  C   UNL     1       7.879   5.786  19.195  0.00  0.00    +0.000 C 
ATOM     18  O   UNL     1       8.483   5.070  19.993  0.00  0.00    +0.000 OA
ATOM     19  C   UNL     1       6.710   5.271  18.387  0.00  0.00    +0.000 C 
ATOM     20  H   UNL     1       9.091   7.392  19.466  0.00  0.00    +0.000 HD
ENDBRANCH  11  12
ENDBRANCH   1  11
TORSDOF 3
ENDMDL
MODEL 8
REMARK VINA RESULT:      -7.1      2.139      3.481
REMARK  Name = 
REMARK  4 active torsions:
REMARK  status: ('A' for Active; 'I' for Inactive)
REMARK    1  A    between atoms: C_1  and  C_2
REMARK    2  A    between atoms: C_7  and  C_8
REMARK    3  A    between atoms: C_8  and  C_10
REMARK    4  A    between atoms: C_10  and  C_11
REMARK                            x       y       z     vdW  Elec       q    Type
REMARK                         _______ _______ _______ _____ _____    ______ ____
ROOT
ATOM      1  C   UNL     1       5.309   5.262  15.802  0.00  0.00    +0.000 C 
ATOM      2  O   UNL     1       5.285   6.207  15.011  0.00  0.00    +0.000 OA
ENDROOT
BRANCH   1   9
ATOM      3  C   UNL     1       3.512   1.477  18.504  0.00  0.00    +0.000 C 
ATOM      4  C   UNL     1       3.188   2.877  17.988  0.00  0.00    +0.000 C 
ATOM      5  C   UNL     1       3.009   3.851  19.157  0.00  0.00    +0.000 C 
ATOM      6  C   UNL     1       2.645   5.238  18.661  0.00  0.00    +0.000 C 
ATOM      7  C   UNL     1       3.673   5.741  17.675  0.00  0.00    +0.000 C 
ATOM      8  O   UNL     1       4.018   6.921  17.701  0.00  0.00    +0.000 OA
ATOM      9  C   UNL     1       4.064   4.803  16.547  0.00  0.00    +0.000 C 
ATOM     10  C   UNL     1       4.301   3.376  17.056  0.00  0.00    +0.000 C 
ENDBRANCH   1   9
BRANCH   1  11
ATOM     11  C   UNL     1       6.619   4.549  16.103  0.00  0.00    +0.000 C 
BRANCH  11  12
ATOM     12  C   UNL     1       7.470   5.294  17.142  0.00  0.00    +0.000 C 
ATOM     13  C   UNL     1       7.112   4.883  18.570  0.00  0.00    +0.000 C 
ATOM     14  C   UNL     1       7.914   5.648  19.589  0.00  0.00    +0.000 C 
ATOM     15  O   UNL     1       8.128   5.222  20.720  0.00  0.00    +0.000 OA
ATOM     16  N   UNL     1       8.320   6.904  19.223  0.00  0.00    +0.000 N 
ATOM     17  C   UNL     1       8.025   7.571  18.065  0.00  0.00    +0.000 C 
ATOM     18  O   UNL     1       8.302   8.763  17.931  0.00  0.00    +0.000 OA
ATOM     19  C   UNL     1       7.266   6.804  17.007  0.00  0.00    +0.000 C 
ATOM     20  H   UNL     1       8.806   7.432  19.934  0.00  0.00    +0.000 HD
ENDBRANCH  11  12
ENDBRANCH   1  11
TORSDOF 3
ENDMDL
MODEL 9
REMARK VINA RESULT:      -7.1      0.946      2.026
REMARK  Name = 
REMARK  4 active torsions:
REMARK  status: ('A' for Active; 'I' for Inactive)
REMARK    1  A    between atoms: C_1  and  C_2
REMARK    2  A    between atoms: C_7  and  C_8
REMARK    3  A    between atoms: C_8  and  C_10
REMARK    4  A    between atoms: C_10  and  C_11
REMARK                            x       y       z     vdW  Elec       q    Type
REMARK                         _______ _______ _______ _____ _____    ______ ____
ROOT
ATOM      1  C   UNL     1       2.899   6.078  18.703  0.00  0.00    +0.000 C 
ATOM      2  O   UNL     1       2.502   6.891  19.541  0.00  0.00    +0.000 OA
ENDROOT
BRANCH   1   9
ATOM      3  C   UNL     1       1.981   2.611  22.167  0.00  0.00    +0.000 C 
ATOM      4  C   UNL     1       2.167   2.827  20.666  0.00  0.00    +0.000 C 
ATOM      5  C   UNL     1       0.884   2.469  19.910  0.00  0.00    +0.000 C 
ATOM      6  C   UNL     1       1.068   2.637  18.414  0.00  0.00    +0.000 C 
ATOM      7  C   UNL     1       1.532   4.037  18.085  0.00  0.00    +0.000 C 
ATOM      8  O   UNL     1       1.086   4.612  17.093  0.00  0.00    +0.000 OA
ATOM      9  C   UNL     1       2.706   4.579  18.881  0.00  0.00    +0.000 C 
ATOM     10  C   UNL     1       2.559   4.282  20.378  0.00  0.00    +0.000 C 
ENDBRANCH   1   9
BRANCH   1  11
ATOM     11  C   UNL     1       3.658   6.555  17.474  0.00  0.00    +0.000 C 
BRANCH  11  12
ATOM     12  C   UNL     1       5.167   6.295  17.575  0.00  0.00    +0.000 C 
ATOM     13  C   UNL     1       5.634   5.253  16.559  0.00  0.00    +0.000 C 
ATOM     14  C   UNL     1       7.106   4.964  16.691  0.00  0.00    +0.000 C 
ATOM     15  O   UNL     1       7.781   4.524  15.765  0.00  0.00    +0.000 OA
ATOM     16  N   UNL     1       7.647   5.127  17.939  0.00  0.00    +0.000 N 
ATOM     17  C   UNL     1       6.992   5.456  19.095  0.00  0.00    +0.000 C 
ATOM     18  O   UNL     1       7.561   5.397  20.185  0.00  0.00    +0.000 OA
ATOM     19  C   UNL     1       5.526   5.800  18.977  0.00  0.00    +0.000 C 
ATOM     20  H   UNL     1       8.621   4.875  18.031  0.00  0.00    +0.000 HD
ENDBRANCH  11  12
ENDBRANCH   1  11
TORSDOF 3
ENDMDL
