MODEL 1
REMARK VINA RESULT:      -7.2      0.000      0.000
REMARK  Name = 
REMARK  9 active torsions:
REMARK  status: ('A' for Active; 'I' for Inactive)
REMARK    1  A    between atoms: C_1  and  C_2
REMARK    2  A    between atoms: C_2  and  N_3
REMARK    3  A    between atoms: N_3  and  C_4
REMARK    4  A    between atoms: N_3  and  C_6
REMARK    5  A    between atoms: C_4  and  C_5
REMARK    6  A    between atoms: C_11  and  N_12
REMARK    7  A    between atoms: N_12  and  C_13
REMARK    8  A    between atoms: C_14  and  C_16
REMARK    9  A    between atoms: C_16  and  C_17
REMARK                            x       y       z     vdW  Elec       q    Type
REMARK                         _______ _______ _______ _____ _____    ______ ____
ROOT
ATOM      1  N   UNL     1       1.809   4.259  19.007  0.00  0.00    +0.000 N 
ATOM      2  C   UNL     1       0.751   3.261  19.187  0.00  0.00    +0.000 C 
ATOM      3  C   UNL     1       1.857   5.263  19.985  0.00  0.00    +0.000 C 
ATOM      4  O   UNL     1       1.163   5.186  21.006  0.00  0.00    +0.000 OA
ENDROOT
BRANCH   1  10
ATOM      5  C   UNL     1       4.346   4.288  18.589  0.00  0.00    +0.000 C 
ATOM      6  C   UNL     1       4.571   3.223  19.686  0.00  0.00    +0.000 C 
ATOM      7  C   UNL     1       4.563   1.797  19.140  0.00  0.00    +0.000 C 
ATOM      8  C   UNL     1       3.408   1.457  18.198  0.00  0.00    +0.000 C 
ATOM      9  C   UNL     1       2.874   2.608  17.340  0.00  0.00    +0.000 C 
ATOM     10  C   UNL     1       2.902   4.006  18.001  0.00  0.00    +0.000 C 
BRANCH   5  11
ATOM     11  N   UNL     1       5.471   4.316  17.590  0.00  0.00    +0.000 NA
BRANCH  11  13
ATOM     12  C   UNL     1       5.555   4.527  15.061  0.00  0.00    +0.000 C 
ATOM     13  C   UNL     1       5.167   5.144  16.404  0.00  0.00    +0.000 C 
ENDBRANCH  11  13
BRANCH  11  14
ATOM     14  C   UNL     1       6.780   4.670  18.188  0.00  0.00    +0.000 C 
ATOM     15  C   UNL     1       7.140   6.154  18.203  0.00  0.00    +0.000 C 
ENDBRANCH  11  14
ENDBRANCH   5  11
ENDBRANCH   1  10
BRANCH   3  16
ATOM     16  C   UNL     1       2.797   6.460  19.798  0.00  0.00    +0.000 C 
BRANCH  16  17
ATOM     17  C   UNL     1       2.044   7.725  19.399  0.00  0.00    +0.000 A 
ATOM     18  C   UNL     1       2.028   8.095  18.037  0.00  0.00    +0.000 A 
ATOM     19  C   UNL     1       1.435   9.277  17.608  0.00  0.00    +0.000 A 
ATOM     20  C   UNL     1       0.870  10.152  18.529  0.00  0.00    +0.000 A 
ATOM     21  C   UNL     1       0.865   9.795  19.892  0.00  0.00    +0.000 A 
ATOM     22  S   UNL     1       0.232  10.736  21.190  0.00  0.00    +0.000 S 
ATOM     23  C   UNL     1       0.564   9.516  22.331  0.00  0.00    +0.000 A 
ATOM     24  C   UNL     1       1.178   8.430  21.756  0.00  0.00    +0.000 A 
ATOM     25  C   UNL     1       1.405   8.584  20.343  0.00  0.00    +0.000 A 
ENDBRANCH  16  17
ENDBRANCH   3  16
TORSDOF 6
ENDMDL
MODEL 2
REMARK VINA RESULT:      -6.7      1.871      2.711
REMARK  Name = 
REMARK  9 active torsions:
REMARK  status: ('A' for Active; 'I' for Inactive)
REMARK    1  A    between atoms: C_1  and  C_2
REMARK    2  A    between atoms: C_2  and  N_3
REMARK    3  A    between atoms: N_3  and  C_4
REMARK    4  A    between atoms: N_3  and  C_6
REMARK    5  A    between atoms: C_4  and  C_5
REMARK    6  A    between atoms: C_11  and  N_12
REMARK    7  A    between atoms: N_12  and  C_13
REMARK    8  A    between atoms: C_14  and  C_16
REMARK    9  A    between atoms: C_16  and  C_17
REMARK                            x       y       z     vdW  Elec       q    Type
REMARK                         _______ _______ _______ _____ _____    ______ ____
ROOT
ATOM      1  N   UNL     1       2.371   6.451  19.037  0.00  0.00    +0.000 N 
ATOM      2  C   UNL     1       2.101   5.673  20.248  0.00  0.00    +0.000 C 
ATOM      3  C   UNL     1       1.992   7.800  19.095  0.00  0.00    +0.000 C 
ATOM      4  O   UNL     1       1.626   8.309  20.161  0.00  0.00    +0.000 OA
ENDROOT
BRANCH   1  10
ATOM      5  C   UNL     1       4.790   5.961  18.316  0.00  0.00    +0.000 C 
ATOM      6  C   UNL     1       5.000   5.036  19.536  0.00  0.00    +0.000 C 
ATOM      7  C   UNL     1       4.682   3.573  19.234  0.00  0.00    +0.000 C 
ATOM      8  C   UNL     1       3.362   3.320  18.506  0.00  0.00    +0.000 C 
ATOM      9  C   UNL     1       2.899   4.418  17.543  0.00  0.00    +0.000 C 
ATOM     10  C   UNL     1       3.250   5.866  17.961  0.00  0.00    +0.000 C 
BRANCH   5  11
ATOM     11  N   UNL     1       5.746   5.644  17.198  0.00  0.00    +0.000 NA
BRANCH  11  13
ATOM     12  C   UNL     1       5.545   5.303  14.690  0.00  0.00    +0.000 C 
ATOM     13  C   UNL     1       5.320   6.208  15.900  0.00  0.00    +0.000 C 
ENDBRANCH  11  13
BRANCH  11  14
ATOM     14  C   UNL     1       7.153   5.989  17.511  0.00  0.00    +0.000 C 
ATOM     15  C   UNL     1       7.510   7.473  17.493  0.00  0.00    +0.000 C 
ENDBRANCH  11  14
ENDBRANCH   5  11
ENDBRANCH   1  10
BRANCH   3  16
ATOM     16  C   UNL     1       2.053   8.661  17.828  0.00  0.00    +0.000 C 
BRANCH  16  17
ATOM     17  C   UNL     1       1.481  10.057  18.053  0.00  0.00    +0.000 A 
ATOM     18  C   UNL     1       2.378  11.119  18.301  0.00  0.00    +0.000 A 
ATOM     19  C   UNL     1       1.928  12.400  18.597  0.00  0.00    +0.000 A 
ATOM     20  C   UNL     1       0.565  12.660  18.695  0.00  0.00    +0.000 A 
ATOM     21  C   UNL     1      -0.346  11.617  18.440  0.00  0.00    +0.000 A 
ATOM     22  S   UNL     1      -2.064  11.722  18.520  0.00  0.00    +0.000 S 
ATOM     23  C   UNL     1      -2.259  10.117  17.984  0.00  0.00    +0.000 A 
ATOM     24  C   UNL     1      -1.051   9.493  17.784  0.00  0.00    +0.000 A 
ATOM     25  C   UNL     1       0.080  10.331  18.083  0.00  0.00    +0.000 A 
ENDBRANCH  16  17
ENDBRANCH   3  16
TORSDOF 6
ENDMDL
MODEL 3
REMARK VINA RESULT:      -6.4      3.395      7.868
REMARK  Name = 
REMARK  9 active torsions:
REMARK  status: ('A' for Active; 'I' for Inactive)
REMARK    1  A    between atoms: C_1  and  C_2
REMARK    2  A    between atoms: C_2  and  N_3
REMARK    3  A    between atoms: N_3  and  C_4
REMARK    4  A    between atoms: N_3  and  C_6
REMARK    5  A    between atoms: C_4  and  C_5
REMARK    6  A    between atoms: C_11  and  N_12
REMARK    7  A    between atoms: N_12  and  C_13
REMARK    8  A    between atoms: C_14  and  C_16
REMARK    9  A    between atoms: C_16  and  C_17
REMARK                            x       y       z     vdW  Elec       q    Type
REMARK                         _______ _______ _______ _____ _____    ______ ____
ROOT
ATOM      1  N   UNL     1       1.289   8.803  19.966  0.00  0.00    +0.000 N 
ATOM      2  C   UNL     1       1.047   8.907  21.407  0.00  0.00    +0.000 C 
ATOM      3  C   UNL     1       2.074   7.711  19.567  0.00  0.00    +0.000 C 
ATOM      4  O   UNL     1       2.373   6.820  20.371  0.00  0.00    +0.000 OA
ENDROOT
BRANCH   1  10
ATOM      5  C   UNL     1      -0.636  10.495  19.753  0.00  0.00    +0.000 C 
ATOM      6  C   UNL     1       0.107  11.502  20.660  0.00  0.00    +0.000 C 
ATOM      7  C   UNL     1       0.972  12.485  19.873  0.00  0.00    +0.000 C 
ATOM      8  C   UNL     1       1.868  11.864  18.800  0.00  0.00    +0.000 C 
ATOM      9  C   UNL     1       1.332  10.601  18.120  0.00  0.00    +0.000 C 
ATOM     10  C   UNL     1       0.492   9.661  19.017  0.00  0.00    +0.000 C 
BRANCH   5  11
ATOM     11  N   UNL     1      -1.642  11.173  18.863  0.00  0.00    +0.000 NA
BRANCH  11  13
ATOM     12  C   UNL     1      -2.216  10.240  16.573  0.00  0.00    +0.000 C 
ATOM     13  C   UNL     1      -2.455  10.217  18.082  0.00  0.00    +0.000 C 
ENDBRANCH  11  13
BRANCH  11  14
ATOM     14  C   UNL     1      -2.487  12.160  19.576  0.00  0.00    +0.000 C 
ATOM     15  C   UNL     1      -3.982  12.127  19.263  0.00  0.00    +0.000 C 
ENDBRANCH  11  14
ENDBRANCH   5  11
ENDBRANCH   1  10
BRANCH   3  16
ATOM     16  C   UNL     1       2.546   7.607  18.113  0.00  0.00    +0.000 C 
BRANCH  16  17
ATOM     17  C   UNL     1       3.083   6.219  17.781  0.00  0.00    +0.000 A 
ATOM     18  C   UNL     1       2.199   5.121  17.856  0.00  0.00    +0.000 A 
ATOM     19  C   UNL     1       2.634   3.817  17.649  0.00  0.00    +0.000 A 
ATOM     20  C   UNL     1       3.977   3.557  17.397  0.00  0.00    +0.000 A 
ATOM     21  C   UNL     1       4.873   4.640  17.306  0.00  0.00    +0.000 A 
ATOM     22  S   UNL     1       6.569   4.539  17.017  0.00  0.00    +0.000 S 
ATOM     23  C   UNL     1       6.737   6.233  16.976  0.00  0.00    +0.000 A 
ATOM     24  C   UNL     1       5.544   6.872  17.215  0.00  0.00    +0.000 A 
ATOM     25  C   UNL     1       4.450   5.967  17.454  0.00  0.00    +0.000 A 
ENDBRANCH  16  17
ENDBRANCH   3  16
TORSDOF 6
ENDMDL
MODEL 4
REMARK VINA RESULT:      -6.4      1.948      2.748
REMARK  Name = 
REMARK  9 active torsions:
REMARK  status: ('A' for Active; 'I' for Inactive)
REMARK    1  A    between atoms: C_1  and  C_2
REMARK    2  A    between atoms: C_2  and  N_3
REMARK    3  A    between atoms: N_3  and  C_4
REMARK    4  A    between atoms: N_3  and  C_6
REMARK    5  A    between atoms: C_4  and  C_5
REMARK    6  A    between atoms: C_11  and  N_12
REMARK    7  A    between atoms: N_12  and  C_13
REMARK    8  A    between atoms: C_14  and  C_16
REMARK    9  A    between atoms: C_16  and  C_17
REMARK                            x       y       z     vdW  Elec       q    Type
REMARK                         _______ _______ _______ _____ _____    ______ ____
ROOT
ATOM      1  N   UNL     1       1.960   6.751  19.581  0.00  0.00    +0.000 N 
ATOM      2  C   UNL     1       1.684   5.949  20.775  0.00  0.00    +0.000 C 
ATOM      3  C   UNL     1       1.731   8.128  19.718  0.00  0.00    +0.000 C 
ATOM      4  O   UNL     1       1.488   8.621  20.826  0.00  0.00    +0.000 OA
ENDROOT
BRANCH   1  10
ATOM      5  C   UNL     1       4.160   5.653  18.828  0.00  0.00    +0.000 C 
ATOM      6  C   UNL     1       3.964   4.496  19.834  0.00  0.00    +0.000 C 
ATOM      7  C   UNL     1       3.235   3.299  19.228  0.00  0.00    +0.000 C 
ATOM      8  C   UNL     1       1.971   3.629  18.434  0.00  0.00    +0.000 C 
ATOM      9  C   UNL     1       1.959   4.979  17.710  0.00  0.00    +0.000 C 
ATOM     10  C   UNL     1       2.705   6.130  18.427  0.00  0.00    +0.000 C 
BRANCH   5  11
ATOM     11  N   UNL     1       5.065   5.264  17.690  0.00  0.00    +0.000 NA
BRANCH  11  13
ATOM     12  C   UNL     1       5.414   5.839  15.242  0.00  0.00    +0.000 C 
ATOM     13  C   UNL     1       5.201   6.328  16.674  0.00  0.00    +0.000 C 
ENDBRANCH  11  13
BRANCH  11  14
ATOM     14  C   UNL     1       6.384   4.756  18.134  0.00  0.00    +0.000 C 
ATOM     15  C   UNL     1       7.394   5.803  18.600  0.00  0.00    +0.000 C 
ENDBRANCH  11  14
ENDBRANCH   5  11
ENDBRANCH   1  10
BRANCH   3  16
ATOM     16  C   UNL     1       1.806   9.036  18.486  0.00  0.00    +0.000 C 
BRANCH  16  17
ATOM     17  C   UNL     1       0.597   9.960  18.378  0.00  0.00    +0.000 A 
ATOM     18  C   UNL     1      -0.578   9.460  17.776  0.00  0.00    +0.000 A 
ATOM     19  C   UNL     1      -1.691  10.266  17.567  0.00  0.00    +0.000 A 
ATOM     20  C   UNL     1      -1.659  11.612  17.917  0.00  0.00    +0.000 A 
ATOM     21  C   UNL     1      -0.500  12.126  18.530  0.00  0.00    +0.000 A 
ATOM     22  S   UNL     1      -0.248  13.758  19.027  0.00  0.00    +0.000 S 
ATOM     23  C   UNL     1       1.274  13.394  19.699  0.00  0.00    +0.000 A 
ATOM     24  C   UNL     1       1.612  12.074  19.520  0.00  0.00    +0.000 A 
ATOM     25  C   UNL     1       0.614  11.322  18.804  0.00  0.00    +0.000 A 
ENDBRANCH  16  17
ENDBRANCH   3  16
TORSDOF 6
ENDMDL
MODEL 5
REMARK VINA RESULT:      -6.4      1.911      3.842
REMARK  Name = 
REMARK  9 active torsions:
REMARK  status: ('A' for Active; 'I' for Inactive)
REMARK    1  A    between atoms: C_1  and  C_2
REMARK    2  A    between atoms: C_2  and  N_3
REMARK    3  A    between atoms: N_3  and  C_4
REMARK    4  A    between atoms: N_3  and  C_6
REMARK    5  A    between atoms: C_4  and  C_5
REMARK    6  A    between atoms: C_11  and  N_12
REMARK    7  A    between atoms: N_12  and  C_13
REMARK    8  A    between atoms: C_14  and  C_16
REMARK    9  A    between atoms: C_16  and  C_17
REMARK                            x       y       z     vdW  Elec       q    Type
REMARK                         _______ _______ _______ _____ _____    ______ ____
ROOT
ATOM      1  N   UNL     1       3.647   6.997  18.184  0.00  0.00    +0.000 N 
ATOM      2  C   UNL     1       4.487   7.131  16.992  0.00  0.00    +0.000 C 
ATOM      3  C   UNL     1       2.575   7.899  18.265  0.00  0.00    +0.000 C 
ATOM      4  O   UNL     1       2.280   8.619  17.304  0.00  0.00    +0.000 OA
ENDROOT
BRANCH   1  10
ATOM      5  C   UNL     1       2.819   4.609  18.656  0.00  0.00    +0.000 C 
ATOM      6  C   UNL     1       3.283   4.138  17.260  0.00  0.00    +0.000 C 
ATOM      7  C   UNL     1       4.704   3.576  17.264  0.00  0.00    +0.000 C 
ATOM      8  C   UNL     1       5.747   4.425  17.992  0.00  0.00    +0.000 C 
ATOM      9  C   UNL     1       5.242   5.240  19.187  0.00  0.00    +0.000 C 
ATOM     10  C   UNL     1       3.799   5.784  19.065  0.00  0.00    +0.000 C 
BRANCH   5  11
ATOM     11  N   UNL     1       2.714   3.468  19.631  0.00  0.00    +0.000 NA
BRANCH  11  13
ATOM     12  C   UNL     1       1.997   2.750  21.959  0.00  0.00    +0.000 C 
ATOM     13  C   UNL     1       2.124   3.869  20.925  0.00  0.00    +0.000 C 
ENDBRANCH  11  13
BRANCH  11  14
ATOM     14  C   UNL     1       2.044   2.272  19.068  0.00  0.00    +0.000 C 
ATOM     15  C   UNL     1       0.555   2.409  18.761  0.00  0.00    +0.000 C 
ENDBRANCH  11  14
ENDBRANCH   5  11
ENDBRANCH   1  10
BRANCH   3  16
ATOM     16  C   UNL     1       1.744   7.975  19.551  0.00  0.00    +0.000 C 
BRANCH  16  17
ATOM     17  C   UNL     1       1.084   9.339  19.728  0.00  0.00    +0.000 A 
ATOM     18  C   UNL     1       1.229  10.294  18.698  0.00  0.00    +0.000 A 
ATOM     19  C   UNL     1       0.728  11.584  18.823  0.00  0.00    +0.000 A 
ATOM     20  C   UNL     1       0.096  11.981  19.997  0.00  0.00    +0.000 A 
ATOM     21  C   UNL     1      -0.069  11.039  21.032  0.00  0.00    +0.000 A 
ATOM     22  S   UNL     1      -0.805  11.325  22.564  0.00  0.00    +0.000 S 
ATOM     23  C   UNL     1      -0.643   9.695  23.027  0.00  0.00    +0.000 A 
ATOM     24  C   UNL     1      -0.007   8.948  22.064  0.00  0.00    +0.000 A 
ATOM     25  C   UNL     1       0.376   9.717  20.908  0.00  0.00    +0.000 A 
ENDBRANCH  16  17
ENDBRANCH   3  16
TORSDOF 6
ENDMDL
MODEL 6
REMARK VINA RESULT:      -6.4      0.926      2.066
REMARK  Name = 
REMARK  9 active torsions:
REMARK  status: ('A' for Active; 'I' for Inactive)
REMARK    1  A    between atoms: C_1  and  C_2
REMARK    2  A    between atoms: C_2  and  N_3
REMARK    3  A    between atoms: N_3  and  C_4
REMARK    4  A    between atoms: N_3  and  C_6
REMARK    5  A    between atoms: C_4  and  C_5
REMARK    6  A    between atoms: C_11  and  N_12
REMARK    7  A    between atoms: N_12  and  C_13
REMARK    8  A    between atoms: C_14  and  C_16
REMARK    9  A    between atoms: C_16  and  C_17
REMARK                            x       y       z     vdW  Elec       q    Type
REMARK                         _______ _______ _______ _____ _____    ______ ____
ROOT
ATOM      1  N   UNL     1       1.832   4.838  19.328  0.00  0.00    +0.000 N 
ATOM      2  C   UNL     1       1.132   3.625  19.758  0.00  0.00    +0.000 C 
ATOM      3  C   UNL     1       1.710   5.937  20.192  0.00  0.00    +0.000 C 
ATOM      4  O   UNL     1       1.195   5.809  21.309  0.00  0.00    +0.000 OA
ENDROOT
BRANCH   1  10
ATOM      5  C   UNL     1       4.321   4.682  18.702  0.00  0.00    +0.000 C 
ATOM      6  C   UNL     1       4.452   3.325  19.429  0.00  0.00    +0.000 C 
ATOM      7  C   UNL     1       4.212   2.131  18.507  0.00  0.00    +0.000 C 
ATOM      8  C   UNL     1       2.971   2.222  17.618  0.00  0.00    +0.000 C 
ATOM      9  C   UNL     1       2.560   3.629  17.172  0.00  0.00    +0.000 C 
ATOM     10  C   UNL     1       2.823   4.759  18.196  0.00  0.00    +0.000 C 
BRANCH   5  11
ATOM     11  N   UNL     1       5.383   4.865  17.652  0.00  0.00    +0.000 NA
BRANCH  11  13
ATOM     12  C   UNL     1       5.340   5.889  15.329  0.00  0.00    +0.000 C 
ATOM     13  C   UNL     1       5.183   6.081  16.837  0.00  0.00    +0.000 C 
ENDBRANCH  11  13
BRANCH  11  14
ATOM     14  C   UNL     1       6.762   4.782  18.189  0.00  0.00    +0.000 C 
ATOM     15  C   UNL     1       7.473   6.110  18.440  0.00  0.00    +0.000 C 
ENDBRANCH  11  14
ENDBRANCH   5  11
ENDBRANCH   1  10
BRANCH   3  16
ATOM     16  C   UNL     1       2.241   7.307  19.755  0.00  0.00    +0.000 C 
BRANCH  16  17
ATOM     17  C   UNL     1       1.472   8.454  20.403  0.00  0.00    +0.000 A 
ATOM     18  C   UNL     1       1.517   8.584  21.808  0.00  0.00    +0.000 A 
ATOM     19  C   UNL     1       0.777   9.552  22.476  0.00  0.00    +0.000 A 
ATOM     20  C   UNL     1      -0.067  10.402  21.769  0.00  0.00    +0.000 A 
ATOM     21  C   UNL     1      -0.116  10.296  20.365  0.00  0.00    +0.000 A 
ATOM     22  S   UNL     1      -1.098  11.237  19.306  0.00  0.00    +0.000 S 
ATOM     23  C   UNL     1      -0.428  10.509  17.920  0.00  0.00    +0.000 A 
ATOM     24  C   UNL     1       0.493   9.542  18.244  0.00  0.00    +0.000 A 
ATOM     25  C   UNL     1       0.663   9.368  19.663  0.00  0.00    +0.000 A 
ENDBRANCH  16  17
ENDBRANCH   3  16
TORSDOF 6
ENDMDL
MODEL 7
REMARK VINA RESULT:      -6.4      3.380      7.808
REMARK  Name = 
REMARK  9 active torsions:
REMARK  status: ('A' for Active; 'I' for Inactive)
REMARK    1  A    between atoms: C_1  and  C_2
REMARK    2  A    between atoms: C_2  and  N_3
REMARK    3  A    between atoms: N_3  and  C_4
REMARK    4  A    between atoms: N_3  and  C_6
REMARK    5  A    between atoms: C_4  and  C_5
REMARK    6  A    between atoms: C_11  and  N_12
REMARK    7  A    between atoms: N_12  and  C_13
REMARK    8  A    between atoms: C_14  and  C_16
REMARK    9  A    between atoms: C_16  and  C_17
REMARK                            x       y       z     vdW  Elec       q    Type
REMARK                         _______ _______ _______ _____ _____    ______ ____
ROOT
ATOM      1  N   UNL     1       1.293   8.885  19.952  0.00  0.00    +0.000 N 
ATOM      2  C   UNL     1       1.193   9.149  21.389  0.00  0.00    +0.000 C 
ATOM      3  C   UNL     1       1.924   7.680  19.607  0.00  0.00    +0.000 C 
ATOM      4  O   UNL     1       2.202   6.842  20.472  0.00  0.00    +0.000 OA
ENDROOT
BRANCH   1  10
ATOM      5  C   UNL     1      -0.725  10.454  19.674  0.00  0.00    +0.000 C 
ATOM      6  C   UNL     1      -0.118  11.463  20.674  0.00  0.00    +0.000 C 
ATOM      7  C   UNL     1       0.728  12.538  19.994  0.00  0.00    +0.000 C 
ATOM      8  C   UNL     1       1.737  12.030  18.964  0.00  0.00    +0.000 C 
ATOM      9  C   UNL     1       1.339  10.767  18.192  0.00  0.00    +0.000 C 
ATOM     10  C   UNL     1       0.505   9.733  18.986  0.00  0.00    +0.000 C 
BRANCH   5  11
ATOM     11  N   UNL     1      -1.713  11.105  18.744  0.00  0.00    +0.000 NA
BRANCH  11  13
ATOM     12  C   UNL     1      -2.281  10.205  16.439  0.00  0.00    +0.000 C 
ATOM     13  C   UNL     1      -2.487  10.128  17.951  0.00  0.00    +0.000 C 
ENDBRANCH  11  13
BRANCH  11  14
ATOM     14  C   UNL     1      -2.593  12.089  19.416  0.00  0.00    +0.000 C 
ATOM     15  C   UNL     1      -4.081  12.010  19.081  0.00  0.00    +0.000 C 
ENDBRANCH  11  14
ENDBRANCH   5  11
ENDBRANCH   1  10
BRANCH   3  16
ATOM     16  C   UNL     1       2.251   7.388  18.138  0.00  0.00    +0.000 C 
BRANCH  16  17
ATOM     17  C   UNL     1       3.220   6.221  17.985  0.00  0.00    +0.000 A 
ATOM     18  C   UNL     1       4.578   6.506  17.721  0.00  0.00    +0.000 A 
ATOM     19  C   UNL     1       5.503   5.496  17.488  0.00  0.00    +0.000 A 
ATOM     20  C   UNL     1       5.100   4.164  17.471  0.00  0.00    +0.000 A 
ATOM     21  C   UNL     1       3.753   3.859  17.745  0.00  0.00    +0.000 A 
ATOM     22  S   UNL     1       3.046   2.287  17.762  0.00  0.00    +0.000 S 
ATOM     23  C   UNL     1       1.535   2.892  18.261  0.00  0.00    +0.000 A 
ATOM     24  C   UNL     1       1.544   4.262  18.376  0.00  0.00    +0.000 A 
ATOM     25  C   UNL     1       2.812   4.854  18.040  0.00  0.00    +0.000 A 
ENDBRANCH  16  17
ENDBRANCH   3  16
TORSDOF 6
ENDMDL
MODEL 8
REMARK VINA RESULT:      -6.3      1.993      3.059
REMARK  Name = 
REMARK  9 active torsions:
REMARK  status: ('A' for Active; 'I' for Inactive)
REMARK    1  A    between atoms: C_1  and  C_2
REMARK    2  A    between atoms: C_2  and  N_3
REMARK    3  A    between atoms: N_3  and  C_4
REMARK    4  A    between atoms: N_3  and  C_6
REMARK    5  A    between atoms: C_4  and  C_5
REMARK    6  A    between atoms: C_11  and  N_12
REMARK    7  A    between atoms: N_12  and  C_13
REMARK    8  A    between atoms: C_14  and  C_16
REMARK    9  A    between atoms: C_16  and  C_17
REMARK                            x       y       z     vdW  Elec       q    Type
REMARK                         _______ _______ _______ _____ _____    ______ ____
ROOT
ATOM      1  N   UNL     1       1.959   6.603  19.956  0.00  0.00    +0.000 N 
ATOM      2  C   UNL     1       1.724   5.585  20.982  0.00  0.00    +0.000 C 
ATOM      3  C   UNL     1       1.579   7.907  20.309  0.00  0.00    +0.000 C 
ATOM      4  O   UNL     1       1.241   8.176  21.467  0.00  0.00    +0.000 OA
ENDROOT
BRANCH   1  10
ATOM      5  C   UNL     1       4.170   5.561  19.158  0.00  0.00    +0.000 C 
ATOM      6  C   UNL     1       3.777   4.191  19.755  0.00  0.00    +0.000 C 
ATOM      7  C   UNL     1       3.064   3.288  18.751  0.00  0.00    +0.000 C 
ATOM      8  C   UNL     1       1.935   3.946  17.956  0.00  0.00    +0.000 C 
ATOM      9  C   UNL     1       2.098   5.440  17.661  0.00  0.00    +0.000 C 
ATOM     10  C   UNL     1       2.810   6.266  18.759  0.00  0.00    +0.000 C 
BRANCH   5  11
ATOM     11  N   UNL     1       5.191   5.426  18.060  0.00  0.00    +0.000 NA
BRANCH  11  13
ATOM     12  C   UNL     1       5.192   6.446  15.735  0.00  0.00    +0.000 C 
ATOM     13  C   UNL     1       5.322   6.651  17.244  0.00  0.00    +0.000 C 
ENDBRANCH  11  13
BRANCH  11  14
ATOM     14  C   UNL     1       6.507   4.939  18.537  0.00  0.00    +0.000 C 
ATOM     15  C   UNL     1       7.633   5.968  18.591  0.00  0.00    +0.000 C 
ENDBRANCH  11  14
ENDBRANCH   5  11
ENDBRANCH   1  10
BRANCH   3  16
ATOM     16  C   UNL     1       1.603   9.016  19.251  0.00  0.00    +0.000 C 
BRANCH  16  17
ATOM     17  C   UNL     1       0.618  10.136  19.569  0.00  0.00    +0.000 A 
ATOM     18  C   UNL     1       0.865  10.948  20.697  0.00  0.00    +0.000 A 
ATOM     19  C   UNL     1      -0.030  11.933  21.098  0.00  0.00    +0.000 A 
ATOM     20  C   UNL     1      -1.225  12.118  20.410  0.00  0.00    +0.000 A 
ATOM     21  C   UNL     1      -1.484  11.325  19.275  0.00  0.00    +0.000 A 
ATOM     22  S   UNL     1      -2.900  11.382  18.294  0.00  0.00    +0.000 S 
ATOM     23  C   UNL     1      -2.280  10.231  17.204  0.00  0.00    +0.000 A 
ATOM     24  C   UNL     1      -1.041   9.775  17.589  0.00  0.00    +0.000 A 
ATOM     25  C   UNL     1      -0.573  10.365  18.816  0.00  0.00    +0.000 A 
ENDBRANCH  16  17
ENDBRANCH   3  16
TORSDOF 6
ENDMDL
MODEL 9
REMARK VINA RESULT:      -6.2      2.235      4.451
REMARK  Name = 
REMARK  9 active torsions:
REMARK  status: ('A' for Active; 'I' for Inactive)
REMARK    1  A    between atoms: C_1  and  C_2
REMARK    2  A    between atoms: C_2  and  N_3
REMARK    3  A    between atoms: N_3  and  C_4
REMARK    4  A    between atoms: N_3  and  C_6
REMARK    5  A    between atoms: C_4  and  C_5
REMARK    6  A    between atoms: C_11  and  N_12
REMARK    7  A    between atoms: N_12  and  C_13
REMARK    8  A    between atoms: C_14  and  C_16
REMARK    9  A    between atoms: C_16  and  C_17
REMARK                            x       y       z     vdW  Elec       q    Type
REMARK                         _______ _______ _______ _____ _____    ______ ____
ROOT
ATOM      1  N   UNL     1       3.397   7.280  18.274  0.00  0.00    +0.000 N 
ATOM      2  C   UNL     1       4.396   7.370  17.207  0.00  0.00    +0.000 C 
ATOM      3  C   UNL     1       2.386   8.252  18.231  0.00  0.00    +0.000 C 
ATOM      4  O   UNL     1       2.271   9.002  17.255  0.00  0.00    +0.000 OA
ENDROOT
BRANCH   1  10
ATOM      5  C   UNL     1       2.238   5.020  18.678  0.00  0.00    +0.000 C 
ATOM      6  C   UNL     1       2.691   4.504  17.294  0.00  0.00    +0.000 C 
ATOM      7  C   UNL     1       4.022   3.757  17.345  0.00  0.00    +0.000 C 
ATOM      8  C   UNL     1       5.139   4.450  18.125  0.00  0.00    +0.000 C 
ATOM      9  C   UNL     1       4.700   5.314  19.312  0.00  0.00    +0.000 C 
ATOM     10  C   UNL     1       3.349   6.049  19.142  0.00  0.00    +0.000 C 
BRANCH   5  11
ATOM     11  N   UNL     1       1.942   3.894  19.631  0.00  0.00    +0.000 NA
BRANCH  11  13
ATOM     12  C   UNL     1       2.129   3.142  22.049  0.00  0.00    +0.000 C 
ATOM     13  C   UNL     1       2.055   4.295  21.049  0.00  0.00    +0.000 C 
ENDBRANCH  11  13
BRANCH  11  14
ATOM     14  C   UNL     1       0.656   3.211  19.354  0.00  0.00    +0.000 C 
ATOM     15  C   UNL     1       0.745   1.833  18.702  0.00  0.00    +0.000 C 
ENDBRANCH  11  14
ENDBRANCH   5  11
ENDBRANCH   1  10
BRANCH   3  16
ATOM     16  C   UNL     1       1.398   8.370  19.397  0.00  0.00    +0.000 C 
BRANCH  16  17
ATOM     17  C   UNL     1       0.786   9.764  19.492  0.00  0.00    +0.000 A 
ATOM     18  C   UNL     1       1.313  10.666  20.442  0.00  0.00    +0.000 A 
ATOM     19  C   UNL     1       0.754  11.922  20.645  0.00  0.00    +0.000 A 
ATOM     20  C   UNL     1      -0.376  12.310  19.933  0.00  0.00    +0.000 A 
ATOM     21  C   UNL     1      -0.910  11.429  18.972  0.00  0.00    +0.000 A 
ATOM     22  S   UNL     1      -2.304  11.707  17.997  0.00  0.00    +0.000 S 
ATOM     23  C   UNL     1      -2.093  10.244  17.151  0.00  0.00    +0.000 A 
ATOM     24  C   UNL     1      -1.013   9.533  17.618  0.00  0.00    +0.000 A 
ATOM     25  C   UNL     1      -0.331  10.181  18.708  0.00  0.00    +0.000 A 
ENDBRANCH  16  17
ENDBRANCH   3  16
TORSDOF 6
ENDMDL
