MODEL 1
REMARK VINA RESULT:      -7.2      0.000      0.000
REMARK  Name = 
REMARK  5 active torsions:
REMARK  status: ('A' for Active; 'I' for Inactive)
REMARK    1  A    between atoms: O_1  and  C_2
REMARK    2  A    between atoms: C_8  and  O_9
REMARK    3  A    between atoms: N_12  and  C_13
REMARK    4  A    between atoms: C_13  and  C_14
REMARK    5  A    between atoms: C_20  and  C_21
REMARK                            x       y       z     vdW  Elec       q    Type
REMARK                         _______ _______ _______ _____ _____    ______ ____
ROOT
ATOM      1  C   UNL     1       5.864   3.907  15.541  0.00  0.00    +0.000 A 
ATOM      2  C   UNL     1       4.590   3.784  16.092  0.00  0.00    +0.000 A 
ATOM      3  C   UNL     1       4.255   4.421  17.299  0.00  0.00    +0.000 A 
ATOM      4  C   UNL     1       5.228   5.198  17.964  0.00  0.00    +0.000 A 
ATOM      5  C   UNL     1       6.550   5.266  17.434  0.00  0.00    +0.000 A 
ATOM      6 CL   UNL     1       7.823   6.209  18.225  0.00  0.00    +0.000 Cl
ATOM      7  C   UNL     1       6.852   4.624  16.214  0.00  0.00    +0.000 A 
ATOM      8  C   UNL     1       4.840   6.003  19.189  0.00  0.00    +0.000 C 
ATOM      9  C   UNL     1       3.852   7.121  18.818  0.00  0.00    +0.000 C 
ATOM     10  N   UNL     1       2.448   6.691  18.607  0.00  0.00    +0.000 NA
ATOM     11  C   UNL     1       2.188   5.728  17.516  0.00  0.00    +0.000 C 
ATOM     12  C   UNL     1       2.803   4.343  17.756  0.00  0.00    +0.000 C 
ENDROOT
BRANCH  12  13
ATOM     13  C   UNL     1       2.514   3.750  19.149  0.00  0.00    +0.000 A 
ATOM     14  C   UNL     1       1.272   3.996  19.784  0.00  0.00    +0.000 A 
ATOM     15  C   UNL     1       0.984   3.465  21.043  0.00  0.00    +0.000 A 
ATOM     16  C   UNL     1       1.915   2.660  21.686  0.00  0.00    +0.000 A 
ATOM     17  C   UNL     1       3.143   2.386  21.076  0.00  0.00    +0.000 A 
ATOM     18  C   UNL     1       3.444   2.927  19.818  0.00  0.00    +0.000 A 
ENDBRANCH  12  13
BRANCH   1  19
ATOM     19  O   UNL     1       6.138   3.354  14.341  0.00  0.00    +0.000 OA
ATOM     20  H   UNL     1       6.124   2.397  14.195  0.00  0.00    +0.000 HD
ENDBRANCH   1  19
BRANCH   7  21
ATOM     21  O   UNL     1       8.079   4.709  15.651  0.00  0.00    +0.000 OA
ATOM     22  H   UNL     1       8.459   4.041  15.064  0.00  0.00    +0.000 HD
ENDBRANCH   7  21
BRANCH  10  23
ATOM     23  C   UNL     1       1.557   7.872  18.466  0.00  0.00    +0.000 C 
BRANCH  23  24
ATOM     24  C   UNL     1       1.277   8.580  19.771  0.00  0.00    +0.000 A 
ATOM     25  C   UNL     1       1.338   7.995  21.029  0.00  0.00    +0.000 A 
ATOM     26  C   UNL     1       1.025   8.880  22.067  0.00  0.00    +0.000 A 
ATOM     27  C   UNL     1       0.703  10.157  21.630  0.00  0.00    +0.000 A 
ATOM     28  S   UNL     1       0.816  10.191  19.951  0.00  0.00    +0.000 S 
ENDBRANCH  23  24
ENDBRANCH  10  23
TORSDOF 5
ENDMDL
MODEL 2
REMARK VINA RESULT:      -6.4      4.036      6.576
REMARK  Name = 
REMARK  5 active torsions:
REMARK  status: ('A' for Active; 'I' for Inactive)
REMARK    1  A    between atoms: O_1  and  C_2
REMARK    2  A    between atoms: C_8  and  O_9
REMARK    3  A    between atoms: N_12  and  C_13
REMARK    4  A    between atoms: C_13  and  C_14
REMARK    5  A    between atoms: C_20  and  C_21
REMARK                            x       y       z     vdW  Elec       q    Type
REMARK                         _______ _______ _______ _____ _____    ______ ____
ROOT
ATOM      1  C   UNL     1       1.396   8.799  21.493  0.00  0.00    +0.000 A 
ATOM      2  C   UNL     1       1.977   7.534  21.434  0.00  0.00    +0.000 A 
ATOM      3  C   UNL     1       2.221   6.902  20.202  0.00  0.00    +0.000 A 
ATOM      4  C   UNL     1       1.870   7.563  19.004  0.00  0.00    +0.000 A 
ATOM      5  C   UNL     1       1.213   8.827  19.070  0.00  0.00    +0.000 A 
ATOM      6 CL   UNL     1       0.732   9.703  17.609  0.00  0.00    +0.000 Cl
ATOM      7  C   UNL     1       0.992   9.440  20.322  0.00  0.00    +0.000 A 
ATOM      8  C   UNL     1       2.256   6.957  17.670  0.00  0.00    +0.000 C 
ATOM      9  C   UNL     1       3.784   6.942  17.497  0.00  0.00    +0.000 C 
ATOM     10  N   UNL     1       4.501   5.873  18.234  0.00  0.00    +0.000 NA
ATOM     11  C   UNL     1       4.396   5.875  19.708  0.00  0.00    +0.000 C 
ATOM     12  C   UNL     1       2.982   5.582  20.227  0.00  0.00    +0.000 C 
ENDROOT
BRANCH  12  13
ATOM     13  C   UNL     1       2.313   4.349  19.589  0.00  0.00    +0.000 A 
ATOM     14  C   UNL     1       3.056   3.497  18.735  0.00  0.00    +0.000 A 
ATOM     15  C   UNL     1       2.474   2.371  18.150  0.00  0.00    +0.000 A 
ATOM     16  C   UNL     1       1.149   2.054  18.421  0.00  0.00    +0.000 A 
ATOM     17  C   UNL     1       0.395   2.867  19.273  0.00  0.00    +0.000 A 
ATOM     18  C   UNL     1       0.970   4.008  19.853  0.00  0.00    +0.000 A 
ENDBRANCH  12  13
BRANCH   1  19
ATOM     19  O   UNL     1       1.246   9.419  22.682  0.00  0.00    +0.000 OA
ATOM     20  H   UNL     1       1.979   9.866  23.130  0.00  0.00    +0.000 HD
ENDBRANCH   1  19
BRANCH   7  21
ATOM     21  O   UNL     1       0.420  10.662  20.424  0.00  0.00    +0.000 OA
ATOM     22  H   UNL     1      -0.425  10.905  20.024  0.00  0.00    +0.000 HD
ENDBRANCH   7  21
BRANCH  10  23
ATOM     23  C   UNL     1       5.929   5.827  17.826  0.00  0.00    +0.000 C 
BRANCH  23  24
ATOM     24  C   UNL     1       6.154   5.188  16.476  0.00  0.00    +0.000 A 
ATOM     25  C   UNL     1       7.157   5.536  15.581  0.00  0.00    +0.000 A 
ATOM     26  C   UNL     1       7.132   4.785  14.401  0.00  0.00    +0.000 A 
ATOM     27  C   UNL     1       6.104   3.854  14.356  0.00  0.00    +0.000 A 
ATOM     28  S   UNL     1       5.228   3.958  15.789  0.00  0.00    +0.000 S 
ENDBRANCH  23  24
ENDBRANCH  10  23
TORSDOF 5
ENDMDL
MODEL 3
REMARK VINA RESULT:      -6.0      8.357     11.204
REMARK  Name = 
REMARK  5 active torsions:
REMARK  status: ('A' for Active; 'I' for Inactive)
REMARK    1  A    between atoms: O_1  and  C_2
REMARK    2  A    between atoms: C_8  and  O_9
REMARK    3  A    between atoms: N_12  and  C_13
REMARK    4  A    between atoms: C_13  and  C_14
REMARK    5  A    between atoms: C_20  and  C_21
REMARK                            x       y       z     vdW  Elec       q    Type
REMARK                         _______ _______ _______ _____ _____    ______ ____
ROOT
ATOM      1  C   UNL     1      -3.450  14.439  24.511  0.00  0.00    +0.000 A 
ATOM      2  C   UNL     1      -2.214  14.002  24.040  0.00  0.00    +0.000 A 
ATOM      3  C   UNL     1      -2.109  13.266  22.847  0.00  0.00    +0.000 A 
ATOM      4  C   UNL     1      -3.278  12.963  22.115  0.00  0.00    +0.000 A 
ATOM      5  C   UNL     1      -4.548  13.352  22.635  0.00  0.00    +0.000 A 
ATOM      6 CL   UNL     1      -6.054  12.991  21.778  0.00  0.00    +0.000 Cl
ATOM      7  C   UNL     1      -4.619  14.100  23.830  0.00  0.00    +0.000 A 
ATOM      8  C   UNL     1      -3.165  12.294  20.760  0.00  0.00    +0.000 C 
ATOM      9  C   UNL     1      -2.481  13.225  19.745  0.00  0.00    +0.000 C 
ATOM     10  N   UNL     1      -1.007  13.326  19.862  0.00  0.00    +0.000 NA
ATOM     11  C   UNL     1      -0.459  13.857  21.128  0.00  0.00    +0.000 C 
ATOM     12  C   UNL     1      -0.708  12.947  22.338  0.00  0.00    +0.000 C 
ENDROOT
BRANCH  12  13
ATOM     13  C   UNL     1      -0.340  11.469  22.109  0.00  0.00    +0.000 A 
ATOM     14  C   UNL     1       0.537  11.107  21.057  0.00  0.00    +0.000 A 
ATOM     15  C   UNL     1       0.890   9.775  20.834  0.00  0.00    +0.000 A 
ATOM     16  C   UNL     1       0.399   8.777  21.665  0.00  0.00    +0.000 A 
ATOM     17  C   UNL     1      -0.456   9.106  22.723  0.00  0.00    +0.000 A 
ATOM     18  C   UNL     1      -0.825  10.441  22.944  0.00  0.00    +0.000 A 
ENDBRANCH  12  13
BRANCH   1  19
ATOM     19  O   UNL     1      -3.518  15.213  25.613  0.00  0.00    +0.000 OA
ATOM     20  H   UNL     1      -4.171  15.065  26.313  0.00  0.00    +0.000 HD
ENDBRANCH   1  19
BRANCH   7  21
ATOM     21  O   UNL     1      -5.800  14.533  24.328  0.00  0.00    +0.000 OA
ATOM     22  H   UNL     1      -6.449  13.967  24.765  0.00  0.00    +0.000 HD
ENDBRANCH   7  21
BRANCH  10  23
ATOM     23  C   UNL     1      -0.443  14.077  18.710  0.00  0.00    +0.000 C 
BRANCH  23  24
ATOM     24  C   UNL     1       1.068  14.109  18.688  0.00  0.00    +0.000 A 
ATOM     25  C   UNL     1       1.887  13.044  18.337  0.00  0.00    +0.000 A 
ATOM     26  C   UNL     1       3.251  13.347  18.409  0.00  0.00    +0.000 A 
ATOM     27  C   UNL     1       3.511  14.645  18.828  0.00  0.00    +0.000 A 
ATOM     28  S   UNL     1       2.042  15.420  19.103  0.00  0.00    +0.000 S 
ENDBRANCH  23  24
ENDBRANCH  10  23
TORSDOF 5
ENDMDL
MODEL 4
REMARK VINA RESULT:      -6.0      4.010      6.791
REMARK  Name = 
REMARK  5 active torsions:
REMARK  status: ('A' for Active; 'I' for Inactive)
REMARK    1  A    between atoms: O_1  and  C_2
REMARK    2  A    between atoms: C_8  and  O_9
REMARK    3  A    between atoms: N_12  and  C_13
REMARK    4  A    between atoms: C_13  and  C_14
REMARK    5  A    between atoms: C_20  and  C_21
REMARK                            x       y       z     vdW  Elec       q    Type
REMARK                         _______ _______ _______ _____ _____    ______ ____
ROOT
ATOM      1  C   UNL     1       3.059   7.802  17.830  0.00  0.00    +0.000 A 
ATOM      2  C   UNL     1       2.302   8.953  17.617  0.00  0.00    +0.000 A 
ATOM      3  C   UNL     1       1.314   9.354  18.532  0.00  0.00    +0.000 A 
ATOM      4  C   UNL     1       1.085   8.575  19.687  0.00  0.00    +0.000 A 
ATOM      5  C   UNL     1       1.812   7.361  19.868  0.00  0.00    +0.000 A 
ATOM      6 CL   UNL     1       1.563   6.329  21.284  0.00  0.00    +0.000 Cl
ATOM      7  C   UNL     1       2.806   6.992  18.936  0.00  0.00    +0.000 A 
ATOM      8  C   UNL     1       0.124   9.069  20.750  0.00  0.00    +0.000 C 
ATOM      9  C   UNL     1       0.661  10.343  21.423  0.00  0.00    +0.000 C 
ATOM     10  N   UNL     1       0.503  11.594  20.642  0.00  0.00    +0.000 NA
ATOM     11  C   UNL     1       1.188  11.671  19.334  0.00  0.00    +0.000 C 
ATOM     12  C   UNL     1       0.632  10.695  18.289  0.00  0.00    +0.000 C 
ENDROOT
BRANCH  12  13
ATOM     13  C   UNL     1      -0.903  10.712  18.155  0.00  0.00    +0.000 A 
ATOM     14  C   UNL     1      -1.658  11.756  18.742  0.00  0.00    +0.000 A 
ATOM     15  C   UNL     1      -3.049  11.797  18.629  0.00  0.00    +0.000 A 
ATOM     16  C   UNL     1      -3.717  10.814  17.910  0.00  0.00    +0.000 A 
ATOM     17  C   UNL     1      -2.996   9.779  17.304  0.00  0.00    +0.000 A 
ATOM     18  C   UNL     1      -1.600   9.725  17.426  0.00  0.00    +0.000 A 
ENDBRANCH  12  13
BRANCH   1  19
ATOM     19  O   UNL     1       4.056   7.482  16.979  0.00  0.00    +0.000 OA
ATOM     20  H   UNL     1       4.029   6.692  16.420  0.00  0.00    +0.000 HD
ENDBRANCH   1  19
BRANCH   7  21
ATOM     21  O   UNL     1       3.554   5.877  19.099  0.00  0.00    +0.000 OA
ATOM     22  H   UNL     1       4.097   5.478  18.406  0.00  0.00    +0.000 HD
ENDBRANCH   7  21
BRANCH  10  23
ATOM     23  C   UNL     1       0.860  12.774  21.472  0.00  0.00    +0.000 C 
BRANCH  23  24
ATOM     24  C   UNL     1      -0.330  13.441  22.122  0.00  0.00    +0.000 A 
ATOM     25  C   UNL     1      -1.553  12.832  22.369  0.00  0.00    +0.000 A 
ATOM     26  C   UNL     1      -2.483  13.683  22.978  0.00  0.00    +0.000 A 
ATOM     27  C   UNL     1      -2.000  14.965  23.201  0.00  0.00    +0.000 A 
ATOM     28  S   UNL     1      -0.412  15.040  22.647  0.00  0.00    +0.000 S 
ENDBRANCH  23  24
ENDBRANCH  10  23
TORSDOF 5
ENDMDL
MODEL 5
REMARK VINA RESULT:      -5.9      4.191      7.023
REMARK  Name = 
REMARK  5 active torsions:
REMARK  status: ('A' for Active; 'I' for Inactive)
REMARK    1  A    between atoms: O_1  and  C_2
REMARK    2  A    between atoms: C_8  and  O_9
REMARK    3  A    between atoms: N_12  and  C_13
REMARK    4  A    between atoms: C_13  and  C_14
REMARK    5  A    between atoms: C_20  and  C_21
REMARK                            x       y       z     vdW  Elec       q    Type
REMARK                         _______ _______ _______ _____ _____    ______ ____
ROOT
ATOM      1  C   UNL     1       2.952   7.898  17.891  0.00  0.00    +0.000 A 
ATOM      2  C   UNL     1       2.197   9.041  17.639  0.00  0.00    +0.000 A 
ATOM      3  C   UNL     1       1.211   9.476  18.541  0.00  0.00    +0.000 A 
ATOM      4  C   UNL     1       0.982   8.739  19.723  0.00  0.00    +0.000 A 
ATOM      5  C   UNL     1       1.708   7.532  19.946  0.00  0.00    +0.000 A 
ATOM      6 CL   UNL     1       1.460   6.551  21.399  0.00  0.00    +0.000 Cl
ATOM      7  C   UNL     1       2.700   7.128  19.026  0.00  0.00    +0.000 A 
ATOM      8  C   UNL     1       0.024   9.273  20.769  0.00  0.00    +0.000 C 
ATOM      9  C   UNL     1       0.564  10.570  21.396  0.00  0.00    +0.000 C 
ATOM     10  N   UNL     1       0.407  11.792  20.571  0.00  0.00    +0.000 NA
ATOM     11  C   UNL     1       1.089  11.821  19.259  0.00  0.00    +0.000 C 
ATOM     12  C   UNL     1       0.530  10.809  18.251  0.00  0.00    +0.000 C 
ENDROOT
BRANCH  12  13
ATOM     13  C   UNL     1      -1.005  10.823  18.119  0.00  0.00    +0.000 A 
ATOM     14  C   UNL     1      -1.666   9.814  17.375  0.00  0.00    +0.000 A 
ATOM     15  C   UNL     1      -3.056   9.802  17.247  0.00  0.00    +0.000 A 
ATOM     16  C   UNL     1      -3.820  10.778  17.874  0.00  0.00    +0.000 A 
ATOM     17  C   UNL     1      -3.197  11.777  18.629  0.00  0.00    +0.000 A 
ATOM     18  C   UNL     1      -1.800  11.802  18.750  0.00  0.00    +0.000 A 
ENDBRANCH  12  13
BRANCH   1  19
ATOM     19  O   UNL     1       3.948   7.546  17.052  0.00  0.00    +0.000 OA
ATOM     20  H   UNL     1       4.736   8.093  16.923  0.00  0.00    +0.000 HD
ENDBRANCH   1  19
BRANCH   7  21
ATOM     21  O   UNL     1       3.446   6.018  19.227  0.00  0.00    +0.000 OA
ATOM     22  H   UNL     1       3.088   5.157  19.478  0.00  0.00    +0.000 HD
ENDBRANCH   7  21
BRANCH  10  23
ATOM     23  C   UNL     1       0.767  13.000  21.357  0.00  0.00    +0.000 C 
BRANCH  23  24
ATOM     24  C   UNL     1      -0.420  13.859  21.726  0.00  0.00    +0.000 A 
ATOM     25  C   UNL     1      -1.042  14.772  20.884  0.00  0.00    +0.000 A 
ATOM     26  C   UNL     1      -2.116  15.438  21.485  0.00  0.00    +0.000 A 
ATOM     27  C   UNL     1      -2.335  15.063  22.804  0.00  0.00    +0.000 A 
ATOM     28  S   UNL     1      -1.197  13.896  23.222  0.00  0.00    +0.000 S 
ENDBRANCH  23  24
ENDBRANCH  10  23
TORSDOF 5
ENDMDL
MODEL 6
REMARK VINA RESULT:      -5.9      4.314      7.077
REMARK  Name = 
REMARK  5 active torsions:
REMARK  status: ('A' for Active; 'I' for Inactive)
REMARK    1  A    between atoms: O_1  and  C_2
REMARK    2  A    between atoms: C_8  and  O_9
REMARK    3  A    between atoms: N_12  and  C_13
REMARK    4  A    between atoms: C_13  and  C_14
REMARK    5  A    between atoms: C_20  and  C_21
REMARK                            x       y       z     vdW  Elec       q    Type
REMARK                         _______ _______ _______ _____ _____    ______ ____
ROOT
ATOM      1  C   UNL     1       2.951   7.851  17.900  0.00  0.00    +0.000 A 
ATOM      2  C   UNL     1       2.198   8.986  17.605  0.00  0.00    +0.000 A 
ATOM      3  C   UNL     1       1.229   9.469  18.500  0.00  0.00    +0.000 A 
ATOM      4  C   UNL     1       1.014   8.790  19.720  0.00  0.00    +0.000 A 
ATOM      5  C   UNL     1       1.737   7.590  19.989  0.00  0.00    +0.000 A 
ATOM      6 CL   UNL     1       1.506   6.680  21.489  0.00  0.00    +0.000 Cl
ATOM      7  C   UNL     1       2.712   7.137  19.074  0.00  0.00    +0.000 A 
ATOM      8  C   UNL     1       0.075   9.378  20.754  0.00  0.00    +0.000 C 
ATOM      9  C   UNL     1       0.631  10.699  21.310  0.00  0.00    +0.000 C 
ATOM     10  N   UNL     1       0.468  11.882  20.431  0.00  0.00    +0.000 NA
ATOM     11  C   UNL     1       1.129  11.845  19.109  0.00  0.00    +0.000 C 
ATOM     12  C   UNL     1       0.550  10.790  18.158  0.00  0.00    +0.000 C 
ENDROOT
BRANCH  12  13
ATOM     13  C   UNL     1      -0.987  10.807  18.049  0.00  0.00    +0.000 A 
ATOM     14  C   UNL     1      -1.662   9.788  17.333  0.00  0.00    +0.000 A 
ATOM     15  C   UNL     1      -3.054   9.778  17.225  0.00  0.00    +0.000 A 
ATOM     16  C   UNL     1      -3.805  10.767  17.847  0.00  0.00    +0.000 A 
ATOM     17  C   UNL     1      -3.168  11.776  18.575  0.00  0.00    +0.000 A 
ATOM     18  C   UNL     1      -1.769  11.799  18.676  0.00  0.00    +0.000 A 
ENDBRANCH  12  13
BRANCH   1  19
ATOM     19  O   UNL     1       3.932   7.455  17.063  0.00  0.00    +0.000 OA
ATOM     20  H   UNL     1       4.016   7.798  16.161  0.00  0.00    +0.000 HD
ENDBRANCH   1  19
BRANCH   7  21
ATOM     21  O   UNL     1       3.456   6.034  19.316  0.00  0.00    +0.000 OA
ATOM     22  H   UNL     1       3.092   5.171  19.552  0.00  0.00    +0.000 HD
ENDBRANCH   7  21
BRANCH  10  23
ATOM     23  C   UNL     1       0.846  13.124  21.153  0.00  0.00    +0.000 C 
BRANCH  23  24
ATOM     24  C   UNL     1       0.608  14.386  20.356  0.00  0.00    +0.000 A 
ATOM     25  C   UNL     1      -0.637  14.883  19.994  0.00  0.00    +0.000 A 
ATOM     26  C   UNL     1      -0.566  16.067  19.252  0.00  0.00    +0.000 A 
ATOM     27  C   UNL     1       0.732  16.498  19.015  0.00  0.00    +0.000 A 
ATOM     28  S   UNL     1       1.795  15.411  19.737  0.00  0.00    +0.000 S 
ENDBRANCH  23  24
ENDBRANCH  10  23
TORSDOF 5
ENDMDL
MODEL 7
REMARK VINA RESULT:      -5.9      7.500     11.095
REMARK  Name = 
REMARK  5 active torsions:
REMARK  status: ('A' for Active; 'I' for Inactive)
REMARK    1  A    between atoms: O_1  and  C_2
REMARK    2  A    between atoms: C_8  and  O_9
REMARK    3  A    between atoms: N_12  and  C_13
REMARK    4  A    between atoms: C_13  and  C_14
REMARK    5  A    between atoms: C_20  and  C_21
REMARK                            x       y       z     vdW  Elec       q    Type
REMARK                         _______ _______ _______ _____ _____    ______ ____
ROOT
ATOM      1  C   UNL     1      -0.451  10.243  22.822  0.00  0.00    +0.000 A 
ATOM      2  C   UNL     1      -1.280  11.353  22.972  0.00  0.00    +0.000 A 
ATOM      3  C   UNL     1      -1.747  12.069  21.857  0.00  0.00    +0.000 A 
ATOM      4  C   UNL     1      -1.368  11.656  20.561  0.00  0.00    +0.000 A 
ATOM      5  C   UNL     1      -0.464  10.563  20.413  0.00  0.00    +0.000 A 
ATOM      6 CL   UNL     1       0.065  10.002  18.819  0.00  0.00    +0.000 Cl
ATOM      7  C   UNL     1      -0.022   9.857  21.553  0.00  0.00    +0.000 A 
ATOM      8  C   UNL     1      -1.975  12.331  19.348  0.00  0.00    +0.000 C 
ATOM      9  C   UNL     1      -3.484  12.043  19.260  0.00  0.00    +0.000 C 
ATOM     10  N   UNL     1      -4.341  12.832  20.177  0.00  0.00    +0.000 NA
ATOM     11  C   UNL     1      -4.118  12.665  21.629  0.00  0.00    +0.000 C 
ATOM     12  C   UNL     1      -2.756  13.184  22.109  0.00  0.00    +0.000 C 
ENDROOT
BRANCH  12  13
ATOM     13  C   UNL     1      -2.406  14.601  21.616  0.00  0.00    +0.000 A 
ATOM     14  C   UNL     1      -1.063  15.052  21.640  0.00  0.00    +0.000 A 
ATOM     15  C   UNL     1      -0.720  16.330  21.193  0.00  0.00    +0.000 A 
ATOM     16  C   UNL     1      -1.700  17.177  20.692  0.00  0.00    +0.000 A 
ATOM     17  C   UNL     1      -3.032  16.752  20.639  0.00  0.00    +0.000 A 
ATOM     18  C   UNL     1      -3.385  15.475  21.099  0.00  0.00    +0.000 A 
ENDBRANCH  12  13
BRANCH   1  19
ATOM     19  O   UNL     1      -0.082   9.523  23.902  0.00  0.00    +0.000 OA
ATOM     20  H   UNL     1       0.095   8.572  23.856  0.00  0.00    +0.000 HD
ENDBRANCH   1  19
BRANCH   7  21
ATOM     21  O   UNL     1       0.793   8.781  21.451  0.00  0.00    +0.000 OA
ATOM     22  H   UNL     1       1.642   8.695  21.904  0.00  0.00    +0.000 HD
ENDBRANCH   7  21
BRANCH  10  23
ATOM     23  C   UNL     1      -5.776  12.624  19.856  0.00  0.00    +0.000 C 
BRANCH  23  24
ATOM     24  C   UNL     1      -6.281  13.505  18.736  0.00  0.00    +0.000 A 
ATOM     25  C   UNL     1      -6.497  14.873  18.828  0.00  0.00    +0.000 A 
ATOM     26  C   UNL     1      -6.972  15.440  17.640  0.00  0.00    +0.000 A 
ATOM     27  C   UNL     1      -7.145  14.520  16.615  0.00  0.00    +0.000 A 
ATOM     28  S   UNL     1      -6.698  13.000  17.183  0.00  0.00    +0.000 S 
ENDBRANCH  23  24
ENDBRANCH  10  23
TORSDOF 5
ENDMDL
MODEL 8
REMARK VINA RESULT:      -5.9      8.145      9.939
REMARK  Name = 
REMARK  5 active torsions:
REMARK  status: ('A' for Active; 'I' for Inactive)
REMARK    1  A    between atoms: O_1  and  C_2
REMARK    2  A    between atoms: C_8  and  O_9
REMARK    3  A    between atoms: N_12  and  C_13
REMARK    4  A    between atoms: C_13  and  C_14
REMARK    5  A    between atoms: C_20  and  C_21
REMARK                            x       y       z     vdW  Elec       q    Type
REMARK                         _______ _______ _______ _____ _____    ______ ____
ROOT
ATOM      1  C   UNL     1       3.681  15.121  20.079  0.00  0.00    +0.000 A 
ATOM      2  C   UNL     1       2.979  14.066  20.657  0.00  0.00    +0.000 A 
ATOM      3  C   UNL     1       1.608  13.882  20.411  0.00  0.00    +0.000 A 
ATOM      4  C   UNL     1       0.931  14.786  19.563  0.00  0.00    +0.000 A 
ATOM      5  C   UNL     1       1.635  15.904  19.028  0.00  0.00    +0.000 A 
ATOM      6 CL   UNL     1       0.844  17.084  17.971  0.00  0.00    +0.000 Cl
ATOM      7  C   UNL     1       3.015  16.054  19.285  0.00  0.00    +0.000 A 
ATOM      8  C   UNL     1      -0.511  14.520  19.178  0.00  0.00    +0.000 C 
ATOM      9  C   UNL     1      -0.622  13.252  18.315  0.00  0.00    +0.000 C 
ATOM     10  N   UNL     1      -0.540  11.967  19.051  0.00  0.00    +0.000 NA
ATOM     11  C   UNL     1       0.709  11.684  19.789  0.00  0.00    +0.000 C 
ATOM     12  C   UNL     1       0.954  12.626  20.975  0.00  0.00    +0.000 C 
ENDROOT
BRANCH  12  13
ATOM     13  C   UNL     1      -0.259  12.800  21.910  0.00  0.00    +0.000 A 
ATOM     14  C   UNL     1      -0.459  14.022  22.597  0.00  0.00    +0.000 A 
ATOM     15  C   UNL     1      -1.554  14.206  23.445  0.00  0.00    +0.000 A 
ATOM     16  C   UNL     1      -2.484  13.188  23.609  0.00  0.00    +0.000 A 
ATOM     17  C   UNL     1      -2.321  11.976  22.930  0.00  0.00    +0.000 A 
ATOM     18  C   UNL     1      -1.217  11.780  22.088  0.00  0.00    +0.000 A 
ENDBRANCH  12  13
BRANCH   1  19
ATOM     19  O   UNL     1       5.014  15.229  20.264  0.00  0.00    +0.000 OA
ATOM     20  H   UNL     1       5.656  14.916  19.610  0.00  0.00    +0.000 HD
ENDBRANCH   1  19
BRANCH   7  21
ATOM     21  O   UNL     1       3.731  17.071  18.753  0.00  0.00    +0.000 OA
ATOM     22  H   UNL     1       4.626  16.983  18.400  0.00  0.00    +0.000 HD
ENDBRANCH   7  21
BRANCH  10  23
ATOM     23  C   UNL     1      -0.869  10.830  18.153  0.00  0.00    +0.000 C 
BRANCH  23  24
ATOM     24  C   UNL     1      -2.227  10.946  17.500  0.00  0.00    +0.000 A 
ATOM     25  C   UNL     1      -2.496  10.693  16.161  0.00  0.00    +0.000 A 
ATOM     26  C   UNL     1      -3.840  10.884  15.821  0.00  0.00    +0.000 A 
ATOM     27  C   UNL     1      -4.629  11.301  16.885  0.00  0.00    +0.000 A 
ATOM     28  S   UNL     1      -3.657  11.424  18.253  0.00  0.00    +0.000 S 
ENDBRANCH  23  24
ENDBRANCH  10  23
TORSDOF 5
ENDMDL
MODEL 9
REMARK VINA RESULT:      -5.8      9.041     11.642
REMARK  Name = 
REMARK  5 active torsions:
REMARK  status: ('A' for Active; 'I' for Inactive)
REMARK    1  A    between atoms: O_1  and  C_2
REMARK    2  A    between atoms: C_8  and  O_9
REMARK    3  A    between atoms: N_12  and  C_13
REMARK    4  A    between atoms: C_13  and  C_14
REMARK    5  A    between atoms: C_20  and  C_21
REMARK                            x       y       z     vdW  Elec       q    Type
REMARK                         _______ _______ _______ _____ _____    ______ ____
ROOT
ATOM      1  C   UNL     1      -4.376  12.775  24.264  0.00  0.00    +0.000 A 
ATOM      2  C   UNL     1      -3.313  12.195  23.575  0.00  0.00    +0.000 A 
ATOM      3  C   UNL     1      -2.783  12.793  22.419  0.00  0.00    +0.000 A 
ATOM      4  C   UNL     1      -3.339  14.002  21.949  0.00  0.00    +0.000 A 
ATOM      5  C   UNL     1      -4.470  14.557  22.615  0.00  0.00    +0.000 A 
ATOM      6 CL   UNL     1      -5.227  16.062  22.070  0.00  0.00    +0.000 Cl
ATOM      7  C   UNL     1      -4.973  13.938  23.780  0.00  0.00    +0.000 A 
ATOM      8  C   UNL     1      -2.687  14.729  20.789  0.00  0.00    +0.000 C 
ATOM      9  C   UNL     1      -1.291  15.243  21.180  0.00  0.00    +0.000 C 
ATOM     10  N   UNL     1      -0.216  14.223  21.196  0.00  0.00    +0.000 NA
ATOM     11  C   UNL     1      -0.362  13.094  22.140  0.00  0.00    +0.000 C 
ATOM     12  C   UNL     1      -1.535  12.162  21.810  0.00  0.00    +0.000 C 
ENDROOT
BRANCH  12  13
ATOM     13  C   UNL     1      -1.598  11.714  20.337  0.00  0.00    +0.000 A 
ATOM     14  C   UNL     1      -0.507  11.021  19.757  0.00  0.00    +0.000 A 
ATOM     15  C   UNL     1      -0.542  10.598  18.426  0.00  0.00    +0.000 A 
ATOM     16  C   UNL     1      -1.671  10.834  17.652  0.00  0.00    +0.000 A 
ATOM     17  C   UNL     1      -2.770  11.501  18.203  0.00  0.00    +0.000 A 
ATOM     18  C   UNL     1      -2.736  11.940  19.535  0.00  0.00    +0.000 A 
ENDBRANCH  12  13
BRANCH   1  19
ATOM     19  O   UNL     1      -4.815  12.226  25.416  0.00  0.00    +0.000 OA
ATOM     20  H   UNL     1      -5.091  12.761  26.174  0.00  0.00    +0.000 HD
ENDBRANCH   1  19
BRANCH   7  21
ATOM     21  O   UNL     1      -6.011  14.462  24.472  0.00  0.00    +0.000 OA
ATOM     22  H   UNL     1      -5.938  14.861  25.349  0.00  0.00    +0.000 HD
ENDBRANCH   7  21
BRANCH  10  23
ATOM     23  C   UNL     1       1.111  14.868  21.377  0.00  0.00    +0.000 C 
BRANCH  23  24
ATOM     24  C   UNL     1       2.057  14.643  20.221  0.00  0.00    +0.000 A 
ATOM     25  C   UNL     1       1.740  13.982  19.042  0.00  0.00    +0.000 A 
ATOM     26  C   UNL     1       2.808  13.912  18.141  0.00  0.00    +0.000 A 
ATOM     27  C   UNL     1       3.972  14.505  18.611  0.00  0.00    +0.000 A 
ATOM     28  S   UNL     1       3.671  15.125  20.147  0.00  0.00    +0.000 S 
ENDBRANCH  23  24
ENDBRANCH  10  23
TORSDOF 5
ENDMDL
