MODEL 1
REMARK VINA RESULT:      -8.1      0.000      0.000
REMARK  Name = 
REMARK  4 active torsions:
REMARK  status: ('A' for Active; 'I' for Inactive)
REMARK    1  A    between atoms: C_2  and  C_11
REMARK    2  A    between atoms: N_3  and  C_4
REMARK    3  A    between atoms: C_4  and  C_5
REMARK    4  A    between atoms: C_13  and  C_14
REMARK                            x       y       z     vdW  Elec       q    Type
REMARK                         _______ _______ _______ _____ _____    ______ ____
ROOT
ATOM      1  C   UNL     1       5.089   4.078  16.178  0.00  0.00    +0.000 A 
ATOM      2  N   UNL     1       5.256   3.789  14.855  0.00  0.00    +0.000 NA
ATOM      3  C   UNL     1       6.280   4.395  14.224  0.00  0.00    +0.000 A 
ATOM      4  N   UNL     1       7.097   5.274  14.831  0.00  0.00    +0.000 NA
ATOM      5  C   UNL     1       6.886   5.537  16.132  0.00  0.00    +0.000 A 
ATOM      6  C   UNL     1       5.899   4.942  16.887  0.00  0.00    +0.000 A 
ATOM      7  O   UNL     1       5.728   5.177  18.218  0.00  0.00    +0.000 OA
ATOM      8  C   UNL     1       6.885   5.770  18.812  0.00  0.00    +0.000 C 
ATOM      9  C   UNL     1       7.375   6.915  17.946  0.00  0.00    +0.000 C 
ATOM     10  O   UNL     1       7.781   6.434  16.662  0.00  0.00    +0.000 OA
ENDROOT
BRANCH   1  12
ATOM     11  O   UNL     1       2.784   3.620  16.678  0.00  0.00    +0.000 OA
ATOM     12  C   UNL     1       3.964   3.339  16.852  0.00  0.00    +0.000 C 
ATOM     13  N   UNL     1       4.360   2.318  17.696  0.00  0.00    +0.000 N 
ATOM     14  H   UNL     1       5.356   2.144  17.782  0.00  0.00    +0.000 HD
BRANCH  13  15
ATOM     15  C   UNL     1       3.408   1.500  18.410  0.00  0.00    +0.000 C 
BRANCH  15  16
ATOM     16  C   UNL     1       2.753   2.240  19.537  0.00  0.00    +0.000 A 
ATOM     17  C   UNL     1       1.449   2.739  19.436  0.00  0.00    +0.000 A 
ATOM     18  C   UNL     1       0.863   3.367  20.531  0.00  0.00    +0.000 A 
ATOM     19  C   UNL     1       1.597   3.473  21.699  0.00  0.00    +0.000 A 
ATOM     20  N   UNL     1       2.854   3.000  21.840  0.00  0.00    +0.000 NA
ATOM     21  C   UNL     1       3.397   2.392  20.760  0.00  0.00    +0.000 A 
ENDBRANCH  15  16
ENDBRANCH  13  15
ENDBRANCH   1  12
BRANCH   3  22
ATOM     22  C   UNL     1       6.598   4.014  12.799  0.00  0.00    +0.000 C 
ATOM     23  C   UNL     1       6.278   2.647  12.242  0.00  0.00    +0.000 C 
ATOM     24  C   UNL     1       5.476   3.834  11.801  0.00  0.00    +0.000 C 
ENDBRANCH   3  22
TORSDOF 4
ENDMDL
MODEL 2
REMARK VINA RESULT:      -7.9      4.662      6.409
REMARK  Name = 
REMARK  4 active torsions:
REMARK  status: ('A' for Active; 'I' for Inactive)
REMARK    1  A    between atoms: C_2  and  C_11
REMARK    2  A    between atoms: N_3  and  C_4
REMARK    3  A    between atoms: C_4  and  C_5
REMARK    4  A    between atoms: C_13  and  C_14
REMARK                            x       y       z     vdW  Elec       q    Type
REMARK                         _______ _______ _______ _____ _____    ______ ____
ROOT
ATOM      1  C   UNL     1       3.304   6.236  18.924  0.00  0.00    +0.000 A 
ATOM      2  N   UNL     1       4.587   6.205  18.459  0.00  0.00    +0.000 NA
ATOM      3  C   UNL     1       5.298   5.089  18.708  0.00  0.00    +0.000 A 
ATOM      4  N   UNL     1       4.809   4.051  19.409  0.00  0.00    +0.000 NA
ATOM      5  C   UNL     1       3.546   4.132  19.858  0.00  0.00    +0.000 A 
ATOM      6  C   UNL     1       2.712   5.204  19.623  0.00  0.00    +0.000 A 
ATOM      7  O   UNL     1       1.416   5.252  20.038  0.00  0.00    +0.000 OA
ATOM      8  C   UNL     1       0.912   3.958  20.375  0.00  0.00    +0.000 C 
ATOM      9  C   UNL     1       1.911   3.232  21.254  0.00  0.00    +0.000 C 
ATOM     10  O   UNL     1       3.136   3.016  20.548  0.00  0.00    +0.000 OA
ENDROOT
BRANCH   1  12
ATOM     11  O   UNL     1       2.488   7.942  17.442  0.00  0.00    +0.000 OA
ATOM     12  C   UNL     1       2.533   7.482  18.577  0.00  0.00    +0.000 C 
ATOM     13  N   UNL     1       1.882   8.079  19.640  0.00  0.00    +0.000 N 
ATOM     14  H   UNL     1       1.964   7.634  20.547  0.00  0.00    +0.000 HD
BRANCH  13  15
ATOM     15  C   UNL     1       1.086   9.274  19.478  0.00  0.00    +0.000 C 
BRANCH  15  16
ATOM     16  C   UNL     1       0.424   9.697  20.754  0.00  0.00    +0.000 A 
ATOM     17  C   UNL     1      -0.038   8.765  21.692  0.00  0.00    +0.000 A 
ATOM     18  C   UNL     1      -0.594   9.209  22.889  0.00  0.00    +0.000 A 
ATOM     19  C   UNL     1      -0.667  10.572  23.115  0.00  0.00    +0.000 A 
ATOM     20  N   UNL     1      -0.227  11.502  22.240  0.00  0.00    +0.000 NA
ATOM     21  C   UNL     1       0.310  11.042  21.087  0.00  0.00    +0.000 A 
ENDBRANCH  15  16
ENDBRANCH  13  15
ENDBRANCH   1  12
BRANCH   3  22
ATOM     22  C   UNL     1       6.673   4.940  18.105  0.00  0.00    +0.000 C 
ATOM     23  C   UNL     1       7.391   6.094  17.447  0.00  0.00    +0.000 C 
ATOM     24  C   UNL     1       7.863   5.589  18.777  0.00  0.00    +0.000 C 
ENDBRANCH   3  22
TORSDOF 4
ENDMDL
MODEL 3
REMARK VINA RESULT:      -7.8      1.109      1.272
REMARK  Name = 
REMARK  4 active torsions:
REMARK  status: ('A' for Active; 'I' for Inactive)
REMARK    1  A    between atoms: C_2  and  C_11
REMARK    2  A    between atoms: N_3  and  C_4
REMARK    3  A    between atoms: C_4  and  C_5
REMARK    4  A    between atoms: C_13  and  C_14
REMARK                            x       y       z     vdW  Elec       q    Type
REMARK                         _______ _______ _______ _____ _____    ______ ____
ROOT
ATOM      1  C   UNL     1       5.003   4.135  16.224  0.00  0.00    +0.000 A 
ATOM      2  N   UNL     1       5.104   3.799  14.905  0.00  0.00    +0.000 NA
ATOM      3  C   UNL     1       6.113   4.357  14.210  0.00  0.00    +0.000 A 
ATOM      4  N   UNL     1       6.977   5.234  14.751  0.00  0.00    +0.000 NA
ATOM      5  C   UNL     1       6.831   5.544  16.050  0.00  0.00    +0.000 A 
ATOM      6  C   UNL     1       5.865   5.000  16.867  0.00  0.00    +0.000 A 
ATOM      7  O   UNL     1       5.760   5.282  18.196  0.00  0.00    +0.000 OA
ATOM      8  C   UNL     1       6.956   5.863  18.718  0.00  0.00    +0.000 C 
ATOM      9  C   UNL     1       7.434   6.967  17.794  0.00  0.00    +0.000 C 
ATOM     10  O   UNL     1       7.771   6.435  16.510  0.00  0.00    +0.000 OA
ENDROOT
BRANCH   1  12
ATOM     11  O   UNL     1       4.027   2.353  17.506  0.00  0.00    +0.000 OA
ATOM     12  C   UNL     1       3.891   3.446  16.971  0.00  0.00    +0.000 C 
ATOM     13  N   UNL     1       2.695   4.138  17.002  0.00  0.00    +0.000 N 
ATOM     14  H   UNL     1       2.665   5.040  16.539  0.00  0.00    +0.000 HD
BRANCH  13  15
ATOM     15  C   UNL     1       1.532   3.626  17.688  0.00  0.00    +0.000 C 
BRANCH  15  16
ATOM     16  C   UNL     1       1.700   3.628  19.177  0.00  0.00    +0.000 A 
ATOM     17  C   UNL     1       1.455   2.487  19.951  0.00  0.00    +0.000 A 
ATOM     18  C   UNL     1       1.682   2.522  21.324  0.00  0.00    +0.000 A 
ATOM     19  C   UNL     1       2.152   3.698  21.883  0.00  0.00    +0.000 A 
ATOM     20  N   UNL     1       2.406   4.817  21.172  0.00  0.00    +0.000 NA
ATOM     21  C   UNL     1       2.179   4.753  19.840  0.00  0.00    +0.000 A 
ENDBRANCH  15  16
ENDBRANCH  13  15
ENDBRANCH   1  12
BRANCH   3  22
ATOM     22  C   UNL     1       6.357   3.923  12.786  0.00  0.00    +0.000 C 
ATOM     23  C   UNL     1       6.102   2.508  12.322  0.00  0.00    +0.000 C 
ATOM     24  C   UNL     1       5.183   3.609  11.884  0.00  0.00    +0.000 C 
ENDBRANCH   3  22
TORSDOF 4
ENDMDL
MODEL 4
REMARK VINA RESULT:      -7.8      4.397      6.220
REMARK  Name = 
REMARK  4 active torsions:
REMARK  status: ('A' for Active; 'I' for Inactive)
REMARK    1  A    between atoms: C_2  and  C_11
REMARK    2  A    between atoms: N_3  and  C_4
REMARK    3  A    between atoms: C_4  and  C_5
REMARK    4  A    between atoms: C_13  and  C_14
REMARK                            x       y       z     vdW  Elec       q    Type
REMARK                         _______ _______ _______ _____ _____    ______ ____
ROOT
ATOM      1  C   UNL     1       3.522   6.169  18.546  0.00  0.00    +0.000 A 
ATOM      2  N   UNL     1       2.767   5.267  19.238  0.00  0.00    +0.000 NA
ATOM      3  C   UNL     1       3.360   4.104  19.570  0.00  0.00    +0.000 A 
ATOM      4  N   UNL     1       4.623   3.801  19.223  0.00  0.00    +0.000 NA
ATOM      5  C   UNL     1       5.324   4.716  18.532  0.00  0.00    +0.000 A 
ATOM      6  C   UNL     1       4.835   5.954  18.179  0.00  0.00    +0.000 A 
ATOM      7  O   UNL     1       5.573   6.894  17.524  0.00  0.00    +0.000 OA
ATOM      8  C   UNL     1       6.974   6.624  17.599  0.00  0.00    +0.000 C 
ATOM      9  C   UNL     1       7.233   5.165  17.274  0.00  0.00    +0.000 C 
ATOM     10  O   UNL     1       6.606   4.318  18.241  0.00  0.00    +0.000 OA
ENDROOT
BRANCH   1  12
ATOM     11  O   UNL     1       2.934   8.043  17.163  0.00  0.00    +0.000 OA
ATOM     12  C   UNL     1       2.833   7.473  18.242  0.00  0.00    +0.000 C 
ATOM     13  N   UNL     1       2.079   7.989  19.280  0.00  0.00    +0.000 N 
ATOM     14  H   UNL     1       2.042   7.454  20.141  0.00  0.00    +0.000 HD
BRANCH  13  15
ATOM     15  C   UNL     1       1.343   9.224  19.151  0.00  0.00    +0.000 C 
BRANCH  15  16
ATOM     16  C   UNL     1       0.672   9.627  20.430  0.00  0.00    +0.000 A 
ATOM     17  C   UNL     1       0.207   8.680  21.350  0.00  0.00    +0.000 A 
ATOM     18  C   UNL     1      -0.357   9.104  22.551  0.00  0.00    +0.000 A 
ATOM     19  C   UNL     1      -0.433  10.464  22.798  0.00  0.00    +0.000 A 
ATOM     20  N   UNL     1       0.010  11.407  21.940  0.00  0.00    +0.000 NA
ATOM     21  C   UNL     1       0.555  10.967  20.783  0.00  0.00    +0.000 A 
ENDBRANCH  15  16
ENDBRANCH  13  15
ENDBRANCH   1  12
BRANCH   3  22
ATOM     22  C   UNL     1       2.622   3.124  20.449  0.00  0.00    +0.000 C 
ATOM     23  C   UNL     1       1.157   3.285  20.778  0.00  0.00    +0.000 C 
ATOM     24  C   UNL     1       1.591   2.198  19.841  0.00  0.00    +0.000 C 
ENDBRANCH   3  22
TORSDOF 4
ENDMDL
MODEL 5
REMARK VINA RESULT:      -7.8      1.019      1.169
REMARK  Name = 
REMARK  4 active torsions:
REMARK  status: ('A' for Active; 'I' for Inactive)
REMARK    1  A    between atoms: C_2  and  C_11
REMARK    2  A    between atoms: N_3  and  C_4
REMARK    3  A    between atoms: C_4  and  C_5
REMARK    4  A    between atoms: C_13  and  C_14
REMARK                            x       y       z     vdW  Elec       q    Type
REMARK                         _______ _______ _______ _____ _____    ______ ____
ROOT
ATOM      1  C   UNL     1       5.385   4.173  16.344  0.00  0.00    +0.000 A 
ATOM      2  N   UNL     1       5.426   3.775  15.040  0.00  0.00    +0.000 NA
ATOM      3  C   UNL     1       6.323   4.388  14.244  0.00  0.00    +0.000 A 
ATOM      4  N   UNL     1       7.131   5.372  14.675  0.00  0.00    +0.000 NA
ATOM      5  C   UNL     1       7.047   5.739  15.965  0.00  0.00    +0.000 A 
ATOM      6  C   UNL     1       6.200   5.151  16.878  0.00  0.00    +0.000 A 
ATOM      7  O   UNL     1       6.161   5.494  18.196  0.00  0.00    +0.000 OA
ATOM      8  C   UNL     1       7.327   6.216  18.597  0.00  0.00    +0.000 C 
ATOM      9  C   UNL     1       7.627   7.308  17.588  0.00  0.00    +0.000 C 
ATOM     10  O   UNL     1       7.923   6.739  16.309  0.00  0.00    +0.000 OA
ENDROOT
BRANCH   1  12
ATOM     11  O   UNL     1       3.243   3.220  16.869  0.00  0.00    +0.000 OA
ATOM     12  C   UNL     1       4.403   3.424  17.206  0.00  0.00    +0.000 C 
ATOM     13  N   UNL     1       4.906   2.987  18.418  0.00  0.00    +0.000 N 
ATOM     14  H   UNL     1       5.878   3.192  18.621  0.00  0.00    +0.000 HD
BRANCH  13  15
ATOM     15  C   UNL     1       4.101   2.242  19.357  0.00  0.00    +0.000 C 
BRANCH  15  16
ATOM     16  C   UNL     1       2.923   3.028  19.850  0.00  0.00    +0.000 A 
ATOM     17  C   UNL     1       3.048   4.353  20.286  0.00  0.00    +0.000 A 
ATOM     18  C   UNL     1       1.915   5.059  20.680  0.00  0.00    +0.000 A 
ATOM     19  C   UNL     1       0.688   4.420  20.622  0.00  0.00    +0.000 A 
ATOM     20  N   UNL     1       0.525   3.148  20.202  0.00  0.00    +0.000 NA
ATOM     21  C   UNL     1       1.643   2.487  19.823  0.00  0.00    +0.000 A 
ENDBRANCH  15  16
ENDBRANCH  13  15
ENDBRANCH   1  12
BRANCH   3  22
ATOM     22  C   UNL     1       6.508   3.900  12.828  0.00  0.00    +0.000 C 
ATOM     23  C   UNL     1       6.000   2.555  12.369  0.00  0.00    +0.000 C 
ATOM     24  C   UNL     1       5.314   3.804  11.904  0.00  0.00    +0.000 C 
ENDBRANCH   3  22
TORSDOF 4
ENDMDL
MODEL 6
REMARK VINA RESULT:      -7.7      1.092      1.303
REMARK  Name = 
REMARK  4 active torsions:
REMARK  status: ('A' for Active; 'I' for Inactive)
REMARK    1  A    between atoms: C_2  and  C_11
REMARK    2  A    between atoms: N_3  and  C_4
REMARK    3  A    between atoms: C_4  and  C_5
REMARK    4  A    between atoms: C_13  and  C_14
REMARK                            x       y       z     vdW  Elec       q    Type
REMARK                         _______ _______ _______ _____ _____    ______ ____
ROOT
ATOM      1  C   UNL     1       5.061   4.218  16.222  0.00  0.00    +0.000 A 
ATOM      2  N   UNL     1       5.185   3.894  14.902  0.00  0.00    +0.000 NA
ATOM      3  C   UNL     1       6.222   4.438  14.236  0.00  0.00    +0.000 A 
ATOM      4  N   UNL     1       7.091   5.290  14.807  0.00  0.00    +0.000 NA
ATOM      5  C   UNL     1       6.922   5.589  16.105  0.00  0.00    +0.000 A 
ATOM      6  C   UNL     1       5.926   5.057  16.894  0.00  0.00    +0.000 A 
ATOM      7  O   UNL     1       5.796   5.326  18.223  0.00  0.00    +0.000 OA
ATOM      8  C   UNL     1       6.992   5.876  18.779  0.00  0.00    +0.000 C 
ATOM      9  C   UNL     1       7.516   6.979  17.879  0.00  0.00    +0.000 C 
ATOM     10  O   UNL     1       7.870   6.454  16.597  0.00  0.00    +0.000 OA
ENDROOT
BRANCH   1  12
ATOM     11  O   UNL     1       3.973   2.392  17.342  0.00  0.00    +0.000 OA
ATOM     12  C   UNL     1       3.918   3.546  16.935  0.00  0.00    +0.000 C 
ATOM     13  N   UNL     1       2.788   4.328  17.091  0.00  0.00    +0.000 N 
ATOM     14  H   UNL     1       2.823   5.275  16.730  0.00  0.00    +0.000 HD
BRANCH  13  15
ATOM     15  C   UNL     1       1.607   3.842  17.765  0.00  0.00    +0.000 C 
BRANCH  15  16
ATOM     16  C   UNL     1       1.815   3.686  19.241  0.00  0.00    +0.000 A 
ATOM     17  C   UNL     1       2.209   4.758  20.050  0.00  0.00    +0.000 A 
ATOM     18  C   UNL     1       2.332   4.577  21.425  0.00  0.00    +0.000 A 
ATOM     19  C   UNL     1       2.052   3.327  21.951  0.00  0.00    +0.000 A 
ATOM     20  N   UNL     1       1.663   2.271  21.207  0.00  0.00    +0.000 NA
ATOM     21  C   UNL     1       1.550   2.477  19.875  0.00  0.00    +0.000 A 
ENDBRANCH  15  16
ENDBRANCH  13  15
ENDBRANCH   1  12
BRANCH   3  22
ATOM     22  C   UNL     1       6.489   4.013  12.813  0.00  0.00    +0.000 C 
ATOM     23  C   UNL     1       6.288   2.591  12.347  0.00  0.00    +0.000 C 
ATOM     24  C   UNL     1       5.333   3.659  11.904  0.00  0.00    +0.000 C 
ENDBRANCH   3  22
TORSDOF 4
ENDMDL
MODEL 7
REMARK VINA RESULT:      -7.7      1.066      1.168
REMARK  Name = 
REMARK  4 active torsions:
REMARK  status: ('A' for Active; 'I' for Inactive)
REMARK    1  A    between atoms: C_2  and  C_11
REMARK    2  A    between atoms: N_3  and  C_4
REMARK    3  A    between atoms: C_4  and  C_5
REMARK    4  A    between atoms: C_13  and  C_14
REMARK                            x       y       z     vdW  Elec       q    Type
REMARK                         _______ _______ _______ _____ _____    ______ ____
ROOT
ATOM      1  C   UNL     1       5.591   4.105  16.591  0.00  0.00    +0.000 A 
ATOM      2  N   UNL     1       5.678   3.577  15.335  0.00  0.00    +0.000 NA
ATOM      3  C   UNL     1       6.557   4.152  14.493  0.00  0.00    +0.000 A 
ATOM      4  N   UNL     1       7.303   5.218  14.829  0.00  0.00    +0.000 NA
ATOM      5  C   UNL     1       7.175   5.711  16.072  0.00  0.00    +0.000 A 
ATOM      6  C   UNL     1       6.342   5.176  17.031  0.00  0.00    +0.000 A 
ATOM      7  O   UNL     1       6.259   5.652  18.304  0.00  0.00    +0.000 OA
ATOM      8  C   UNL     1       7.378   6.473  18.644  0.00  0.00    +0.000 C 
ATOM      9  C   UNL     1       7.640   7.469  17.530  0.00  0.00    +0.000 C 
ATOM     10  O   UNL     1       7.991   6.788  16.322  0.00  0.00    +0.000 OA
ENDROOT
BRANCH   1  12
ATOM     11  O   UNL     1       3.499   3.080  17.176  0.00  0.00    +0.000 OA
ATOM     12  C   UNL     1       4.633   3.397  17.512  0.00  0.00    +0.000 C 
ATOM     13  N   UNL     1       5.126   3.138  18.777  0.00  0.00    +0.000 N 
ATOM     14  H   UNL     1       6.077   3.428  18.976  0.00  0.00    +0.000 HD
BRANCH  13  15
ATOM     15  C   UNL     1       4.342   2.455  19.779  0.00  0.00    +0.000 C 
BRANCH  15  16
ATOM     16  C   UNL     1       3.033   3.135  20.043  0.00  0.00    +0.000 A 
ATOM     17  C   UNL     1       1.819   2.438  20.018  0.00  0.00    +0.000 A 
ATOM     18  C   UNL     1       0.635   3.102  20.327  0.00  0.00    +0.000 A 
ATOM     19  C   UNL     1       0.701   4.444  20.657  0.00  0.00    +0.000 A 
ATOM     20  N   UNL     1       1.851   5.150  20.698  0.00  0.00    +0.000 NA
ATOM     21  C   UNL     1       2.985   4.479  20.396  0.00  0.00    +0.000 A 
ENDBRANCH  15  16
ENDBRANCH  13  15
ENDBRANCH   1  12
BRANCH   3  22
ATOM     22  C   UNL     1       6.795   3.531  13.138  0.00  0.00    +0.000 C 
ATOM     23  C   UNL     1       5.701   3.410  12.106  0.00  0.00    +0.000 C 
ATOM     24  C   UNL     1       6.805   4.403  11.902  0.00  0.00    +0.000 C 
ENDBRANCH   3  22
TORSDOF 4
ENDMDL
MODEL 8
REMARK VINA RESULT:      -7.7      4.611      6.408
REMARK  Name = 
REMARK  4 active torsions:
REMARK  status: ('A' for Active; 'I' for Inactive)
REMARK    1  A    between atoms: C_2  and  C_11
REMARK    2  A    between atoms: N_3  and  C_4
REMARK    3  A    between atoms: C_4  and  C_5
REMARK    4  A    between atoms: C_13  and  C_14
REMARK                            x       y       z     vdW  Elec       q    Type
REMARK                         _______ _______ _______ _____ _____    ______ ____
ROOT
ATOM      1  C   UNL     1       3.319   6.159  18.998  0.00  0.00    +0.000 A 
ATOM      2  N   UNL     1       4.619   6.189  18.585  0.00  0.00    +0.000 NA
ATOM      3  C   UNL     1       5.371   5.106  18.862  0.00  0.00    +0.000 A 
ATOM      4  N   UNL     1       4.903   4.045  19.542  0.00  0.00    +0.000 NA
ATOM      5  C   UNL     1       3.620   4.066  19.940  0.00  0.00    +0.000 A 
ATOM      6  C   UNL     1       2.748   5.098  19.672  0.00  0.00    +0.000 A 
ATOM      7  O   UNL     1       1.435   5.085  20.034  0.00  0.00    +0.000 OA
ATOM      8  C   UNL     1       0.978   3.768  20.350  0.00  0.00    +0.000 C 
ATOM      9  C   UNL     1       1.974   3.086  21.268  0.00  0.00    +0.000 C 
ATOM     10  O   UNL     1       3.236   2.930  20.611  0.00  0.00    +0.000 OA
ENDROOT
BRANCH   1  12
ATOM     11  O   UNL     1       2.365   7.742  17.463  0.00  0.00    +0.000 OA
ATOM     12  C   UNL     1       2.505   7.369  18.621  0.00  0.00    +0.000 C 
ATOM     13  N   UNL     1       1.930   8.039  19.686  0.00  0.00    +0.000 N 
ATOM     14  H   UNL     1       2.090   7.664  20.614  0.00  0.00    +0.000 HD
BRANCH  13  15
ATOM     15  C   UNL     1       1.108   9.211  19.499  0.00  0.00    +0.000 C 
BRANCH  15  16
ATOM     16  C   UNL     1       0.457   9.662  20.772  0.00  0.00    +0.000 A 
ATOM     17  C   UNL     1       0.192  11.012  21.029  0.00  0.00    +0.000 A 
ATOM     18  C   UNL     1      -0.466  11.375  22.201  0.00  0.00    +0.000 A 
ATOM     19  C   UNL     1      -0.846  10.374  23.079  0.00  0.00    +0.000 A 
ATOM     20  N   UNL     1      -0.615   9.062  22.865  0.00  0.00    +0.000 NA
ATOM     21  C   UNL     1       0.025   8.738  21.718  0.00  0.00    +0.000 A 
ENDBRANCH  15  16
ENDBRANCH  13  15
ENDBRANCH   1  12
BRANCH   3  22
ATOM     22  C   UNL     1       6.774   5.023  18.315  0.00  0.00    +0.000 C 
ATOM     23  C   UNL     1       7.468   6.214  17.698  0.00  0.00    +0.000 C 
ATOM     24  C   UNL     1       7.907   5.715  19.042  0.00  0.00    +0.000 C 
ENDBRANCH   3  22
TORSDOF 4
ENDMDL
MODEL 9
REMARK VINA RESULT:      -7.6      4.656      5.913
REMARK  Name = 
REMARK  4 active torsions:
REMARK  status: ('A' for Active; 'I' for Inactive)
REMARK    1  A    between atoms: C_2  and  C_11
REMARK    2  A    between atoms: N_3  and  C_4
REMARK    3  A    between atoms: C_4  and  C_5
REMARK    4  A    between atoms: C_13  and  C_14
REMARK                            x       y       z     vdW  Elec       q    Type
REMARK                         _______ _______ _______ _____ _____    ______ ____
ROOT
ATOM      1  C   UNL     1       3.278   6.533  18.336  0.00  0.00    +0.000 A 
ATOM      2  N   UNL     1       4.332   6.348  17.490  0.00  0.00    +0.000 NA
ATOM      3  C   UNL     1       4.966   5.161  17.558  0.00  0.00    +0.000 A 
ATOM      4  N   UNL     1       4.623   4.197  18.430  0.00  0.00    +0.000 NA
ATOM      5  C   UNL     1       3.587   4.430  19.252  0.00  0.00    +0.000 A 
ATOM      6  C   UNL     1       2.838   5.587  19.240  0.00  0.00    +0.000 A 
ATOM      7  O   UNL     1       1.757   5.790  20.042  0.00  0.00    +0.000 OA
ATOM      8  C   UNL     1       1.256   4.569  20.588  0.00  0.00    +0.000 C 
ATOM      9  C   UNL     1       2.404   3.745  21.140  0.00  0.00    +0.000 C 
ATOM     10  O   UNL     1       3.307   3.380  20.093  0.00  0.00    +0.000 OA
ENDROOT
BRANCH   1  12
ATOM     11  O   UNL     1       2.583   8.503  17.150  0.00  0.00    +0.000 OA
ATOM     12  C   UNL     1       2.571   7.854  18.188  0.00  0.00    +0.000 C 
ATOM     13  N   UNL     1       1.908   8.290  19.321  0.00  0.00    +0.000 N 
ATOM     14  H   UNL     1       1.941   7.693  20.140  0.00  0.00    +0.000 HD
BRANCH  13  15
ATOM     15  C   UNL     1       1.168   9.530  19.346  0.00  0.00    +0.000 C 
BRANCH  15  16
ATOM     16  C   UNL     1       0.494   9.767  20.664  0.00  0.00    +0.000 A 
ATOM     17  C   UNL     1       0.053   8.710  21.470  0.00  0.00    +0.000 A 
ATOM     18  C   UNL     1      -0.515   8.980  22.712  0.00  0.00    +0.000 A 
ATOM     19  C   UNL     1      -0.619  10.301  23.115  0.00  0.00    +0.000 A 
ATOM     20  N   UNL     1      -0.199  11.346  22.371  0.00  0.00    +0.000 NA
ATOM     21  C   UNL     1       0.349  11.054  21.170  0.00  0.00    +0.000 A 
ENDBRANCH  15  16
ENDBRANCH  13  15
ENDBRANCH   1  12
BRANCH   3  22
ATOM     22  C   UNL     1       6.050   4.845  16.557  0.00  0.00    +0.000 C 
ATOM     23  C   UNL     1       5.913   3.731  15.548  0.00  0.00    +0.000 C 
ATOM     24  C   UNL     1       5.836   5.157  15.092  0.00  0.00    +0.000 C 
ENDBRANCH   3  22
TORSDOF 4
ENDMDL
