MODEL 1
REMARK VINA RESULT:      -6.5      0.000      0.000
REMARK  Name = 
REMARK  5 active torsions:
REMARK  status: ('A' for Active; 'I' for Inactive)
REMARK    1  A    between atoms: C_1  and  C_2
REMARK    2  A    between atoms: N_4  and  C_19
REMARK    3  A    between atoms: C_7  and  C_8
REMARK    4  A    between atoms: C_9  and  C_10
REMARK    5  A    between atoms: C_9  and  C_11
REMARK                            x       y       z     vdW  Elec       q    Type
REMARK                         _______ _______ _______ _____ _____    ______ ____
ROOT
ATOM      1  C   UNL     1       4.691   3.126  17.046  0.00  0.00    +0.000 C 
ATOM      2  C   UNL     1       3.530   2.950  17.987  0.00  0.00    +0.000 C 
ATOM      3  O   UNL     1       3.253   1.778  18.292  0.00  0.00    +0.000 OA
ATOM      4  N   UNL     1       2.764   4.025  18.443  0.00  0.00    +0.000 N 
ATOM      5  C   UNL     1       2.959   5.389  18.166  0.00  0.00    +0.000 A 
ATOM      6  N   UNL     1       2.039   6.315  18.364  0.00  0.00    +0.000 NA
ATOM      7  C   UNL     1       2.534   7.578  18.089  0.00  0.00    +0.000 A 
ATOM      8  C   UNL     1       3.818   7.612  17.608  0.00  0.00    +0.000 A 
ATOM      9  S   UNL     1       4.462   6.036  17.643  0.00  0.00    +0.000 S 
ENDROOT
BRANCH   7  10
ATOM     10  C   UNL     1       1.733   8.741  18.293  0.00  0.00    +0.000 C 
ATOM     11  C   UNL     1       1.169   9.167  19.445  0.00  0.00    +0.000 C 
ATOM     12  C   UNL     1       1.322   8.452  20.763  0.00  0.00    +0.000 C 
BRANCH  11  13
ATOM     13  C   UNL     1       0.373  10.428  19.466  0.00  0.00    +0.000 A 
ATOM     14  C   UNL     1      -0.993  10.470  19.169  0.00  0.00    +0.000 A 
ATOM     15  N   UNL     1      -1.738  11.604  19.188  0.00  0.00    +0.000 NA
ATOM     16  C   UNL     1      -1.065  12.724  19.516  0.00  0.00    +0.000 A 
ATOM     17  C   UNL     1       0.284  12.711  19.814  0.00  0.00    +0.000 A 
ATOM     18  N   UNL     1       1.024  11.575  19.799  0.00  0.00    +0.000 NA
ENDBRANCH  11  13
ENDBRANCH   7  10
BRANCH   4  19
ATOM     19  C   UNL     1       1.505   3.683  19.117  0.00  0.00    +0.000 C 
ATOM     20  C   UNL     1       1.507   2.940  20.441  0.00  0.00    +0.000 C 
ATOM     21  C   UNL     1       1.005   4.343  20.383  0.00  0.00    +0.000 C 
ENDBRANCH   4  19
TORSDOF 3
ENDMDL
MODEL 2
REMARK VINA RESULT:      -6.5      3.864      7.888
REMARK  Name = 
REMARK  5 active torsions:
REMARK  status: ('A' for Active; 'I' for Inactive)
REMARK    1  A    between atoms: C_1  and  C_2
REMARK    2  A    between atoms: N_4  and  C_19
REMARK    3  A    between atoms: C_7  and  C_8
REMARK    4  A    between atoms: C_9  and  C_10
REMARK    5  A    between atoms: C_9  and  C_11
REMARK                            x       y       z     vdW  Elec       q    Type
REMARK                         _______ _______ _______ _____ _____    ______ ____
ROOT
ATOM      1  C   UNL     1      -3.016  12.743  20.200  0.00  0.00    +0.000 C 
ATOM      2  C   UNL     1      -3.446  11.978  18.977  0.00  0.00    +0.000 C 
ATOM      3  O   UNL     1      -4.637  12.108  18.648  0.00  0.00    +0.000 OA
ATOM      4  N   UNL     1      -2.587  11.122  18.285  0.00  0.00    +0.000 N 
ATOM      5  C   UNL     1      -1.229  10.875  18.558  0.00  0.00    +0.000 A 
ATOM      6  N   UNL     1      -0.563   9.841  18.076  0.00  0.00    +0.000 NA
ATOM      7  C   UNL     1       0.773   9.897  18.433  0.00  0.00    +0.000 A 
ATOM      8  C   UNL     1       1.115  10.941  19.256  0.00  0.00    +0.000 A 
ATOM      9  S   UNL     1      -0.241  11.951  19.460  0.00  0.00    +0.000 S 
ENDROOT
BRANCH   7  10
ATOM     10  C   UNL     1       1.699   8.915  17.972  0.00  0.00    +0.000 C 
ATOM     11  C   UNL     1       2.234   7.890  18.670  0.00  0.00    +0.000 C 
ATOM     12  C   UNL     1       1.906   7.601  20.113  0.00  0.00    +0.000 C 
BRANCH  11  13
ATOM     13  C   UNL     1       3.180   6.946  18.007  0.00  0.00    +0.000 A 
ATOM     14  C   UNL     1       4.189   7.369  17.135  0.00  0.00    +0.000 A 
ATOM     15  N   UNL     1       5.064   6.529  16.525  0.00  0.00    +0.000 NA
ATOM     16  C   UNL     1       4.898   5.223  16.813  0.00  0.00    +0.000 A 
ATOM     17  C   UNL     1       3.909   4.780  17.670  0.00  0.00    +0.000 A 
ATOM     18  N   UNL     1       3.041   5.622  18.282  0.00  0.00    +0.000 NA
ENDBRANCH  11  13
ENDBRANCH   7  10
BRANCH   4  19
ATOM     19  C   UNL     1      -3.212  10.236  17.297  0.00  0.00    +0.000 C 
ATOM     20  C   UNL     1      -3.735  10.781  15.980  0.00  0.00    +0.000 C 
ATOM     21  C   UNL     1      -2.581   9.838  15.981  0.00  0.00    +0.000 C 
ENDBRANCH   4  19
TORSDOF 3
ENDMDL
MODEL 3
REMARK VINA RESULT:      -6.4      3.352      7.614
REMARK  Name = 
REMARK  5 active torsions:
REMARK  status: ('A' for Active; 'I' for Inactive)
REMARK    1  A    between atoms: C_1  and  C_2
REMARK    2  A    between atoms: N_4  and  C_19
REMARK    3  A    between atoms: C_7  and  C_8
REMARK    4  A    between atoms: C_9  and  C_10
REMARK    5  A    between atoms: C_9  and  C_11
REMARK                            x       y       z     vdW  Elec       q    Type
REMARK                         _______ _______ _______ _____ _____    ______ ____
ROOT
ATOM      1  C   UNL     1       1.455  12.761  19.732  0.00  0.00    +0.000 C 
ATOM      2  C   UNL     1       0.890  11.977  20.887  0.00  0.00    +0.000 C 
ATOM      3  O   UNL     1       0.477  12.647  21.847  0.00  0.00    +0.000 OA
ATOM      4  N   UNL     1       0.885  10.581  20.915  0.00  0.00    +0.000 N 
ATOM      5  C   UNL     1       1.331   9.706  19.907  0.00  0.00    +0.000 A 
ATOM      6  N   UNL     1       1.587   8.426  20.111  0.00  0.00    +0.000 NA
ATOM      7  C   UNL     1       1.922   7.791  18.928  0.00  0.00    +0.000 A 
ATOM      8  C   UNL     1       1.994   8.605  17.826  0.00  0.00    +0.000 A 
ATOM      9  S   UNL     1       1.486  10.171  18.261  0.00  0.00    +0.000 S 
ENDROOT
BRANCH   7  10
ATOM     10  C   UNL     1       2.181   6.388  18.896  0.00  0.00    +0.000 C 
ATOM     11  C   UNL     1       3.242   5.754  18.350  0.00  0.00    +0.000 C 
ATOM     12  C   UNL     1       4.382   6.470  17.671  0.00  0.00    +0.000 C 
BRANCH  11  13
ATOM     13  C   UNL     1       3.349   4.269  18.430  0.00  0.00    +0.000 A 
ATOM     14  C   UNL     1       2.732   3.411  17.513  0.00  0.00    +0.000 A 
ATOM     15  N   UNL     1       2.820   2.058  17.564  0.00  0.00    +0.000 NA
ATOM     16  C   UNL     1       3.556   1.571  18.582  0.00  0.00    +0.000 A 
ATOM     17  C   UNL     1       4.175   2.396  19.501  0.00  0.00    +0.000 A 
ATOM     18  N   UNL     1       4.090   3.748  19.444  0.00  0.00    +0.000 NA
ENDBRANCH  11  13
ENDBRANCH   7  10
BRANCH   4  19
ATOM     19  C   UNL     1       0.569   9.960  22.207  0.00  0.00    +0.000 C 
ATOM     20  C   UNL     1      -0.749  10.241  22.906  0.00  0.00    +0.000 C 
ATOM     21  C   UNL     1      -0.458   8.867  22.405  0.00  0.00    +0.000 C 
ENDBRANCH   4  19
TORSDOF 3
ENDMDL
MODEL 4
REMARK VINA RESULT:      -6.4      1.615      1.895
REMARK  Name = 
REMARK  5 active torsions:
REMARK  status: ('A' for Active; 'I' for Inactive)
REMARK    1  A    between atoms: C_1  and  C_2
REMARK    2  A    between atoms: N_4  and  C_19
REMARK    3  A    between atoms: C_7  and  C_8
REMARK    4  A    between atoms: C_9  and  C_10
REMARK    5  A    between atoms: C_9  and  C_11
REMARK                            x       y       z     vdW  Elec       q    Type
REMARK                         _______ _______ _______ _____ _____    ______ ____
ROOT
ATOM      1  C   UNL     1       3.815   3.570  16.707  0.00  0.00    +0.000 C 
ATOM      2  C   UNL     1       3.298   3.078  18.033  0.00  0.00    +0.000 C 
ATOM      3  O   UNL     1       3.285   1.845  18.185  0.00  0.00    +0.000 OA
ATOM      4  N   UNL     1       2.802   3.940  19.012  0.00  0.00    +0.000 N 
ATOM      5  C   UNL     1       2.748   5.345  18.963  0.00  0.00    +0.000 A 
ATOM      6  N   UNL     1       1.997   6.076  19.767  0.00  0.00    +0.000 NA
ATOM      7  C   UNL     1       2.208   7.428  19.555  0.00  0.00    +0.000 A 
ATOM      8  C   UNL     1       3.071   7.732  18.531  0.00  0.00    +0.000 A 
ATOM      9  S   UNL     1       3.740   6.288  17.925  0.00  0.00    +0.000 S 
ENDROOT
BRANCH   7  10
ATOM     10  C   UNL     1       1.550   8.409  20.354  0.00  0.00    +0.000 C 
ATOM     11  C   UNL     1       0.796   9.448  19.934  0.00  0.00    +0.000 C 
ATOM     12  C   UNL     1       0.506   9.736  18.482  0.00  0.00    +0.000 C 
BRANCH  11  13
ATOM     13  C   UNL     1       0.167  10.366  20.927  0.00  0.00    +0.000 A 
ATOM     14  C   UNL     1       0.002  10.030  22.275  0.00  0.00    +0.000 A 
ATOM     15  N   UNL     1      -0.562  10.851  23.197  0.00  0.00    +0.000 NA
ATOM     16  C   UNL     1      -0.969  12.046  22.725  0.00  0.00    +0.000 A 
ATOM     17  C   UNL     1      -0.817  12.403  21.399  0.00  0.00    +0.000 A 
ATOM     18  N   UNL     1      -0.249  11.582  20.482  0.00  0.00    +0.000 NA
ENDBRANCH  11  13
ENDBRANCH   7  10
BRANCH   4  19
ATOM     19  C   UNL     1       2.078   3.311  20.123  0.00  0.00    +0.000 C 
ATOM     20  C   UNL     1       2.823   2.568  21.218  0.00  0.00    +0.000 C 
ATOM     21  C   UNL     1       2.084   3.820  21.547  0.00  0.00    +0.000 C 
ENDBRANCH   4  19
TORSDOF 3
ENDMDL
MODEL 5
REMARK VINA RESULT:      -6.4      3.706      7.780
REMARK  Name = 
REMARK  5 active torsions:
REMARK  status: ('A' for Active; 'I' for Inactive)
REMARK    1  A    between atoms: C_1  and  C_2
REMARK    2  A    between atoms: N_4  and  C_19
REMARK    3  A    between atoms: C_7  and  C_8
REMARK    4  A    between atoms: C_9  and  C_10
REMARK    5  A    between atoms: C_9  and  C_11
REMARK                            x       y       z     vdW  Elec       q    Type
REMARK                         _______ _______ _______ _____ _____    ______ ____
ROOT
ATOM      1  C   UNL     1      -2.128  12.643  20.255  0.00  0.00    +0.000 C 
ATOM      2  C   UNL     1      -2.711  11.884  19.092  0.00  0.00    +0.000 C 
ATOM      3  O   UNL     1      -3.919  12.071  18.874  0.00  0.00    +0.000 OA
ATOM      4  N   UNL     1      -1.964  10.975  18.340  0.00  0.00    +0.000 N 
ATOM      5  C   UNL     1      -0.601  10.661  18.488  0.00  0.00    +0.000 A 
ATOM      6  N   UNL     1      -0.036   9.588  17.965  0.00  0.00    +0.000 NA
ATOM      7  C   UNL     1       1.328   9.580  18.195  0.00  0.00    +0.000 A 
ATOM      8  C   UNL     1       1.799  10.617  18.961  0.00  0.00    +0.000 A 
ATOM      9  S   UNL     1       0.521  11.699  19.272  0.00  0.00    +0.000 S 
ENDROOT
BRANCH   7  10
ATOM     10  C   UNL     1       2.156   8.545  17.667  0.00  0.00    +0.000 C 
ATOM     11  C   UNL     1       2.625   7.452  18.309  0.00  0.00    +0.000 C 
ATOM     12  C   UNL     1       2.315   7.133  19.749  0.00  0.00    +0.000 C 
BRANCH  11  13
ATOM     13  C   UNL     1       3.470   6.462  17.580  0.00  0.00    +0.000 A 
ATOM     14  C   UNL     1       3.290   5.080  17.694  0.00  0.00    +0.000 A 
ATOM     15  N   UNL     1       4.043   4.161  17.037  0.00  0.00    +0.000 NA
ATOM     16  C   UNL     1       5.007   4.673  16.246  0.00  0.00    +0.000 A 
ATOM     17  C   UNL     1       5.206   6.034  16.117  0.00  0.00    +0.000 A 
ATOM     18  N   UNL     1       4.448   6.949  16.771  0.00  0.00    +0.000 NA
ENDBRANCH  11  13
ENDBRANCH   7  10
BRANCH   4  19
ATOM     19  C   UNL     1      -2.724  10.108  17.431  0.00  0.00    +0.000 C 
ATOM     20  C   UNL     1      -3.703  10.694  16.430  0.00  0.00    +0.000 C 
ATOM     21  C   UNL     1      -2.477   9.999  15.943  0.00  0.00    +0.000 C 
ENDBRANCH   4  19
TORSDOF 3
ENDMDL
MODEL 6
REMARK VINA RESULT:      -6.3      1.770      2.041
REMARK  Name = 
REMARK  5 active torsions:
REMARK  status: ('A' for Active; 'I' for Inactive)
REMARK    1  A    between atoms: C_1  and  C_2
REMARK    2  A    between atoms: N_4  and  C_19
REMARK    3  A    between atoms: C_7  and  C_8
REMARK    4  A    between atoms: C_9  and  C_10
REMARK    5  A    between atoms: C_9  and  C_11
REMARK                            x       y       z     vdW  Elec       q    Type
REMARK                         _______ _______ _______ _____ _____    ______ ____
ROOT
ATOM      1  C   UNL     1       3.884   3.502  16.685  0.00  0.00    +0.000 C 
ATOM      2  C   UNL     1       3.389   2.974  18.005  0.00  0.00    +0.000 C 
ATOM      3  O   UNL     1       3.402   1.739  18.133  0.00  0.00    +0.000 OA
ATOM      4  N   UNL     1       2.884   3.807  19.005  0.00  0.00    +0.000 N 
ATOM      5  C   UNL     1       2.799   5.211  18.983  0.00  0.00    +0.000 A 
ATOM      6  N   UNL     1       2.041   5.911  19.808  0.00  0.00    +0.000 NA
ATOM      7  C   UNL     1       2.222   7.270  19.620  0.00  0.00    +0.000 A 
ATOM      8  C   UNL     1       3.069   7.611  18.596  0.00  0.00    +0.000 A 
ATOM      9  S   UNL     1       3.763   6.194  17.956  0.00  0.00    +0.000 S 
ENDROOT
BRANCH   7  10
ATOM     10  C   UNL     1       1.549   8.221  20.443  0.00  0.00    +0.000 C 
ATOM     11  C   UNL     1       0.838   9.300  20.049  0.00  0.00    +0.000 C 
ATOM     12  C   UNL     1       0.620   9.674  18.605  0.00  0.00    +0.000 C 
BRANCH  11  13
ATOM     13  C   UNL     1       0.186  10.178  21.064  0.00  0.00    +0.000 A 
ATOM     14  C   UNL     1       0.123  11.569  20.938  0.00  0.00    +0.000 A 
ATOM     15  N   UNL     1      -0.470  12.386  21.846  0.00  0.00    +0.000 NA
ATOM     16  C   UNL     1      -1.008  11.761  22.911  0.00  0.00    +0.000 A 
ATOM     17  C   UNL     1      -0.959  10.389  23.060  0.00  0.00    +0.000 A 
ATOM     18  N   UNL     1      -0.371   9.575  22.149  0.00  0.00    +0.000 NA
ENDBRANCH  11  13
ENDBRANCH   7  10
BRANCH   4  19
ATOM     19  C   UNL     1       2.182   3.141  20.109  0.00  0.00    +0.000 C 
ATOM     20  C   UNL     1       2.952   2.523  21.262  0.00  0.00    +0.000 C 
ATOM     21  C   UNL     1       2.068   3.697  21.511  0.00  0.00    +0.000 C 
ENDBRANCH   4  19
TORSDOF 3
ENDMDL
MODEL 7
REMARK VINA RESULT:      -6.3      0.965      1.072
REMARK  Name = 
REMARK  5 active torsions:
REMARK  status: ('A' for Active; 'I' for Inactive)
REMARK    1  A    between atoms: C_1  and  C_2
REMARK    2  A    between atoms: N_4  and  C_19
REMARK    3  A    between atoms: C_7  and  C_8
REMARK    4  A    between atoms: C_9  and  C_10
REMARK    5  A    between atoms: C_9  and  C_11
REMARK                            x       y       z     vdW  Elec       q    Type
REMARK                         _______ _______ _______ _____ _____    ______ ____
ROOT
ATOM      1  C   UNL     1       4.454   3.323  17.384  0.00  0.00    +0.000 C 
ATOM      2  C   UNL     1       3.863   3.278  18.767  0.00  0.00    +0.000 C 
ATOM      3  O   UNL     1       3.925   2.182  19.347  0.00  0.00    +0.000 OA
ATOM      4  N   UNL     1       3.224   4.377  19.346  0.00  0.00    +0.000 N 
ATOM      5  C   UNL     1       3.073   5.662  18.797  0.00  0.00    +0.000 A 
ATOM      6  N   UNL     1       2.205   6.552  19.245  0.00  0.00    +0.000 NA
ATOM      7  C   UNL     1       2.336   7.757  18.577  0.00  0.00    +0.000 A 
ATOM      8  C   UNL     1       3.259   7.766  17.561  0.00  0.00    +0.000 A 
ATOM      9  S   UNL     1       4.080   6.274  17.547  0.00  0.00    +0.000 S 
ENDROOT
BRANCH   7  10
ATOM     10  C   UNL     1       1.542   8.886  18.937  0.00  0.00    +0.000 C 
ATOM     11  C   UNL     1       1.088   9.221  20.164  0.00  0.00    +0.000 C 
ATOM     12  C   UNL     1       1.378   8.421  21.409  0.00  0.00    +0.000 C 
BRANCH  11  13
ATOM     13  C   UNL     1       0.279  10.461  20.350  0.00  0.00    +0.000 A 
ATOM     14  C   UNL     1      -0.835  10.767  19.562  0.00  0.00    +0.000 A 
ATOM     15  N   UNL     1      -1.588  11.885  19.717  0.00  0.00    +0.000 NA
ATOM     16  C   UNL     1      -1.187  12.712  20.702  0.00  0.00    +0.000 A 
ATOM     17  C   UNL     1      -0.090  12.434  21.494  0.00  0.00    +0.000 A 
ATOM     18  N   UNL     1       0.657  11.313  21.341  0.00  0.00    +0.000 NA
ENDBRANCH  11  13
ENDBRANCH   7  10
BRANCH   4  19
ATOM     19  C   UNL     1       2.454   4.109  20.567  0.00  0.00    +0.000 C 
ATOM     20  C   UNL     1       1.025   3.602  20.493  0.00  0.00    +0.000 C 
ATOM     21  C   UNL     1       2.089   2.727  21.064  0.00  0.00    +0.000 C 
ENDBRANCH   4  19
TORSDOF 3
ENDMDL
MODEL 8
REMARK VINA RESULT:      -6.1      0.955      1.379
REMARK  Name = 
REMARK  5 active torsions:
REMARK  status: ('A' for Active; 'I' for Inactive)
REMARK    1  A    between atoms: C_1  and  C_2
REMARK    2  A    between atoms: N_4  and  C_19
REMARK    3  A    between atoms: C_7  and  C_8
REMARK    4  A    between atoms: C_9  and  C_10
REMARK    5  A    between atoms: C_9  and  C_11
REMARK                            x       y       z     vdW  Elec       q    Type
REMARK                         _______ _______ _______ _____ _____    ______ ____
ROOT
ATOM      1  C   UNL     1       4.658   3.286  17.775  0.00  0.00    +0.000 C 
ATOM      2  C   UNL     1       3.940   3.381  19.094  0.00  0.00    +0.000 C 
ATOM      3  O   UNL     1       3.937   2.348  19.784  0.00  0.00    +0.000 OA
ATOM      4  N   UNL     1       3.260   4.531  19.498  0.00  0.00    +0.000 N 
ATOM      5  C   UNL     1       3.172   5.755  18.811  0.00  0.00    +0.000 A 
ATOM      6  N   UNL     1       2.275   6.686  19.085  0.00  0.00    +0.000 NA
ATOM      7  C   UNL     1       2.479   7.817  18.315  0.00  0.00    +0.000 A 
ATOM      8  C   UNL     1       3.493   7.725  17.395  0.00  0.00    +0.000 A 
ATOM      9  S   UNL     1       4.298   6.239  17.607  0.00  0.00    +0.000 S 
ENDROOT
BRANCH   7  10
ATOM     10  C   UNL     1       1.666   8.977  18.484  0.00  0.00    +0.000 C 
ATOM     11  C   UNL     1       1.049   9.398  19.609  0.00  0.00    +0.000 C 
ATOM     12  C   UNL     1       1.144   8.680  20.932  0.00  0.00    +0.000 C 
BRANCH  11  13
ATOM     13  C   UNL     1       0.247  10.657  19.597  0.00  0.00    +0.000 A 
ATOM     14  C   UNL     1       0.816  11.921  19.778  0.00  0.00    +0.000 A 
ATOM     15  N   UNL     1       0.108  13.079  19.765  0.00  0.00    +0.000 NA
ATOM     16  C   UNL     1      -1.217  12.936  19.566  0.00  0.00    +0.000 A 
ATOM     17  C   UNL     1      -1.804  11.699  19.386  0.00  0.00    +0.000 A 
ATOM     18  N   UNL     1      -1.092  10.544  19.394  0.00  0.00    +0.000 NA
ENDBRANCH  11  13
ENDBRANCH   7  10
BRANCH   4  19
ATOM     19  C   UNL     1       2.377   4.387  20.662  0.00  0.00    +0.000 C 
ATOM     20  C   UNL     1       0.897   4.093  20.487  0.00  0.00    +0.000 C 
ATOM     21  C   UNL     1       1.781   3.078  21.129  0.00  0.00    +0.000 C 
ENDBRANCH   4  19
TORSDOF 3
ENDMDL
MODEL 9
REMARK VINA RESULT:      -6.1      4.787      7.235
REMARK  Name = 
REMARK  5 active torsions:
REMARK  status: ('A' for Active; 'I' for Inactive)
REMARK    1  A    between atoms: C_1  and  C_2
REMARK    2  A    between atoms: N_4  and  C_19
REMARK    3  A    between atoms: C_7  and  C_8
REMARK    4  A    between atoms: C_9  and  C_10
REMARK    5  A    between atoms: C_9  and  C_11
REMARK                            x       y       z     vdW  Elec       q    Type
REMARK                         _______ _______ _______ _____ _____    ______ ____
ROOT
ATOM      1  C   UNL     1       8.195   5.782  12.836  0.00  0.00    +0.000 C 
ATOM      2  C   UNL     1       7.317   4.610  12.488  0.00  0.00    +0.000 C 
ATOM      3  O   UNL     1       7.308   4.276  11.291  0.00  0.00    +0.000 OA
ATOM      4  N   UNL     1       6.509   3.971  13.430  0.00  0.00    +0.000 N 
ATOM      5  C   UNL     1       6.414   4.255  14.804  0.00  0.00    +0.000 A 
ATOM      6  N   UNL     1       5.423   3.837  15.571  0.00  0.00    +0.000 NA
ATOM      7  C   UNL     1       5.633   4.187  16.893  0.00  0.00    +0.000 A 
ATOM      8  C   UNL     1       6.755   4.942  17.128  0.00  0.00    +0.000 A 
ATOM      9  S   UNL     1       7.637   5.086  15.678  0.00  0.00    +0.000 S 
ENDROOT
BRANCH   7  10
ATOM     10  C   UNL     1       4.721   3.786  17.914  0.00  0.00    +0.000 C 
ATOM     11  C   UNL     1       3.659   4.471  18.392  0.00  0.00    +0.000 C 
ATOM     12  C   UNL     1       3.244   5.829  17.882  0.00  0.00    +0.000 C 
BRANCH  11  13
ATOM     13  C   UNL     1       2.802   3.876  19.458  0.00  0.00    +0.000 A 
ATOM     14  C   UNL     1       3.316   3.095  20.498  0.00  0.00    +0.000 A 
ATOM     15  N   UNL     1       2.556   2.549  21.481  0.00  0.00    +0.000 NA
ATOM     16  C   UNL     1       1.236   2.806  21.393  0.00  0.00    +0.000 A 
ATOM     17  C   UNL     1       0.703   3.573  20.375  0.00  0.00    +0.000 A 
ATOM     18  N   UNL     1       1.466   4.123  19.398  0.00  0.00    +0.000 NA
ENDBRANCH  11  13
ENDBRANCH   7  10
BRANCH   4  19
ATOM     19  C   UNL     1       5.505   3.041  12.899  0.00  0.00    +0.000 C 
ATOM     20  C   UNL     1       4.557   3.466  11.791  0.00  0.00    +0.000 C 
ATOM     21  C   UNL     1       5.569   2.402  11.530  0.00  0.00    +0.000 C 
ENDBRANCH   4  19
TORSDOF 3
ENDMDL
