MODEL 1
REMARK VINA RESULT:      -7.1      0.000      0.000
REMARK  Name = 
REMARK  5 active torsions:
REMARK  status: ('A' for Active; 'I' for Inactive)
REMARK    1  A    between atoms: C_1  and  O_2
REMARK    2  A    between atoms: O_2  and  C_3
REMARK    3  A    between atoms: C_3  and  C_4
REMARK    4  A    between atoms: C_4  and  N_5
REMARK    5  A    between atoms: C_6  and  C_8
REMARK                            x       y       z     vdW  Elec       q    Type
REMARK                         _______ _______ _______ _____ _____    ______ ____
ROOT
ATOM      1  C   UNL     1       7.879   6.410  17.933  0.00  0.00    +0.000 C 
ATOM      2  C   UNL     1       7.330   5.763  16.650  0.00  0.00    +0.000 C 
ATOM      3  C   UNL     1       6.423   4.680  17.181  0.00  0.00    +0.000 C 
ATOM      4  C   UNL     1       5.206   4.277  16.360  0.00  0.00    +0.000 C 
ATOM      5  C   UNL     1       4.379   3.245  17.151  0.00  0.00    +0.000 C 
ATOM      6  N   UNL     1       4.112   3.742  18.502  0.00  0.00    +0.000 N 
ATOM      7  C   UNL     1       2.909   3.465  19.110  0.00  0.00    +0.000 A 
ATOM      8  N   UNL     1       1.945   2.862  18.395  0.00  0.00    +0.000 NA
ATOM      9  C   UNL     1       0.744   2.685  18.978  0.00  0.00    +0.000 A 
ATOM     10  C   UNL     1       0.457   3.083  20.256  0.00  0.00    +0.000 A 
ATOM     11  C   UNL     1       1.498   3.673  20.921  0.00  0.00    +0.000 A 
ATOM     12  N   UNL     1       2.713   3.868  20.377  0.00  0.00    +0.000 NA
ATOM     13  C   UNL     1       5.242   4.213  19.309  0.00  0.00    +0.000 C 
ATOM     14  C   UNL     1       5.958   5.287  18.490  0.00  0.00    +0.000 C 
ATOM     15  O   UNL     1       7.146   5.849  19.050  0.00  0.00    +0.000 OA
ENDROOT
BRANCH   1  17
ATOM     16  N   UNL     1       8.659   8.630  18.632  0.00  0.00    +0.000 N 
ATOM     17  C   UNL     1       7.777   7.945  17.829  0.00  0.00    +0.000 C 
ATOM     18  O   UNL     1       6.941   8.494  17.117  0.00  0.00    +0.000 OA
ATOM     19  H   UNL     1       9.447   8.103  19.002  0.00  0.00    +0.000 HD
BRANCH  16  20
ATOM     20  C   UNL     1       8.781  10.077  18.589  0.00  0.00    +0.000 C 
BRANCH  20  21
ATOM     21  C   UNL     1       9.700  10.600  19.693  0.00  0.00    +0.000 C 
BRANCH  21  23
ATOM     22  C   UNL     1      11.629  11.912  20.033  0.00  0.00    +0.000 C 
ATOM     23  O   UNL     1      10.542  11.628  19.161  0.00  0.00    +0.000 OA
ENDBRANCH  21  23
ENDBRANCH  20  21
ENDBRANCH  16  20
ENDBRANCH   1  17
TORSDOF 4
ENDMDL
MODEL 2
REMARK VINA RESULT:      -6.8      6.120      7.953
REMARK  Name = 
REMARK  5 active torsions:
REMARK  status: ('A' for Active; 'I' for Inactive)
REMARK    1  A    between atoms: C_1  and  O_2
REMARK    2  A    between atoms: O_2  and  C_3
REMARK    3  A    between atoms: C_3  and  C_4
REMARK    4  A    between atoms: C_4  and  N_5
REMARK    5  A    between atoms: C_6  and  C_8
REMARK                            x       y       z     vdW  Elec       q    Type
REMARK                         _______ _______ _______ _____ _____    ______ ____
ROOT
ATOM      1  C   UNL     1       0.583  10.519  18.968  0.00  0.00    +0.000 C 
ATOM      2  C   UNL     1       1.428  10.043  17.774  0.00  0.00    +0.000 C 
ATOM      3  C   UNL     1       2.268   8.942  18.375  0.00  0.00    +0.000 C 
ATOM      4  C   UNL     1       2.705   7.788  17.485  0.00  0.00    +0.000 C 
ATOM      5  C   UNL     1       3.449   6.742  18.339  0.00  0.00    +0.000 C 
ATOM      6  N   UNL     1       2.648   6.387  19.513  0.00  0.00    +0.000 N 
ATOM      7  C   UNL     1       2.659   5.096  19.985  0.00  0.00    +0.000 A 
ATOM      8  N   UNL     1       3.294   4.150  19.275  0.00  0.00    +0.000 NA
ATOM      9  C   UNL     1       3.213   2.876  19.703  0.00  0.00    +0.000 A 
ATOM     10  C   UNL     1       2.522   2.497  20.823  0.00  0.00    +0.000 A 
ATOM     11  C   UNL     1       1.917   3.523  21.499  0.00  0.00    +0.000 A 
ATOM     12  N   UNL     1       1.974   4.809  21.106  0.00  0.00    +0.000 NA
ATOM     13  C   UNL     1       2.139   7.468  20.363  0.00  0.00    +0.000 C 
ATOM     14  C   UNL     1       1.348   8.414  19.457  0.00  0.00    +0.000 C 
ATOM     15  O   UNL     1       0.809   9.591  20.058  0.00  0.00    +0.000 OA
ENDROOT
BRANCH   1  17
ATOM     16  N   UNL     1      -1.199  10.028  17.353  0.00  0.00    +0.000 N 
ATOM     17  C   UNL     1      -0.896  10.637  18.548  0.00  0.00    +0.000 C 
ATOM     18  O   UNL     1      -1.713  11.265  19.216  0.00  0.00    +0.000 OA
ATOM     19  H   UNL     1      -0.524   9.355  16.998  0.00  0.00    +0.000 HD
BRANCH  16  20
ATOM     20  C   UNL     1      -2.559   9.944  16.850  0.00  0.00    +0.000 C 
BRANCH  20  21
ATOM     21  C   UNL     1      -2.791  10.906  15.686  0.00  0.00    +0.000 C 
BRANCH  21  23
ATOM     22  C   UNL     1      -3.856   9.991  13.791  0.00  0.00    +0.000 C 
ATOM     23  O   UNL     1      -2.614  10.206  14.449  0.00  0.00    +0.000 OA
ENDBRANCH  21  23
ENDBRANCH  20  21
ENDBRANCH  16  20
ENDBRANCH   1  17
TORSDOF 4
ENDMDL
MODEL 3
REMARK VINA RESULT:      -6.6      0.936      1.036
REMARK  Name = 
REMARK  5 active torsions:
REMARK  status: ('A' for Active; 'I' for Inactive)
REMARK    1  A    between atoms: C_1  and  O_2
REMARK    2  A    between atoms: O_2  and  C_3
REMARK    3  A    between atoms: C_3  and  C_4
REMARK    4  A    between atoms: C_4  and  N_5
REMARK    5  A    between atoms: C_6  and  C_8
REMARK                            x       y       z     vdW  Elec       q    Type
REMARK                         _______ _______ _______ _____ _____    ______ ____
ROOT
ATOM      1  C   UNL     1       8.042   6.896  17.938  0.00  0.00    +0.000 C 
ATOM      2  C   UNL     1       7.377   6.463  16.621  0.00  0.00    +0.000 C 
ATOM      3  C   UNL     1       6.483   5.327  17.054  0.00  0.00    +0.000 C 
ATOM      4  C   UNL     1       5.195   5.075  16.283  0.00  0.00    +0.000 C 
ATOM      5  C   UNL     1       4.402   3.947  16.973  0.00  0.00    +0.000 C 
ATOM      6  N   UNL     1       4.256   4.235  18.402  0.00  0.00    +0.000 N 
ATOM      7  C   UNL     1       3.098   3.887  19.056  0.00  0.00    +0.000 A 
ATOM      8  N   UNL     1       2.063   3.418  18.340  0.00  0.00    +0.000 NA
ATOM      9  C   UNL     1       0.908   3.172  18.985  0.00  0.00    +0.000 A 
ATOM     10  C   UNL     1       0.732   3.374  20.328  0.00  0.00    +0.000 A 
ATOM     11  C   UNL     1       1.839   3.838  20.988  0.00  0.00    +0.000 A 
ATOM     12  N   UNL     1       3.013   4.094  20.382  0.00  0.00    +0.000 NA
ATOM     13  C   UNL     1       5.459   4.558  19.175  0.00  0.00    +0.000 C 
ATOM     14  C   UNL     1       6.140   5.733  18.473  0.00  0.00    +0.000 C 
ATOM     15  O   UNL     1       7.383   6.183  19.013  0.00  0.00    +0.000 OA
ENDROOT
BRANCH   1  17
ATOM     16  N   UNL     1       8.905   8.965  18.940  0.00  0.00    +0.000 N 
ATOM     17  C   UNL     1       7.977   8.431  18.077  0.00  0.00    +0.000 C 
ATOM     18  O   UNL     1       7.130   9.101  17.492  0.00  0.00    +0.000 OA
ATOM     19  H   UNL     1       9.691   8.370  19.194  0.00  0.00    +0.000 HD
BRANCH  16  20
ATOM     20  C   UNL     1       9.063  10.398  19.118  0.00  0.00    +0.000 C 
BRANCH  20  21
ATOM     21  C   UNL     1      10.214  10.948  18.277  0.00  0.00    +0.000 C 
BRANCH  21  23
ATOM     22  C   UNL     1       8.767  12.809  18.337  0.00  0.00    +0.000 C 
ATOM     23  O   UNL     1       9.784  12.137  17.605  0.00  0.00    +0.000 OA
ENDBRANCH  21  23
ENDBRANCH  20  21
ENDBRANCH  16  20
ENDBRANCH   1  17
TORSDOF 4
ENDMDL
MODEL 4
REMARK VINA RESULT:      -6.6      1.499      1.765
REMARK  Name = 
REMARK  5 active torsions:
REMARK  status: ('A' for Active; 'I' for Inactive)
REMARK    1  A    between atoms: C_1  and  O_2
REMARK    2  A    between atoms: O_2  and  C_3
REMARK    3  A    between atoms: C_3  and  C_4
REMARK    4  A    between atoms: C_4  and  N_5
REMARK    5  A    between atoms: C_6  and  C_8
REMARK                            x       y       z     vdW  Elec       q    Type
REMARK                         _______ _______ _______ _____ _____    ______ ____
ROOT
ATOM      1  C   UNL     1       7.346   6.737  17.322  0.00  0.00    +0.000 C 
ATOM      2  C   UNL     1       6.022   7.428  16.956  0.00  0.00    +0.000 C 
ATOM      3  C   UNL     1       5.003   6.334  17.168  0.00  0.00    +0.000 C 
ATOM      4  C   UNL     1       3.592   6.721  17.588  0.00  0.00    +0.000 C 
ATOM      5  C   UNL     1       2.772   5.443  17.851  0.00  0.00    +0.000 C 
ATOM      6  N   UNL     1       3.499   4.556  18.762  0.00  0.00    +0.000 N 
ATOM      7  C   UNL     1       2.809   3.811  19.690  0.00  0.00    +0.000 A 
ATOM      8  N   UNL     1       1.490   4.019  19.838  0.00  0.00    +0.000 NA
ATOM      9  C   UNL     1       0.851   3.349  20.814  0.00  0.00    +0.000 A 
ATOM     10  C   UNL     1       1.471   2.469  21.661  0.00  0.00    +0.000 A 
ATOM     11  C   UNL     1       2.812   2.301  21.433  0.00  0.00    +0.000 A 
ATOM     12  N   UNL     1       3.488   2.950  20.467  0.00  0.00    +0.000 NA
ATOM     13  C   UNL     1       4.888   4.212  18.442  0.00  0.00    +0.000 C 
ATOM     14  C   UNL     1       5.648   5.529  18.278  0.00  0.00    +0.000 C 
ATOM     15  O   UNL     1       7.020   5.446  17.892  0.00  0.00    +0.000 OA
ENDROOT
BRANCH   1  17
ATOM     16  N   UNL     1       8.222   8.962  17.878  0.00  0.00    +0.000 N 
ATOM     17  C   UNL     1       8.165   7.643  18.264  0.00  0.00    +0.000 C 
ATOM     18  O   UNL     1       8.749   7.199  19.249  0.00  0.00    +0.000 OA
ATOM     19  H   UNL     1       7.535   9.270  17.194  0.00  0.00    +0.000 HD
BRANCH  16  20
ATOM     20  C   UNL     1       8.858   9.981  18.695  0.00  0.00    +0.000 C 
BRANCH  20  21
ATOM     21  C   UNL     1       9.002  11.302  17.941  0.00  0.00    +0.000 C 
BRANCH  21  23
ATOM     22  C   UNL     1      11.300  11.829  17.963  0.00  0.00    +0.000 C 
ATOM     23  O   UNL     1      10.032  12.087  18.552  0.00  0.00    +0.000 OA
ENDBRANCH  21  23
ENDBRANCH  20  21
ENDBRANCH  16  20
ENDBRANCH   1  17
TORSDOF 4
ENDMDL
MODEL 5
REMARK VINA RESULT:      -6.5      6.291      7.992
REMARK  Name = 
REMARK  5 active torsions:
REMARK  status: ('A' for Active; 'I' for Inactive)
REMARK    1  A    between atoms: C_1  and  O_2
REMARK    2  A    between atoms: O_2  and  C_3
REMARK    3  A    between atoms: C_3  and  C_4
REMARK    4  A    between atoms: C_4  and  N_5
REMARK    5  A    between atoms: C_6  and  C_8
REMARK                            x       y       z     vdW  Elec       q    Type
REMARK                         _______ _______ _______ _____ _____    ______ ____
ROOT
ATOM      1  C   UNL     1       0.718  10.857  19.826  0.00  0.00    +0.000 C 
ATOM      2  C   UNL     1       1.372  10.523  18.475  0.00  0.00    +0.000 C 
ATOM      3  C   UNL     1       2.103   9.234  18.764  0.00  0.00    +0.000 C 
ATOM      4  C   UNL     1       2.288   8.230  17.636  0.00  0.00    +0.000 C 
ATOM      5  C   UNL     1       2.956   6.957  18.194  0.00  0.00    +0.000 C 
ATOM      6  N   UNL     1       2.227   6.481  19.372  0.00  0.00    +0.000 N 
ATOM      7  C   UNL     1       2.100   5.130  19.600  0.00  0.00    +0.000 A 
ATOM      8  N   UNL     1       2.527   4.270  18.661  0.00  0.00    +0.000 NA
ATOM      9  C   UNL     1       2.310   2.957  18.860  0.00  0.00    +0.000 A 
ATOM     10  C   UNL     1       1.680   2.454  19.967  0.00  0.00    +0.000 A 
ATOM     11  C   UNL     1       1.291   3.394  20.884  0.00  0.00    +0.000 A 
ATOM     12  N   UNL     1       1.490   4.715  20.724  0.00  0.00    +0.000 NA
ATOM     13  C   UNL     1       1.955   7.429  20.456  0.00  0.00    +0.000 C 
ATOM     14  C   UNL     1       1.223   8.620  19.835  0.00  0.00    +0.000 C 
ATOM     15  O   UNL     1       0.913   9.715  20.697  0.00  0.00    +0.000 OA
ENDROOT
BRANCH   1  17
ATOM     16  N   UNL     1      -1.185  11.160  18.305  0.00  0.00    +0.000 N 
ATOM     17  C   UNL     1      -0.763  11.230  19.612  0.00  0.00    +0.000 C 
ATOM     18  O   UNL     1      -1.480  11.600  20.538  0.00  0.00    +0.000 OA
ATOM     19  H   UNL     1      -0.597  10.636  17.661  0.00  0.00    +0.000 HD
BRANCH  16  20
ATOM     20  C   UNL     1      -2.571  11.373  17.926  0.00  0.00    +0.000 C 
BRANCH  20  21
ATOM     21  C   UNL     1      -3.094  10.245  17.038  0.00  0.00    +0.000 C 
BRANCH  21  23
ATOM     22  C   UNL     1      -3.090  10.148  14.682  0.00  0.00    +0.000 C 
ATOM     23  O   UNL     1      -3.622  10.801  15.828  0.00  0.00    +0.000 OA
ENDBRANCH  21  23
ENDBRANCH  20  21
ENDBRANCH  16  20
ENDBRANCH   1  17
TORSDOF 4
ENDMDL
MODEL 6
REMARK VINA RESULT:      -6.5      3.965      6.912
REMARK  Name = 
REMARK  5 active torsions:
REMARK  status: ('A' for Active; 'I' for Inactive)
REMARK    1  A    between atoms: C_1  and  O_2
REMARK    2  A    between atoms: O_2  and  C_3
REMARK    3  A    between atoms: C_3  and  C_4
REMARK    4  A    between atoms: C_4  and  N_5
REMARK    5  A    between atoms: C_6  and  C_8
REMARK                            x       y       z     vdW  Elec       q    Type
REMARK                         _______ _______ _______ _____ _____    ______ ____
ROOT
ATOM      1  C   UNL     1       3.800   4.253  19.531  0.00  0.00    +0.000 C 
ATOM      2  C   UNL     1       4.949   5.271  19.644  0.00  0.00    +0.000 C 
ATOM      3  C   UNL     1       5.885   4.844  18.540  0.00  0.00    +0.000 C 
ATOM      4  C   UNL     1       6.742   5.902  17.859  0.00  0.00    +0.000 C 
ATOM      5  C   UNL     1       7.525   5.253  16.701  0.00  0.00    +0.000 C 
ATOM      6  N   UNL     1       6.614   4.501  15.835  0.00  0.00    +0.000 N 
ATOM      7  C   UNL     1       6.829   4.468  14.477  0.00  0.00    +0.000 A 
ATOM      8  N   UNL     1       7.791   5.246  13.953  0.00  0.00    +0.000 NA
ATOM      9  C   UNL     1       7.923   5.271  12.614  0.00  0.00    +0.000 A 
ATOM     10  C   UNL     1       7.133   4.549  11.761  0.00  0.00    +0.000 A 
ATOM     11  C   UNL     1       6.188   3.770  12.375  0.00  0.00    +0.000 A 
ATOM     12  N   UNL     1       6.024   3.714  13.710  0.00  0.00    +0.000 NA
ATOM     13  C   UNL     1       5.713   3.522  16.452  0.00  0.00    +0.000 C 
ATOM     14  C   UNL     1       4.919   4.262  17.529  0.00  0.00    +0.000 C 
ATOM     15  O   UNL     1       4.017   3.488  18.320  0.00  0.00    +0.000 OA
ENDROOT
BRANCH   1  17
ATOM     16  N   UNL     1       2.376   6.010  20.487  0.00  0.00    +0.000 N 
ATOM     17  C   UNL     1       2.445   4.989  19.568  0.00  0.00    +0.000 C 
ATOM     18  O   UNL     1       1.501   4.648  18.860  0.00  0.00    +0.000 OA
ATOM     19  H   UNL     1       3.259   6.356  20.855  0.00  0.00    +0.000 HD
BRANCH  16  20
ATOM     20  C   UNL     1       1.218   6.880  20.592  0.00  0.00    +0.000 C 
BRANCH  20  21
ATOM     21  C   UNL     1       1.573   8.333  20.277  0.00  0.00    +0.000 C 
BRANCH  21  23
ATOM     22  C   UNL     1       1.241   9.548  18.283  0.00  0.00    +0.000 C 
ATOM     23  O   UNL     1       1.909   8.448  18.890  0.00  0.00    +0.000 OA
ENDBRANCH  21  23
ENDBRANCH  20  21
ENDBRANCH  16  20
ENDBRANCH   1  17
TORSDOF 4
ENDMDL
MODEL 7
REMARK VINA RESULT:      -6.5      6.203      7.902
REMARK  Name = 
REMARK  5 active torsions:
REMARK  status: ('A' for Active; 'I' for Inactive)
REMARK    1  A    between atoms: C_1  and  O_2
REMARK    2  A    between atoms: O_2  and  C_3
REMARK    3  A    between atoms: C_3  and  C_4
REMARK    4  A    between atoms: C_4  and  N_5
REMARK    5  A    between atoms: C_6  and  C_8
REMARK                            x       y       z     vdW  Elec       q    Type
REMARK                         _______ _______ _______ _____ _____    ______ ____
ROOT
ATOM      1  C   UNL     1       0.899  10.750  19.461  0.00  0.00    +0.000 C 
ATOM      2  C   UNL     1       1.655  10.349  18.183  0.00  0.00    +0.000 C 
ATOM      3  C   UNL     1       2.333   9.061  18.584  0.00  0.00    +0.000 C 
ATOM      4  C   UNL     1       2.591   8.008  17.516  0.00  0.00    +0.000 C 
ATOM      5  C   UNL     1       3.185   6.749  18.178  0.00  0.00    +0.000 C 
ATOM      6  N   UNL     1       2.352   6.334  19.310  0.00  0.00    +0.000 N 
ATOM      7  C   UNL     1       2.180   4.997  19.581  0.00  0.00    +0.000 A 
ATOM      8  N   UNL     1       2.666   4.091  18.716  0.00  0.00    +0.000 NA
ATOM      9  C   UNL     1       2.406   2.791  18.949  0.00  0.00    +0.000 A 
ATOM     10  C   UNL     1       1.677   2.345  20.019  0.00  0.00    +0.000 A 
ATOM     11  C   UNL     1       1.233   3.330  20.862  0.00  0.00    +0.000 A 
ATOM     12  N   UNL     1       1.472   4.639  20.666  0.00  0.00    +0.000 NA
ATOM     13  C   UNL     1       2.011   7.332  20.328  0.00  0.00    +0.000 C 
ATOM     14  C   UNL     1       1.357   8.507  19.601  0.00  0.00    +0.000 C 
ATOM     15  O   UNL     1       0.999   9.643  20.390  0.00  0.00    +0.000 OA
ENDROOT
BRANCH   1  17
ATOM     16  N   UNL     1      -0.852  11.069  17.769  0.00  0.00    +0.000 N 
ATOM     17  C   UNL     1      -0.552  11.139  19.109  0.00  0.00    +0.000 C 
ATOM     18  O   UNL     1      -1.348  11.519  19.964  0.00  0.00    +0.000 OA
ATOM     19  H   UNL     1      -0.212  10.536  17.183  0.00  0.00    +0.000 HD
BRANCH  16  20
ATOM     20  C   UNL     1      -2.194  11.295  17.263  0.00  0.00    +0.000 C 
BRANCH  20  21
ATOM     21  C   UNL     1      -2.883   9.986  16.881  0.00  0.00    +0.000 C 
BRANCH  21  23
ATOM     22  C   UNL     1      -4.697  10.960  18.031  0.00  0.00    +0.000 C 
ATOM     23  O   UNL     1      -3.988   9.757  17.763  0.00  0.00    +0.000 OA
ENDBRANCH  21  23
ENDBRANCH  20  21
ENDBRANCH  16  20
ENDBRANCH   1  17
TORSDOF 4
ENDMDL
MODEL 8
REMARK VINA RESULT:      -6.5      4.095      7.084
REMARK  Name = 
REMARK  5 active torsions:
REMARK  status: ('A' for Active; 'I' for Inactive)
REMARK    1  A    between atoms: C_1  and  O_2
REMARK    2  A    between atoms: O_2  and  C_3
REMARK    3  A    between atoms: C_3  and  C_4
REMARK    4  A    between atoms: C_4  and  N_5
REMARK    5  A    between atoms: C_6  and  C_8
REMARK                            x       y       z     vdW  Elec       q    Type
REMARK                         _______ _______ _______ _____ _____    ______ ____
ROOT
ATOM      1  C   UNL     1       3.764   4.214  19.556  0.00  0.00    +0.000 C 
ATOM      2  C   UNL     1       4.910   5.233  19.679  0.00  0.00    +0.000 C 
ATOM      3  C   UNL     1       5.852   4.813  18.577  0.00  0.00    +0.000 C 
ATOM      4  C   UNL     1       6.709   5.876  17.905  0.00  0.00    +0.000 C 
ATOM      5  C   UNL     1       7.498   5.234  16.746  0.00  0.00    +0.000 C 
ATOM      6  N   UNL     1       6.591   4.486  15.873  0.00  0.00    +0.000 N 
ATOM      7  C   UNL     1       6.811   4.461  14.515  0.00  0.00    +0.000 A 
ATOM      8  N   UNL     1       7.774   5.243  13.999  0.00  0.00    +0.000 NA
ATOM      9  C   UNL     1       7.911   5.276  12.661  0.00  0.00    +0.000 A 
ATOM     10  C   UNL     1       7.125   4.557  11.801  0.00  0.00    +0.000 A 
ATOM     11  C   UNL     1       6.179   3.774  12.407  0.00  0.00    +0.000 A 
ATOM     12  N   UNL     1       6.010   3.710  13.740  0.00  0.00    +0.000 NA
ATOM     13  C   UNL     1       5.689   3.502  16.480  0.00  0.00    +0.000 C 
ATOM     14  C   UNL     1       4.890   4.236  17.558  0.00  0.00    +0.000 C 
ATOM     15  O   UNL     1       3.985   3.456  18.342  0.00  0.00    +0.000 OA
ENDROOT
BRANCH   1  17
ATOM     16  N   UNL     1       2.282   5.864  20.610  0.00  0.00    +0.000 N 
ATOM     17  C   UNL     1       2.407   4.948  19.592  0.00  0.00    +0.000 C 
ATOM     18  O   UNL     1       1.507   4.690  18.797  0.00  0.00    +0.000 OA
ATOM     19  H   UNL     1       3.142   6.165  21.064  0.00  0.00    +0.000 HD
BRANCH  16  20
ATOM     20  C   UNL     1       1.119   6.724  20.739  0.00  0.00    +0.000 C 
BRANCH  20  21
ATOM     21  C   UNL     1       1.501   8.203  20.691  0.00  0.00    +0.000 C 
BRANCH  21  23
ATOM     22  C   UNL     1      -0.021   9.155  22.221  0.00  0.00    +0.000 C 
ATOM     23  O   UNL     1       1.331   8.779  21.991  0.00  0.00    +0.000 OA
ENDBRANCH  21  23
ENDBRANCH  20  21
ENDBRANCH  16  20
ENDBRANCH   1  17
TORSDOF 4
ENDMDL
MODEL 9
REMARK VINA RESULT:      -6.2      3.630      6.015
REMARK  Name = 
REMARK  5 active torsions:
REMARK  status: ('A' for Active; 'I' for Inactive)
REMARK    1  A    between atoms: C_1  and  O_2
REMARK    2  A    between atoms: O_2  and  C_3
REMARK    3  A    between atoms: C_3  and  C_4
REMARK    4  A    between atoms: C_4  and  N_5
REMARK    5  A    between atoms: C_6  and  C_8
REMARK                            x       y       z     vdW  Elec       q    Type
REMARK                         _______ _______ _______ _____ _____    ______ ____
ROOT
ATOM      1  C   UNL     1       6.462   6.216  15.292  0.00  0.00    +0.000 C 
ATOM      2  C   UNL     1       7.207   5.968  16.614  0.00  0.00    +0.000 C 
ATOM      3  C   UNL     1       6.089   5.928  17.628  0.00  0.00    +0.000 C 
ATOM      4  C   UNL     1       6.259   5.064  18.869  0.00  0.00    +0.000 C 
ATOM      5  C   UNL     1       4.955   5.095  19.691  0.00  0.00    +0.000 C 
ATOM      6  N   UNL     1       3.810   4.780  18.833  0.00  0.00    +0.000 N 
ATOM      7  C   UNL     1       2.758   4.050  19.335  0.00  0.00    +0.000 A 
ATOM      8  N   UNL     1       2.864   3.518  20.563  0.00  0.00    +0.000 NA
ATOM      9  C   UNL     1       1.864   2.730  20.999  0.00  0.00    +0.000 A 
ATOM     10  C   UNL     1       0.748   2.444  20.259  0.00  0.00    +0.000 A 
ATOM     11  C   UNL     1       0.709   3.038  19.026  0.00  0.00    +0.000 A 
ATOM     12  N   UNL     1       1.686   3.834  18.553  0.00  0.00    +0.000 NA
ATOM     13  C   UNL     1       3.644   5.533  17.586  0.00  0.00    +0.000 C 
ATOM     14  C   UNL     1       4.945   5.384  16.797  0.00  0.00    +0.000 C 
ATOM     15  O   UNL     1       5.044   6.098  15.564  0.00  0.00    +0.000 OA
ENDROOT
BRANCH   1  17
ATOM     16  N   UNL     1       6.099   4.222  13.906  0.00  0.00    +0.000 N 
ATOM     17  C   UNL     1       6.972   5.240  14.213  0.00  0.00    +0.000 C 
ATOM     18  O   UNL     1       8.088   5.351  13.711  0.00  0.00    +0.000 OA
ATOM     19  H   UNL     1       5.132   4.344  14.199  0.00  0.00    +0.000 HD
BRANCH  16  20
ATOM     20  C   UNL     1       6.362   3.271  12.841  0.00  0.00    +0.000 C 
BRANCH  20  21
ATOM     21  C   UNL     1       5.169   3.133  11.897  0.00  0.00    +0.000 C 
BRANCH  21  23
ATOM     22  C   UNL     1       6.557   1.386  11.136  0.00  0.00    +0.000 C 
ATOM     23  O   UNL     1       5.220   1.856  11.251  0.00  0.00    +0.000 OA
ENDBRANCH  21  23
ENDBRANCH  20  21
ENDBRANCH  16  20
ENDBRANCH   1  17
TORSDOF 4
ENDMDL
