MODEL 1
REMARK VINA RESULT:      -8.3      0.000      0.000
REMARK  Name = 
REMARK  8 active torsions:
REMARK  status: ('A' for Active; 'I' for Inactive)
REMARK    1  A    between atoms: C_1  and  O_2
REMARK    2  A    between atoms: O_2  and  C_3
REMARK    3  A    between atoms: C_5  and  C_6
REMARK    4  A    between atoms: C_12  and  C_13
REMARK    5  A    between atoms: C_24  and  O_25
REMARK    6  A    between atoms: O_25  and  C_26
REMARK    7  A    between atoms: C_27  and  O_28
REMARK    8  A    between atoms: O_28  and  C_29
REMARK                            x       y       z     vdW  Elec       q    Type
REMARK                         _______ _______ _______ _____ _____    ______ ____
ROOT
ATOM      1  C   UNL     1       2.099   5.948  19.955  0.00  0.00    +0.000 A 
ATOM      2  C   UNL     1       1.275   5.029  20.795  0.00  0.00    +0.000 A 
ATOM      3  C   UNL     1       1.378   3.717  20.559  0.00  0.00    +0.000 A 
ATOM      4  C   UNL     1       2.273   3.254  19.571  0.00  0.00    +0.000 A 
ATOM      5  N   UNL     1       2.522   2.036  19.149  0.00  0.00    +0.000 NA
ATOM      6  C   UNL     1       3.499   2.188  18.200  0.00  0.00    +0.000 A 
ATOM      7  C   UNL     1       3.872   3.514  18.036  0.00  0.00    +0.000 A 
ATOM      8  N   UNL     1       3.048   4.199  18.918  0.00  0.00    +0.000 N 
ATOM      9  N   UNL     1       2.979   5.558  19.078  0.00  0.00    +0.000 NA
ENDROOT
BRANCH   7  10
ATOM     10  C   UNL     1       4.886   4.103  17.147  0.00  0.00    +0.000 A 
ATOM     11  C   UNL     1       5.102   3.561  15.869  0.00  0.00    +0.000 A 
ATOM     12  C   UNL     1       6.090   4.078  15.027  0.00  0.00    +0.000 A 
ATOM     13  C   UNL     1       6.869   5.148  15.456  0.00  0.00    +0.000 A 
ATOM     14  F   UNL     1       7.815   5.627  14.636  0.00  0.00    +0.000 F 
ATOM     15  C   UNL     1       6.667   5.703  16.714  0.00  0.00    +0.000 A 
ATOM     16 CL   UNL     1       7.621   7.032  17.253  0.00  0.00    +0.000 Cl
ATOM     17  C   UNL     1       5.686   5.178  17.559  0.00  0.00    +0.000 A 
ENDBRANCH   7  10
BRANCH   1  20
ATOM     18  C   UNL     1       1.464   9.573  19.077  0.00  0.00    +0.000 A 
ATOM     19  C   UNL     1       1.889   8.235  18.998  0.00  0.00    +0.000 A 
ATOM     20  C   UNL     1       1.861   7.411  20.119  0.00  0.00    +0.000 A 
ATOM     21  C   UNL     1       1.480   7.952  21.343  0.00  0.00    +0.000 A 
ATOM     22  C   UNL     1       1.138   9.303  21.468  0.00  0.00    +0.000 A 
ATOM     23  C   UNL     1       1.129  10.140  20.329  0.00  0.00    +0.000 A 
BRANCH  18  25
ATOM     24  C   UNL     1       2.392  11.364  17.828  0.00  0.00    +0.000 C 
ATOM     25  O   UNL     1       1.401  10.336  17.937  0.00  0.00    +0.000 OA
ENDBRANCH  18  25
BRANCH  22  26
ATOM     26  O   UNL     1       0.821   9.608  22.767  0.00  0.00    +0.000 OA
ATOM     27  C   UNL     1      -0.533   9.603  23.186  0.00  0.00    +0.000 C 
ENDBRANCH  22  26
BRANCH  23  28
ATOM     28  O   UNL     1       0.788  11.447  20.557  0.00  0.00    +0.000 OA
ATOM     29  C   UNL     1      -0.526  11.917  20.318  0.00  0.00    +0.000 C 
ENDBRANCH  23  28
ENDBRANCH   1  20
TORSDOF 5
ENDMDL
MODEL 2
REMARK VINA RESULT:      -8.3      1.019      1.341
REMARK  Name = 
REMARK  8 active torsions:
REMARK  status: ('A' for Active; 'I' for Inactive)
REMARK    1  A    between atoms: C_1  and  O_2
REMARK    2  A    between atoms: O_2  and  C_3
REMARK    3  A    between atoms: C_5  and  C_6
REMARK    4  A    between atoms: C_12  and  C_13
REMARK    5  A    between atoms: C_24  and  O_25
REMARK    6  A    between atoms: O_25  and  C_26
REMARK    7  A    between atoms: C_27  and  O_28
REMARK    8  A    between atoms: O_28  and  C_29
REMARK                            x       y       z     vdW  Elec       q    Type
REMARK                         _______ _______ _______ _____ _____    ______ ____
ROOT
ATOM      1  C   UNL     1       2.118   5.793  19.920  0.00  0.00    +0.000 A 
ATOM      2  C   UNL     1       1.257   4.901  20.752  0.00  0.00    +0.000 A 
ATOM      3  C   UNL     1       1.339   3.583  20.534  0.00  0.00    +0.000 A 
ATOM      4  C   UNL     1       2.246   3.091  19.571  0.00  0.00    +0.000 A 
ATOM      5  N   UNL     1       2.480   1.864  19.168  0.00  0.00    +0.000 NA
ATOM      6  C   UNL     1       3.480   1.986  18.240  0.00  0.00    +0.000 A 
ATOM      7  C   UNL     1       3.883   3.302  18.069  0.00  0.00    +0.000 A 
ATOM      8  N   UNL     1       3.054   4.013  18.924  0.00  0.00    +0.000 N 
ATOM      9  N   UNL     1       3.009   5.375  19.068  0.00  0.00    +0.000 NA
ENDROOT
BRANCH   7  10
ATOM     10  C   UNL     1       4.928   3.860  17.196  0.00  0.00    +0.000 A 
ATOM     11  C   UNL     1       5.942   4.666  17.738  0.00  0.00    +0.000 A 
ATOM     12  C   UNL     1       6.918   5.241  16.919  0.00  0.00    +0.000 A 
ATOM     13  C   UNL     1       6.889   5.009  15.548  0.00  0.00    +0.000 A 
ATOM     14  F   UNL     1       7.831   5.573  14.778  0.00  0.00    +0.000 F 
ATOM     15  C   UNL     1       5.897   4.209  14.992  0.00  0.00    +0.000 A 
ATOM     16 CL   UNL     1       5.856   3.909  13.296  0.00  0.00    +0.000 Cl
ATOM     17  C   UNL     1       4.917   3.643  15.810  0.00  0.00    +0.000 A 
ENDBRANCH   7  10
BRANCH   1  20
ATOM     18  C   UNL     1       1.545   9.415  18.990  0.00  0.00    +0.000 A 
ATOM     19  C   UNL     1       1.946   8.068  18.930  0.00  0.00    +0.000 A 
ATOM     20  C   UNL     1       1.906   7.262  20.064  0.00  0.00    +0.000 A 
ATOM     21  C   UNL     1       1.537   7.828  21.279  0.00  0.00    +0.000 A 
ATOM     22  C   UNL     1       1.219   9.187  21.384  0.00  0.00    +0.000 A 
ATOM     23  C   UNL     1       1.222  10.006  20.233  0.00  0.00    +0.000 A 
BRANCH  18  25
ATOM     24  C   UNL     1       2.439  11.233  17.755  0.00  0.00    +0.000 C 
ATOM     25  O   UNL     1       1.493  10.161  17.838  0.00  0.00    +0.000 OA
ENDBRANCH  18  25
BRANCH  22  26
ATOM     26  O   UNL     1       0.910   9.516  22.680  0.00  0.00    +0.000 OA
ATOM     27  C   UNL     1      -0.444   9.544  23.100  0.00  0.00    +0.000 C 
ENDBRANCH  22  26
BRANCH  23  28
ATOM     28  O   UNL     1       0.905  11.323  20.441  0.00  0.00    +0.000 OA
ATOM     29  C   UNL     1      -0.404  11.809  20.207  0.00  0.00    +0.000 C 
ENDBRANCH  23  28
ENDBRANCH   1  20
TORSDOF 5
ENDMDL
MODEL 3
REMARK VINA RESULT:      -8.2      3.772      7.337
REMARK  Name = 
REMARK  8 active torsions:
REMARK  status: ('A' for Active; 'I' for Inactive)
REMARK    1  A    between atoms: C_1  and  O_2
REMARK    2  A    between atoms: O_2  and  C_3
REMARK    3  A    between atoms: C_5  and  C_6
REMARK    4  A    between atoms: C_12  and  C_13
REMARK    5  A    between atoms: C_24  and  O_25
REMARK    6  A    between atoms: O_25  and  C_26
REMARK    7  A    between atoms: C_27  and  O_28
REMARK    8  A    between atoms: O_28  and  C_29
REMARK                            x       y       z     vdW  Elec       q    Type
REMARK                         _______ _______ _______ _____ _____    ______ ____
ROOT
ATOM      1  C   UNL     1       4.214   3.639  17.570  0.00  0.00    +0.000 A 
ATOM      2  C   UNL     1       3.988   2.169  17.702  0.00  0.00    +0.000 A 
ATOM      3  C   UNL     1       3.113   1.759  18.627  0.00  0.00    +0.000 A 
ATOM      4  C   UNL     1       2.418   2.712  19.401  0.00  0.00    +0.000 A 
ATOM      5  N   UNL     1       1.547   2.553  20.371  0.00  0.00    +0.000 NA
ATOM      6  C   UNL     1       1.189   3.825  20.730  0.00  0.00    +0.000 A 
ATOM      7  C   UNL     1       1.834   4.791  19.970  0.00  0.00    +0.000 A 
ATOM      8  N   UNL     1       2.650   4.051  19.125  0.00  0.00    +0.000 N 
ATOM      9  N   UNL     1       3.550   4.550  18.221  0.00  0.00    +0.000 NA
ENDROOT
BRANCH   7  10
ATOM     10  C   UNL     1       1.721   6.256  20.016  0.00  0.00    +0.000 A 
ATOM     11  C   UNL     1       1.262   6.890  21.182  0.00  0.00    +0.000 A 
ATOM     12  C   UNL     1       1.106   8.278  21.232  0.00  0.00    +0.000 A 
ATOM     13  C   UNL     1       1.412   9.046  20.113  0.00  0.00    +0.000 A 
ATOM     14  F   UNL     1       1.251  10.375  20.178  0.00  0.00    +0.000 F 
ATOM     15  C   UNL     1       1.873   8.438  18.951  0.00  0.00    +0.000 A 
ATOM     16 CL   UNL     1       2.263   9.379  17.561  0.00  0.00    +0.000 Cl
ATOM     17  C   UNL     1       2.020   7.050  18.899  0.00  0.00    +0.000 A 
ENDBRANCH   7  10
BRANCH   1  20
ATOM     18  C   UNL     1       6.307   3.965  14.435  0.00  0.00    +0.000 A 
ATOM     19  C   UNL     1       5.439   3.448  15.413  0.00  0.00    +0.000 A 
ATOM     20  C   UNL     1       5.302   4.075  16.647  0.00  0.00    +0.000 A 
ATOM     21  C   UNL     1       6.095   5.181  16.932  0.00  0.00    +0.000 A 
ATOM     22  C   UNL     1       7.032   5.663  16.011  0.00  0.00    +0.000 A 
ATOM     23  C   UNL     1       7.154   5.055  14.741  0.00  0.00    +0.000 A 
BRANCH  18  25
ATOM     24  C   UNL     1       5.129   3.455  12.440  0.00  0.00    +0.000 C 
ATOM     25  O   UNL     1       6.348   3.391  13.189  0.00  0.00    +0.000 OA
ENDBRANCH  18  25
BRANCH  22  26
ATOM     26  O   UNL     1       7.708   6.741  16.523  0.00  0.00    +0.000 OA
ATOM     27  C   UNL     1       7.506   7.130  17.871  0.00  0.00    +0.000 C 
ENDBRANCH  22  26
BRANCH  23  28
ATOM     28  O   UNL     1       8.105   5.595  13.915  0.00  0.00    +0.000 OA
ATOM     29  C   UNL     1       7.925   5.626  12.511  0.00  0.00    +0.000 C 
ENDBRANCH  23  28
ENDBRANCH   1  20
TORSDOF 5
ENDMDL
MODEL 4
REMARK VINA RESULT:      -8.1      3.833      7.548
REMARK  Name = 
REMARK  8 active torsions:
REMARK  status: ('A' for Active; 'I' for Inactive)
REMARK    1  A    between atoms: C_1  and  O_2
REMARK    2  A    between atoms: O_2  and  C_3
REMARK    3  A    between atoms: C_5  and  C_6
REMARK    4  A    between atoms: C_12  and  C_13
REMARK    5  A    between atoms: C_24  and  O_25
REMARK    6  A    between atoms: O_25  and  C_26
REMARK    7  A    between atoms: C_27  and  O_28
REMARK    8  A    between atoms: O_28  and  C_29
REMARK                            x       y       z     vdW  Elec       q    Type
REMARK                         _______ _______ _______ _____ _____    ______ ____
ROOT
ATOM      1  C   UNL     1       4.032   3.865  17.385  0.00  0.00    +0.000 A 
ATOM      2  C   UNL     1       3.834   2.389  17.490  0.00  0.00    +0.000 A 
ATOM      3  C   UNL     1       3.023   1.942  18.456  0.00  0.00    +0.000 A 
ATOM      4  C   UNL     1       2.366   2.864  19.298  0.00  0.00    +0.000 A 
ATOM      5  N   UNL     1       1.559   2.667  20.314  0.00  0.00    +0.000 NA
ATOM      6  C   UNL     1       1.207   3.924  20.730  0.00  0.00    +0.000 A 
ATOM      7  C   UNL     1       1.791   4.918  19.958  0.00  0.00    +0.000 A 
ATOM      8  N   UNL     1       2.562   4.213  19.044  0.00  0.00    +0.000 N 
ATOM      9  N   UNL     1       3.398   4.749  18.100  0.00  0.00    +0.000 NA
ENDROOT
BRANCH   7  10
ATOM     10  C   UNL     1       1.662   6.380  20.052  0.00  0.00    +0.000 A 
ATOM     11  C   UNL     1       1.210   6.972  21.242  0.00  0.00    +0.000 A 
ATOM     12  C   UNL     1       1.040   8.356  21.337  0.00  0.00    +0.000 A 
ATOM     13  C   UNL     1       1.324   9.161  20.239  0.00  0.00    +0.000 A 
ATOM     14  F   UNL     1       1.148  10.486  20.348  0.00  0.00    +0.000 F 
ATOM     15  C   UNL     1       1.777   8.596  19.053  0.00  0.00    +0.000 A 
ATOM     16 CL   UNL     1       2.139   9.584  17.689  0.00  0.00    +0.000 Cl
ATOM     17  C   UNL     1       1.938   7.212  18.956  0.00  0.00    +0.000 A 
ENDBRANCH   7  10
BRANCH   1  20
ATOM     18  C   UNL     1       6.990   5.746  15.961  0.00  0.00    +0.000 A 
ATOM     19  C   UNL     1       5.882   5.406  16.757  0.00  0.00    +0.000 A 
ATOM     20  C   UNL     1       5.055   4.342  16.409  0.00  0.00    +0.000 A 
ATOM     21  C   UNL     1       5.293   3.666  15.218  0.00  0.00    +0.000 A 
ATOM     22  C   UNL     1       6.335   4.041  14.362  0.00  0.00    +0.000 A 
ATOM     23  C   UNL     1       7.202   5.097  14.723  0.00  0.00    +0.000 A 
BRANCH  18  25
ATOM     24  C   UNL     1       7.479   7.403  17.587  0.00  0.00    +0.000 C 
ATOM     25  O   UNL     1       7.851   6.731  16.379  0.00  0.00    +0.000 OA
ENDBRANCH  18  25
BRANCH  22  26
ATOM     26  O   UNL     1       6.358   3.247  13.244  0.00  0.00    +0.000 OA
ATOM     27  C   UNL     1       5.293   3.307  12.310  0.00  0.00    +0.000 C 
ENDBRANCH  22  26
BRANCH  23  28
ATOM     28  O   UNL     1       8.185   5.394  13.815  0.00  0.00    +0.000 OA
ATOM     29  C   UNL     1       7.869   5.788  12.493  0.00  0.00    +0.000 C 
ENDBRANCH  23  28
ENDBRANCH   1  20
TORSDOF 5
ENDMDL
MODEL 5
REMARK VINA RESULT:      -8.0      3.976      7.407
REMARK  Name = 
REMARK  8 active torsions:
REMARK  status: ('A' for Active; 'I' for Inactive)
REMARK    1  A    between atoms: C_1  and  O_2
REMARK    2  A    between atoms: O_2  and  C_3
REMARK    3  A    between atoms: C_5  and  C_6
REMARK    4  A    between atoms: C_12  and  C_13
REMARK    5  A    between atoms: C_24  and  O_25
REMARK    6  A    between atoms: O_25  and  C_26
REMARK    7  A    between atoms: C_27  and  O_28
REMARK    8  A    between atoms: O_28  and  C_29
REMARK                            x       y       z     vdW  Elec       q    Type
REMARK                         _______ _______ _______ _____ _____    ______ ____
ROOT
ATOM      1  C   UNL     1       4.223   3.668  17.498  0.00  0.00    +0.000 A 
ATOM      2  C   UNL     1       4.012   2.203  17.690  0.00  0.00    +0.000 A 
ATOM      3  C   UNL     1       3.135   1.822  18.625  0.00  0.00    +0.000 A 
ATOM      4  C   UNL     1       2.425   2.799  19.355  0.00  0.00    +0.000 A 
ATOM      5  N   UNL     1       1.549   2.671  20.324  0.00  0.00    +0.000 NA
ATOM      6  C   UNL     1       1.174   3.953  20.628  0.00  0.00    +0.000 A 
ATOM      7  C   UNL     1       1.813   4.892  19.832  0.00  0.00    +0.000 A 
ATOM      8  N   UNL     1       2.643   4.127  19.024  0.00  0.00    +0.000 N 
ATOM      9  N   UNL     1       3.544   4.599  18.106  0.00  0.00    +0.000 NA
ENDROOT
BRANCH   7  10
ATOM     10  C   UNL     1       1.683   6.357  19.816  0.00  0.00    +0.000 A 
ATOM     11  C   UNL     1       2.003   7.081  18.656  0.00  0.00    +0.000 A 
ATOM     12  C   UNL     1       1.928   8.476  18.635  0.00  0.00    +0.000 A 
ATOM     13  C   UNL     1       1.526   9.161  19.777  0.00  0.00    +0.000 A 
ATOM     14  F   UNL     1       1.465  10.500  19.739  0.00  0.00    +0.000 F 
ATOM     15  C   UNL     1       1.199   8.464  20.935  0.00  0.00    +0.000 A 
ATOM     16 CL   UNL     1       0.694   9.300  22.353  0.00  0.00    +0.000 Cl
ATOM     17  C   UNL     1       1.285   7.070  20.957  0.00  0.00    +0.000 A 
ENDBRANCH   7  10
BRANCH   1  20
ATOM     18  C   UNL     1       6.294   3.944  14.344  0.00  0.00    +0.000 A 
ATOM     19  C   UNL     1       5.422   3.448  15.329  0.00  0.00    +0.000 A 
ATOM     20  C   UNL     1       5.312   4.079  16.565  0.00  0.00    +0.000 A 
ATOM     21  C   UNL     1       6.135   5.164  16.843  0.00  0.00    +0.000 A 
ATOM     22  C   UNL     1       7.075   5.624  15.913  0.00  0.00    +0.000 A 
ATOM     23  C   UNL     1       7.170   5.013  14.642  0.00  0.00    +0.000 A 
BRANCH  18  25
ATOM     24  C   UNL     1       5.058   3.379  12.399  0.00  0.00    +0.000 C 
ATOM     25  O   UNL     1       6.309   3.370  13.097  0.00  0.00    +0.000 OA
ENDBRANCH  18  25
BRANCH  22  26
ATOM     26  O   UNL     1       7.782   6.685  16.418  0.00  0.00    +0.000 OA
ATOM     27  C   UNL     1       7.393   7.275  17.647  0.00  0.00    +0.000 C 
ENDBRANCH  22  26
BRANCH  23  28
ATOM     28  O   UNL     1       8.126   5.530  13.807  0.00  0.00    +0.000 OA
ATOM     29  C   UNL     1       7.898   5.648  12.415  0.00  0.00    +0.000 C 
ENDBRANCH  23  28
ENDBRANCH   1  20
TORSDOF 5
ENDMDL
MODEL 6
REMARK VINA RESULT:      -8.0      0.185      2.296
REMARK  Name = 
REMARK  8 active torsions:
REMARK  status: ('A' for Active; 'I' for Inactive)
REMARK    1  A    between atoms: C_1  and  O_2
REMARK    2  A    between atoms: O_2  and  C_3
REMARK    3  A    between atoms: C_5  and  C_6
REMARK    4  A    between atoms: C_12  and  C_13
REMARK    5  A    between atoms: C_24  and  O_25
REMARK    6  A    between atoms: O_25  and  C_26
REMARK    7  A    between atoms: C_27  and  O_28
REMARK    8  A    between atoms: O_28  and  C_29
REMARK                            x       y       z     vdW  Elec       q    Type
REMARK                         _______ _______ _______ _____ _____    ______ ____
ROOT
ATOM      1  C   UNL     1       1.988   5.821  19.936  0.00  0.00    +0.000 A 
ATOM      2  C   UNL     1       1.236   4.863  20.799  0.00  0.00    +0.000 A 
ATOM      3  C   UNL     1       1.450   3.557  20.606  0.00  0.00    +0.000 A 
ATOM      4  C   UNL     1       2.390   3.140  19.640  0.00  0.00    +0.000 A 
ATOM      5  N   UNL     1       2.745   1.935  19.259  0.00  0.00    +0.000 NA
ATOM      6  C   UNL     1       3.714   2.139  18.313  0.00  0.00    +0.000 A 
ATOM      7  C   UNL     1       3.977   3.486  18.108  0.00  0.00    +0.000 A 
ATOM      8  N   UNL     1       3.090   4.126  18.962  0.00  0.00    +0.000 N 
ATOM      9  N   UNL     1       2.906   5.479  19.078  0.00  0.00    +0.000 NA
ENDROOT
BRANCH   7  10
ATOM     10  C   UNL     1       4.946   4.129  17.208  0.00  0.00    +0.000 A 
ATOM     11  C   UNL     1       5.117   3.650  15.899  0.00  0.00    +0.000 A 
ATOM     12  C   UNL     1       6.064   4.221  15.043  0.00  0.00    +0.000 A 
ATOM     13  C   UNL     1       6.846   5.280  15.490  0.00  0.00    +0.000 A 
ATOM     14  F   UNL     1       7.753   5.810  14.656  0.00  0.00    +0.000 F 
ATOM     15  C   UNL     1       6.689   5.773  16.780  0.00  0.00    +0.000 A 
ATOM     16 CL   UNL     1       7.647   7.089  17.342  0.00  0.00    +0.000 Cl
ATOM     17  C   UNL     1       5.750   5.196  17.638  0.00  0.00    +0.000 A 
ENDBRANCH   7  10
BRANCH   1  20
ATOM     18  C   UNL     1       1.165   9.171  21.489  0.00  0.00    +0.000 A 
ATOM     19  C   UNL     1       1.303   7.784  21.301  0.00  0.00    +0.000 A 
ATOM     20  C   UNL     1       1.627   7.263  20.052  0.00  0.00    +0.000 A 
ATOM     21  C   UNL     1       1.736   8.129  18.970  0.00  0.00    +0.000 A 
ATOM     22  C   UNL     1       1.516   9.504  19.110  0.00  0.00    +0.000 A 
ATOM     23  C   UNL     1       1.221  10.048  20.381  0.00  0.00    +0.000 A 
BRANCH  18  25
ATOM     24  C   UNL     1      -0.421   9.725  23.164  0.00  0.00    +0.000 C 
ATOM     25  O   UNL     1       0.949   9.669  22.750  0.00  0.00    +0.000 OA
ENDBRANCH  18  25
BRANCH  22  26
ATOM     26  O   UNL     1       1.657  10.146  17.906  0.00  0.00    +0.000 OA
ATOM     27  C   UNL     1       2.536  11.253  17.792  0.00  0.00    +0.000 C 
ENDBRANCH  22  26
BRANCH  23  28
ATOM     28  O   UNL     1       1.014  11.402  20.413  0.00  0.00    +0.000 OA
ATOM     29  C   UNL     1      -0.270  11.954  20.192  0.00  0.00    +0.000 C 
ENDBRANCH  23  28
ENDBRANCH   1  20
TORSDOF 5
ENDMDL
MODEL 7
REMARK VINA RESULT:      -7.9      4.026      7.607
REMARK  Name = 
REMARK  8 active torsions:
REMARK  status: ('A' for Active; 'I' for Inactive)
REMARK    1  A    between atoms: C_1  and  O_2
REMARK    2  A    between atoms: O_2  and  C_3
REMARK    3  A    between atoms: C_5  and  C_6
REMARK    4  A    between atoms: C_12  and  C_13
REMARK    5  A    between atoms: C_24  and  O_25
REMARK    6  A    between atoms: O_25  and  C_26
REMARK    7  A    between atoms: C_27  and  O_28
REMARK    8  A    between atoms: O_28  and  C_29
REMARK                            x       y       z     vdW  Elec       q    Type
REMARK                         _______ _______ _______ _____ _____    ______ ____
ROOT
ATOM      1  C   UNL     1       4.059   3.904  17.423  0.00  0.00    +0.000 A 
ATOM      2  C   UNL     1       3.897   2.428  17.584  0.00  0.00    +0.000 A 
ATOM      3  C   UNL     1       3.093   1.998  18.563  0.00  0.00    +0.000 A 
ATOM      4  C   UNL     1       2.409   2.936  19.365  0.00  0.00    +0.000 A 
ATOM      5  N   UNL     1       1.601   2.758  20.385  0.00  0.00    +0.000 NA
ATOM      6  C   UNL     1       1.216   4.020  20.750  0.00  0.00    +0.000 A 
ATOM      7  C   UNL     1       1.779   4.998  19.943  0.00  0.00    +0.000 A 
ATOM      8  N   UNL     1       2.573   4.278  19.061  0.00  0.00    +0.000 N 
ATOM      9  N   UNL     1       3.400   4.798  18.101  0.00  0.00    +0.000 NA
ENDROOT
BRANCH   7  10
ATOM     10  C   UNL     1       1.613   6.459  19.980  0.00  0.00    +0.000 A 
ATOM     11  C   UNL     1       1.955   7.235  18.861  0.00  0.00    +0.000 A 
ATOM     12  C   UNL     1       1.845   8.628  18.891  0.00  0.00    +0.000 A 
ATOM     13  C   UNL     1       1.388   9.257  20.044  0.00  0.00    +0.000 A 
ATOM     14  F   UNL     1       1.294  10.595  20.056  0.00  0.00    +0.000 F 
ATOM     15  C   UNL     1       1.038   8.507  21.161  0.00  0.00    +0.000 A 
ATOM     16 CL   UNL     1       0.463   9.275  22.592  0.00  0.00    +0.000 Cl
ATOM     17  C   UNL     1       1.158   7.116  21.133  0.00  0.00    +0.000 A 
ENDBRANCH   7  10
BRANCH   1  20
ATOM     18  C   UNL     1       7.004   5.770  15.954  0.00  0.00    +0.000 A 
ATOM     19  C   UNL     1       5.902   5.438  16.762  0.00  0.00    +0.000 A 
ATOM     20  C   UNL     1       5.075   4.368  16.434  0.00  0.00    +0.000 A 
ATOM     21  C   UNL     1       5.308   3.675  15.252  0.00  0.00    +0.000 A 
ATOM     22  C   UNL     1       6.344   4.040  14.384  0.00  0.00    +0.000 A 
ATOM     23  C   UNL     1       7.211   5.103  14.724  0.00  0.00    +0.000 A 
BRANCH  18  25
ATOM     24  C   UNL     1       7.507   7.442  17.559  0.00  0.00    +0.000 C 
ATOM     25  O   UNL     1       7.866   6.762  16.351  0.00  0.00    +0.000 OA
ENDBRANCH  18  25
BRANCH  22  26
ATOM     26  O   UNL     1       6.362   3.229  13.278  0.00  0.00    +0.000 OA
ATOM     27  C   UNL     1       5.319   3.313  12.321  0.00  0.00    +0.000 C 
ENDBRANCH  22  26
BRANCH  23  28
ATOM     28  O   UNL     1       8.188   5.388  13.806  0.00  0.00    +0.000 OA
ATOM     29  C   UNL     1       7.863   5.827  12.501  0.00  0.00    +0.000 C 
ENDBRANCH  23  28
ENDBRANCH   1  20
TORSDOF 5
ENDMDL
MODEL 8
REMARK VINA RESULT:      -7.8      1.008      2.648
REMARK  Name = 
REMARK  8 active torsions:
REMARK  status: ('A' for Active; 'I' for Inactive)
REMARK    1  A    between atoms: C_1  and  O_2
REMARK    2  A    between atoms: O_2  and  C_3
REMARK    3  A    between atoms: C_5  and  C_6
REMARK    4  A    between atoms: C_12  and  C_13
REMARK    5  A    between atoms: C_24  and  O_25
REMARK    6  A    between atoms: O_25  and  C_26
REMARK    7  A    between atoms: C_27  and  O_28
REMARK    8  A    between atoms: O_28  and  C_29
REMARK                            x       y       z     vdW  Elec       q    Type
REMARK                         _______ _______ _______ _____ _____    ______ ____
ROOT
ATOM      1  C   UNL     1       1.985   5.735  19.948  0.00  0.00    +0.000 A 
ATOM      2  C   UNL     1       1.191   4.808  20.807  0.00  0.00    +0.000 A 
ATOM      3  C   UNL     1       1.384   3.494  20.644  0.00  0.00    +0.000 A 
ATOM      4  C   UNL     1       2.342   3.041  19.712  0.00  0.00    +0.000 A 
ATOM      5  N   UNL     1       2.683   1.823  19.363  0.00  0.00    +0.000 NA
ATOM      6  C   UNL     1       3.682   1.990  18.441  0.00  0.00    +0.000 A 
ATOM      7  C   UNL     1       3.977   3.328  18.219  0.00  0.00    +0.000 A 
ATOM      8  N   UNL     1       3.080   4.001  19.036  0.00  0.00    +0.000 N 
ATOM      9  N   UNL     1       2.920   5.359  19.123  0.00  0.00    +0.000 NA
ENDROOT
BRANCH   7  10
ATOM     10  C   UNL     1       4.984   3.935  17.335  0.00  0.00    +0.000 A 
ATOM     11  C   UNL     1       5.945   4.813  17.861  0.00  0.00    +0.000 A 
ATOM     12  C   UNL     1       6.882   5.434  17.031  0.00  0.00    +0.000 A 
ATOM     13  C   UNL     1       6.867   5.178  15.664  0.00  0.00    +0.000 A 
ATOM     14  F   UNL     1       7.771   5.787  14.882  0.00  0.00    +0.000 F 
ATOM     15  C   UNL     1       5.927   4.307  15.123  0.00  0.00    +0.000 A 
ATOM     16 CL   UNL     1       5.904   3.976  13.433  0.00  0.00    +0.000 Cl
ATOM     17  C   UNL     1       4.985   3.695  15.953  0.00  0.00    +0.000 A 
ENDBRANCH   7  10
BRANCH   1  20
ATOM     18  C   UNL     1       1.195   9.130  21.416  0.00  0.00    +0.000 A 
ATOM     19  C   UNL     1       1.311   7.738  21.259  0.00  0.00    +0.000 A 
ATOM     20  C   UNL     1       1.650   7.186  20.028  0.00  0.00    +0.000 A 
ATOM     21  C   UNL     1       1.799   8.027  18.931  0.00  0.00    +0.000 A 
ATOM     22  C   UNL     1       1.603   9.409  19.040  0.00  0.00    +0.000 A 
ATOM     23  C   UNL     1       1.292   9.984  20.293  0.00  0.00    +0.000 A 
BRANCH  18  25
ATOM     24  C   UNL     1      -0.406   9.664  23.084  0.00  0.00    +0.000 C 
ATOM     25  O   UNL     1       0.963   9.658  22.663  0.00  0.00    +0.000 OA
ENDBRANCH  18  25
BRANCH  22  26
ATOM     26  O   UNL     1       1.782  10.024  17.826  0.00  0.00    +0.000 OA
ATOM     27  C   UNL     1       2.560  11.205  17.739  0.00  0.00    +0.000 C 
ENDBRANCH  22  26
BRANCH  23  28
ATOM     28  O   UNL     1       1.111  11.342  20.293  0.00  0.00    +0.000 OA
ATOM     29  C   UNL     1      -0.175  11.911  20.134  0.00  0.00    +0.000 C 
ENDBRANCH  23  28
ENDBRANCH   1  20
TORSDOF 5
ENDMDL
MODEL 9
REMARK VINA RESULT:      -7.6      4.898      8.222
REMARK  Name = 
REMARK  8 active torsions:
REMARK  status: ('A' for Active; 'I' for Inactive)
REMARK    1  A    between atoms: C_1  and  O_2
REMARK    2  A    between atoms: O_2  and  C_3
REMARK    3  A    between atoms: C_5  and  C_6
REMARK    4  A    between atoms: C_12  and  C_13
REMARK    5  A    between atoms: C_24  and  O_25
REMARK    6  A    between atoms: O_25  and  C_26
REMARK    7  A    between atoms: C_27  and  O_28
REMARK    8  A    between atoms: O_28  and  C_29
REMARK                            x       y       z     vdW  Elec       q    Type
REMARK                         _______ _______ _______ _____ _____    ______ ____
ROOT
ATOM      1  C   UNL     1       1.069   8.431  20.622  0.00  0.00    +0.000 A 
ATOM      2  C   UNL     1       1.516   8.853  21.983  0.00  0.00    +0.000 A 
ATOM      3  C   UNL     1       1.029  10.002  22.465  0.00  0.00    +0.000 A 
ATOM      4  C   UNL     1       0.099  10.740  21.702  0.00  0.00    +0.000 A 
ATOM      5  N   UNL     1      -0.486  11.889  21.949  0.00  0.00    +0.000 NA
ATOM      6  C   UNL     1      -1.307  12.101  20.873  0.00  0.00    +0.000 A 
ATOM      7  C   UNL     1      -1.244  11.068  19.949  0.00  0.00    +0.000 A 
ATOM      8  N   UNL     1      -0.306  10.200  20.491  0.00  0.00    +0.000 N 
ATOM      9  N   UNL     1       0.168   9.050  19.915  0.00  0.00    +0.000 NA
ENDROOT
BRANCH   7  10
ATOM     10  C   UNL     1      -1.969  10.893  18.682  0.00  0.00    +0.000 A 
ATOM     11  C   UNL     1      -1.417  10.108  17.656  0.00  0.00    +0.000 A 
ATOM     12  C   UNL     1      -2.071   9.965  16.429  0.00  0.00    +0.000 A 
ATOM     13  C   UNL     1      -3.287  10.606  16.219  0.00  0.00    +0.000 A 
ATOM     14  F   UNL     1      -3.896  10.461  15.033  0.00  0.00    +0.000 F 
ATOM     15  C   UNL     1      -3.854  11.383  17.223  0.00  0.00    +0.000 A 
ATOM     16 CL   UNL     1      -5.364  12.175  16.976  0.00  0.00    +0.000 Cl
ATOM     17  C   UNL     1      -3.195  11.533  18.445  0.00  0.00    +0.000 A 
ENDBRANCH   7  10
BRANCH   1  20
ATOM     18  C   UNL     1       3.230   6.318  18.347  0.00  0.00    +0.000 A 
ATOM     19  C   UNL     1       2.418   7.360  18.827  0.00  0.00    +0.000 A 
ATOM     20  C   UNL     1       1.734   7.233  20.033  0.00  0.00    +0.000 A 
ATOM     21  C   UNL     1       1.804   6.028  20.723  0.00  0.00    +0.000 A 
ATOM     22  C   UNL     1       2.534   4.943  20.223  0.00  0.00    +0.000 A 
ATOM     23  C   UNL     1       3.260   5.073  19.017  0.00  0.00    +0.000 A 
BRANCH  18  25
ATOM     24  C   UNL     1       5.366   6.777  17.422  0.00  0.00    +0.000 C 
ATOM     25  O   UNL     1       3.976   6.505  17.210  0.00  0.00    +0.000 OA
ENDBRANCH  18  25
BRANCH  22  26
ATOM     26  O   UNL     1       2.436   3.862  21.062  0.00  0.00    +0.000 OA
ATOM     27  C   UNL     1       1.396   2.916  20.879  0.00  0.00    +0.000 C 
ENDBRANCH  22  26
BRANCH  23  28
ATOM     28  O   UNL     1       3.935   3.953  18.608  0.00  0.00    +0.000 OA
ATOM     29  C   UNL     1       3.403   3.098  17.614  0.00  0.00    +0.000 C 
ENDBRANCH  23  28
ENDBRANCH   1  20
TORSDOF 5
ENDMDL
