MODEL 1
REMARK VINA RESULT:      -6.3      0.000      0.000
REMARK  Name = 
REMARK  10 active torsions:
REMARK  status: ('A' for Active; 'I' for Inactive)
REMARK    1  A    between atoms: C_1  and  O_2
REMARK    2  A    between atoms: O_2  and  C_3
REMARK    3  A    between atoms: C_3  and  C_4
REMARK    4  A    between atoms: C_4  and  N_5
REMARK    5  A    between atoms: N_8  and  C_9
REMARK    6  A    between atoms: C_9  and  C_10
REMARK    7  A    between atoms: C_12  and  C_13
REMARK    8  A    between atoms: C_13  and  C_14
REMARK    9  A    between atoms: C_13  and  C_15
REMARK   10  A    between atoms: C_13  and  C_16
REMARK                            x       y       z     vdW  Elec       q    Type
REMARK                         _______ _______ _______ _____ _____    ______ ____
ROOT
ATOM      1  C   UNL     1       6.580   4.348  17.229  0.00  0.00    +0.000 C 
ENDROOT
BRANCH   1   5
ATOM      2  N   UNL     1       3.214   4.183  18.744  0.00  0.00    +0.000 NA
ATOM      3  C   UNL     1       3.507   4.531  17.337  0.00  0.00    +0.000 C 
ATOM      4  C   UNL     1       4.554   5.658  17.142  0.00  0.00    +0.000 C 
ATOM      5  N   UNL     1       5.826   5.446  17.872  0.00  0.00    +0.000 NA
ATOM      6  C   UNL     1       5.501   5.145  19.284  0.00  0.00    +0.000 C 
ATOM      7  C   UNL     1       4.495   3.983  19.467  0.00  0.00    +0.000 C 
BRANCH   2   8
ATOM      8  C   UNL     1       2.404   5.199  19.440  0.00  0.00    +0.000 C 
BRANCH   8   9
ATOM      9  C   UNL     1       2.089   4.860  20.901  0.00  0.00    +0.000 C 
BRANCH   9  11
ATOM     10  C   UNL     1       1.591   2.673  21.596  0.00  0.00    +0.000 C 
ATOM     11  O   UNL     1       1.096   3.828  20.931  0.00  0.00    +0.000 OA
ENDBRANCH   9  11
ENDBRANCH   8   9
ENDBRANCH   2   8
ENDBRANCH   1   5
BRANCH   1  12
ATOM     12  C   UNL     1       6.725   4.539  15.751  0.00  0.00    +0.000 A 
ATOM     13  C   UNL     1       6.042   3.851  14.724  0.00  0.00    +0.000 A 
ATOM     14  C   UNL     1       6.645   4.251  13.545  0.00  0.00    +0.000 A 
ATOM     15  N   UNL     1       7.525   5.232  13.921  0.00  0.00    +0.000 N 
ATOM     16  N   UNL     1       7.612   5.411  15.250  0.00  0.00    +0.000 NA
ATOM     17  H   UNL     1       8.125   5.796  13.329  0.00  0.00    +0.000 HD
BRANCH  14  18
ATOM     18  C   UNL     1       6.461   3.775  12.126  0.00  0.00    +0.000 C 
ATOM     19  C   UNL     1       4.968   3.557  11.839  0.00  0.00    +0.000 C 
ATOM     20  C   UNL     1       7.037   4.795  11.123  0.00  0.00    +0.000 C 
ATOM     21  C   UNL     1       7.213   2.441  11.918  0.00  0.00    +0.000 C 
ENDBRANCH  14  18
ENDBRANCH   1  12
TORSDOF 6
ENDMDL
MODEL 2
REMARK VINA RESULT:      -6.3      0.370      1.015
REMARK  Name = 
REMARK  10 active torsions:
REMARK  status: ('A' for Active; 'I' for Inactive)
REMARK    1  A    between atoms: C_1  and  O_2
REMARK    2  A    between atoms: O_2  and  C_3
REMARK    3  A    between atoms: C_3  and  C_4
REMARK    4  A    between atoms: C_4  and  N_5
REMARK    5  A    between atoms: N_8  and  C_9
REMARK    6  A    between atoms: C_9  and  C_10
REMARK    7  A    between atoms: C_12  and  C_13
REMARK    8  A    between atoms: C_13  and  C_14
REMARK    9  A    between atoms: C_13  and  C_15
REMARK   10  A    between atoms: C_13  and  C_16
REMARK                            x       y       z     vdW  Elec       q    Type
REMARK                         _______ _______ _______ _____ _____    ______ ____
ROOT
ATOM      1  C   UNL     1       6.655   4.349  17.146  0.00  0.00    +0.000 C 
ENDROOT
BRANCH   1   5
ATOM      2  N   UNL     1       3.441   4.248  18.966  0.00  0.00    +0.000 NA
ATOM      3  C   UNL     1       3.604   4.538  17.525  0.00  0.00    +0.000 C 
ATOM      4  C   UNL     1       4.626   5.655  17.190  0.00  0.00    +0.000 C 
ATOM      5  N   UNL     1       5.959   5.473  17.809  0.00  0.00    +0.000 NA
ATOM      6  C   UNL     1       5.765   5.230  19.256  0.00  0.00    +0.000 C 
ATOM      7  C   UNL     1       4.784   4.078  19.578  0.00  0.00    +0.000 C 
BRANCH   2   8
ATOM      8  C   UNL     1       2.695   5.293  19.691  0.00  0.00    +0.000 C 
BRANCH   8   9
ATOM      9  C   UNL     1       1.537   4.763  20.543  0.00  0.00    +0.000 C 
BRANCH   9  11
ATOM     10  C   UNL     1       1.558   2.656  21.580  0.00  0.00    +0.000 C 
ATOM     11  O   UNL     1       2.074   3.979  21.615  0.00  0.00    +0.000 OA
ENDBRANCH   9  11
ENDBRANCH   8   9
ENDBRANCH   2   8
ENDBRANCH   1   5
BRANCH   1  12
ATOM     12  C   UNL     1       6.723   4.512  15.659  0.00  0.00    +0.000 A 
ATOM     13  C   UNL     1       6.013   3.782  14.681  0.00  0.00    +0.000 A 
ATOM     14  C   UNL     1       6.546   4.174  13.467  0.00  0.00    +0.000 A 
ATOM     15  N   UNL     1       7.413   5.188  13.779  0.00  0.00    +0.000 N 
ATOM     16  N   UNL     1       7.558   5.398  15.098  0.00  0.00    +0.000 NA
ATOM     17  H   UNL     1       7.966   5.756  13.147  0.00  0.00    +0.000 HD
BRANCH  14  18
ATOM     18  C   UNL     1       6.308   3.662  12.068  0.00  0.00    +0.000 C 
ATOM     19  C   UNL     1       6.941   2.272  11.907  0.00  0.00    +0.000 C 
ATOM     20  C   UNL     1       4.799   3.582  11.759  0.00  0.00    +0.000 C 
ATOM     21  C   UNL     1       6.944   4.626  11.042  0.00  0.00    +0.000 C 
ENDBRANCH  14  18
ENDBRANCH   1  12
TORSDOF 6
ENDMDL
MODEL 3
REMARK VINA RESULT:      -6.0      0.720      1.690
REMARK  Name = 
REMARK  10 active torsions:
REMARK  status: ('A' for Active; 'I' for Inactive)
REMARK    1  A    between atoms: C_1  and  O_2
REMARK    2  A    between atoms: O_2  and  C_3
REMARK    3  A    between atoms: C_3  and  C_4
REMARK    4  A    between atoms: C_4  and  N_5
REMARK    5  A    between atoms: N_8  and  C_9
REMARK    6  A    between atoms: C_9  and  C_10
REMARK    7  A    between atoms: C_12  and  C_13
REMARK    8  A    between atoms: C_13  and  C_14
REMARK    9  A    between atoms: C_13  and  C_15
REMARK   10  A    between atoms: C_13  and  C_16
REMARK                            x       y       z     vdW  Elec       q    Type
REMARK                         _______ _______ _______ _____ _____    ______ ____
ROOT
ATOM      1  C   UNL     1       6.260   4.359  17.247  0.00  0.00    +0.000 C 
ENDROOT
BRANCH   1   5
ATOM      2  N   UNL     1       3.591   5.940  19.254  0.00  0.00    +0.000 NA
ATOM      3  C   UNL     1       4.614   5.005  19.769  0.00  0.00    +0.000 C 
ATOM      4  C   UNL     1       4.739   3.670  18.990  0.00  0.00    +0.000 C 
ATOM      5  N   UNL     1       4.909   3.828  17.527  0.00  0.00    +0.000 NA
ATOM      6  C   UNL     1       3.844   4.732  17.035  0.00  0.00    +0.000 C 
ATOM      7  C   UNL     1       3.764   6.082  17.786  0.00  0.00    +0.000 C 
BRANCH   2   8
ATOM      8  C   UNL     1       2.211   5.516  19.552  0.00  0.00    +0.000 C 
BRANCH   8   9
ATOM      9  C   UNL     1       2.029   4.894  20.941  0.00  0.00    +0.000 C 
BRANCH   9  11
ATOM     10  C   UNL     1       1.606   2.669  21.559  0.00  0.00    +0.000 C 
ATOM     11  O   UNL     1       1.119   3.793  20.838  0.00  0.00    +0.000 OA
ENDBRANCH   9  11
ENDBRANCH   8   9
ENDBRANCH   2   8
ENDBRANCH   1   5
BRANCH   1  12
ATOM     12  C   UNL     1       6.515   4.536  15.781  0.00  0.00    +0.000 A 
ATOM     13  C   UNL     1       5.876   3.874  14.711  0.00  0.00    +0.000 A 
ATOM     14  C   UNL     1       6.576   4.241  13.577  0.00  0.00    +0.000 A 
ATOM     15  N   UNL     1       7.470   5.184  14.010  0.00  0.00    +0.000 N 
ATOM     16  N   UNL     1       7.473   5.365  15.341  0.00  0.00    +0.000 NA
ATOM     17  H   UNL     1       8.134   5.718  13.461  0.00  0.00    +0.000 HD
BRANCH  14  18
ATOM     18  C   UNL     1       6.469   3.766  12.149  0.00  0.00    +0.000 C 
ATOM     19  C   UNL     1       7.091   4.807  11.206  0.00  0.00    +0.000 C 
ATOM     20  C   UNL     1       7.179   2.410  11.963  0.00  0.00    +0.000 C 
ATOM     21  C   UNL     1       4.984   3.570  11.771  0.00  0.00    +0.000 C 
ENDBRANCH  14  18
ENDBRANCH   1  12
TORSDOF 6
ENDMDL
MODEL 4
REMARK VINA RESULT:      -6.0      4.562      6.224
REMARK  Name = 
REMARK  10 active torsions:
REMARK  status: ('A' for Active; 'I' for Inactive)
REMARK    1  A    between atoms: C_1  and  O_2
REMARK    2  A    between atoms: O_2  and  C_3
REMARK    3  A    between atoms: C_3  and  C_4
REMARK    4  A    between atoms: C_4  and  N_5
REMARK    5  A    between atoms: N_8  and  C_9
REMARK    6  A    between atoms: C_9  and  C_10
REMARK    7  A    between atoms: C_12  and  C_13
REMARK    8  A    between atoms: C_13  and  C_14
REMARK    9  A    between atoms: C_13  and  C_15
REMARK   10  A    between atoms: C_13  and  C_16
REMARK                            x       y       z     vdW  Elec       q    Type
REMARK                         _______ _______ _______ _____ _____    ______ ____
ROOT
ATOM      1  C   UNL     1       7.293   7.007  17.030  0.00  0.00    +0.000 C 
ENDROOT
BRANCH   1   5
ATOM      2  N   UNL     1       5.209   3.974  16.696  0.00  0.00    +0.000 NA
ATOM      3  C   UNL     1       5.410   4.998  15.649  0.00  0.00    +0.000 C 
ATOM      4  C   UNL     1       5.136   6.458  16.095  0.00  0.00    +0.000 C 
ATOM      5  N   UNL     1       5.851   6.867  17.326  0.00  0.00    +0.000 NA
ATOM      6  C   UNL     1       5.594   5.846  18.367  0.00  0.00    +0.000 C 
ATOM      7  C   UNL     1       5.921   4.399  17.928  0.00  0.00    +0.000 C 
BRANCH   2   8
ATOM      8  C   UNL     1       3.789   3.724  17.004  0.00  0.00    +0.000 C 
BRANCH   8   9
ATOM      9  C   UNL     1       3.548   2.539  17.944  0.00  0.00    +0.000 C 
BRANCH   9  11
ATOM     10  C   UNL     1       1.418   2.304  18.904  0.00  0.00    +0.000 C 
ATOM     11  O   UNL     1       2.212   2.060  17.751  0.00  0.00    +0.000 OA
ENDBRANCH   9  11
ENDBRANCH   8   9
ENDBRANCH   2   8
ENDBRANCH   1   5
BRANCH   1  12
ATOM     12  C   UNL     1       7.932   8.119  17.802  0.00  0.00    +0.000 A 
ATOM     13  C   UNL     1       7.980   9.488  17.459  0.00  0.00    +0.000 A 
ATOM     14  C   UNL     1       8.825  10.073  18.384  0.00  0.00    +0.000 A 
ATOM     15  N   UNL     1       9.103   9.075  19.280  0.00  0.00    +0.000 N 
ATOM     16  N   UNL     1       8.598   7.878  18.941  0.00  0.00    +0.000 NA
ATOM     17  H   UNL     1       9.661   9.129  20.125  0.00  0.00    +0.000 HD
BRANCH  14  18
ATOM     18  C   UNL     1       9.382  11.472  18.472  0.00  0.00    +0.000 C 
ATOM     19  C   UNL     1       9.404  11.933  19.936  0.00  0.00    +0.000 C 
ATOM     20  C   UNL     1      10.807  11.536  17.887  0.00  0.00    +0.000 C 
ATOM     21  C   UNL     1       8.499  12.441  17.654  0.00  0.00    +0.000 C 
ENDBRANCH  14  18
ENDBRANCH   1  12
TORSDOF 6
ENDMDL
MODEL 5
REMARK VINA RESULT:      -6.0      4.442      6.216
REMARK  Name = 
REMARK  10 active torsions:
REMARK  status: ('A' for Active; 'I' for Inactive)
REMARK    1  A    between atoms: C_1  and  O_2
REMARK    2  A    between atoms: O_2  and  C_3
REMARK    3  A    between atoms: C_3  and  C_4
REMARK    4  A    between atoms: C_4  and  N_5
REMARK    5  A    between atoms: N_8  and  C_9
REMARK    6  A    between atoms: C_9  and  C_10
REMARK    7  A    between atoms: C_12  and  C_13
REMARK    8  A    between atoms: C_13  and  C_14
REMARK    9  A    between atoms: C_13  and  C_15
REMARK   10  A    between atoms: C_13  and  C_16
REMARK                            x       y       z     vdW  Elec       q    Type
REMARK                         _______ _______ _______ _____ _____    ______ ____
ROOT
ATOM      1  C   UNL     1       7.181   6.987  17.059  0.00  0.00    +0.000 C 
ENDROOT
BRANCH   1   5
ATOM      2  N   UNL     1       4.615   4.379  16.542  0.00  0.00    +0.000 NA
ATOM      3  C   UNL     1       4.434   5.619  17.326  0.00  0.00    +0.000 C 
ATOM      4  C   UNL     1       5.514   5.877  18.408  0.00  0.00    +0.000 C 
ATOM      5  N   UNL     1       6.907   5.809  17.911  0.00  0.00    +0.000 NA
ATOM      6  C   UNL     1       7.070   4.538  17.171  0.00  0.00    +0.000 C 
ATOM      7  C   UNL     1       6.018   4.316  16.058  0.00  0.00    +0.000 C 
BRANCH   2   8
ATOM      8  C   UNL     1       4.296   3.156  17.301  0.00  0.00    +0.000 C 
BRANCH   8   9
ATOM      9  C   UNL     1       2.883   3.132  17.891  0.00  0.00    +0.000 C 
BRANCH   9  11
ATOM     10  C   UNL     1       4.180   2.532  19.754  0.00  0.00    +0.000 C 
ATOM     11  O   UNL     1       2.910   2.410  19.128  0.00  0.00    +0.000 OA
ENDBRANCH   9  11
ENDBRANCH   8   9
ENDBRANCH   2   8
ENDBRANCH   1   5
BRANCH   1  12
ATOM     12  C   UNL     1       7.860   8.092  17.808  0.00  0.00    +0.000 A 
ATOM     13  C   UNL     1       7.886   9.465  17.478  0.00  0.00    +0.000 A 
ATOM     14  C   UNL     1       8.780  10.041  18.362  0.00  0.00    +0.000 A 
ATOM     15  N   UNL     1       9.111   9.033  19.229  0.00  0.00    +0.000 N 
ATOM     16  N   UNL     1       8.589   7.838  18.904  0.00  0.00    +0.000 NA
ATOM     17  H   UNL     1       9.715   9.079  20.042  0.00  0.00    +0.000 HD
BRANCH  14  18
ATOM     18  C   UNL     1       9.338  11.440  18.435  0.00  0.00    +0.000 C 
ATOM     19  C   UNL     1      10.771  11.460  17.883  0.00  0.00    +0.000 C 
ATOM     20  C   UNL     1       8.462  12.427  17.635  0.00  0.00    +0.000 C 
ATOM     21  C   UNL     1       9.358  11.921  19.903  0.00  0.00    +0.000 C 
ENDBRANCH  14  18
ENDBRANCH   1  12
TORSDOF 6
ENDMDL
MODEL 6
REMARK VINA RESULT:      -6.0      4.501      6.218
REMARK  Name = 
REMARK  10 active torsions:
REMARK  status: ('A' for Active; 'I' for Inactive)
REMARK    1  A    between atoms: C_1  and  O_2
REMARK    2  A    between atoms: O_2  and  C_3
REMARK    3  A    between atoms: C_3  and  C_4
REMARK    4  A    between atoms: C_4  and  N_5
REMARK    5  A    between atoms: N_8  and  C_9
REMARK    6  A    between atoms: C_9  and  C_10
REMARK    7  A    between atoms: C_12  and  C_13
REMARK    8  A    between atoms: C_13  and  C_14
REMARK    9  A    between atoms: C_13  and  C_15
REMARK   10  A    between atoms: C_13  and  C_16
REMARK                            x       y       z     vdW  Elec       q    Type
REMARK                         _______ _______ _______ _____ _____    ______ ____
ROOT
ATOM      1  C   UNL     1       7.202   6.995  17.038  0.00  0.00    +0.000 C 
ENDROOT
BRANCH   1   5
ATOM      2  N   UNL     1       4.624   4.437  16.359  0.00  0.00    +0.000 NA
ATOM      3  C   UNL     1       4.393   5.731  17.036  0.00  0.00    +0.000 C 
ATOM      4  C   UNL     1       5.338   6.027  18.229  0.00  0.00    +0.000 C 
ATOM      5  N   UNL     1       6.780   5.885  17.919  0.00  0.00    +0.000 NA
ATOM      6  C   UNL     1       6.985   4.563  17.285  0.00  0.00    +0.000 C 
ATOM      7  C   UNL     1       6.073   4.301  16.063  0.00  0.00    +0.000 C 
BRANCH   2   8
ATOM      8  C   UNL     1       4.167   3.277  17.145  0.00  0.00    +0.000 C 
BRANCH   8   9
ATOM      9  C   UNL     1       2.700   3.351  17.582  0.00  0.00    +0.000 C 
BRANCH   9  11
ATOM     10  C   UNL     1       1.052   2.202  18.799  0.00  0.00    +0.000 C 
ATOM     11  O   UNL     1       2.340   2.112  18.204  0.00  0.00    +0.000 OA
ENDBRANCH   9  11
ENDBRANCH   8   9
ENDBRANCH   2   8
ENDBRANCH   1   5
BRANCH   1  12
ATOM     12  C   UNL     1       7.877   8.101  17.791  0.00  0.00    +0.000 A 
ATOM     13  C   UNL     1       7.900   9.474  17.464  0.00  0.00    +0.000 A 
ATOM     14  C   UNL     1       8.790  10.051  18.350  0.00  0.00    +0.000 A 
ATOM     15  N   UNL     1       9.121   9.042  19.217  0.00  0.00    +0.000 N 
ATOM     16  N   UNL     1       8.603   7.847  18.889  0.00  0.00    +0.000 NA
ATOM     17  H   UNL     1       9.722   9.087  20.032  0.00  0.00    +0.000 HD
BRANCH  14  18
ATOM     18  C   UNL     1       9.345  11.451  18.428  0.00  0.00    +0.000 C 
ATOM     19  C   UNL     1       9.410  11.906  19.893  0.00  0.00    +0.000 C 
ATOM     20  C   UNL     1      10.753  11.522  17.802  0.00  0.00    +0.000 C 
ATOM     21  C   UNL     1       8.436  12.420  17.640  0.00  0.00    +0.000 C 
ENDBRANCH  14  18
ENDBRANCH   1  12
TORSDOF 6
ENDMDL
MODEL 7
REMARK VINA RESULT:      -5.9      2.808      7.233
REMARK  Name = 
REMARK  10 active torsions:
REMARK  status: ('A' for Active; 'I' for Inactive)
REMARK    1  A    between atoms: C_1  and  O_2
REMARK    2  A    between atoms: O_2  and  C_3
REMARK    3  A    between atoms: C_3  and  C_4
REMARK    4  A    between atoms: C_4  and  N_5
REMARK    5  A    between atoms: N_8  and  C_9
REMARK    6  A    between atoms: C_9  and  C_10
REMARK    7  A    between atoms: C_12  and  C_13
REMARK    8  A    between atoms: C_13  and  C_14
REMARK    9  A    between atoms: C_13  and  C_15
REMARK   10  A    between atoms: C_13  and  C_16
REMARK                            x       y       z     vdW  Elec       q    Type
REMARK                         _______ _______ _______ _____ _____    ______ ____
ROOT
ATOM      1  C   UNL     1       6.027   5.283  18.902  0.00  0.00    +0.000 C 
ENDROOT
BRANCH   1   5
ATOM      2  N   UNL     1       6.423   3.969  15.471  0.00  0.00    +0.000 NA
ATOM      3  C   UNL     1       7.476   4.644  16.260  0.00  0.00    +0.000 C 
ATOM      4  C   UNL     1       7.074   6.018  16.854  0.00  0.00    +0.000 C 
ATOM      5  N   UNL     1       5.811   6.005  17.629  0.00  0.00    +0.000 NA
ATOM      6  C   UNL     1       4.767   5.365  16.797  0.00  0.00    +0.000 C 
ATOM      7  C   UNL     1       5.160   3.971  16.253  0.00  0.00    +0.000 C 
BRANCH   2   8
ATOM      8  C   UNL     1       6.192   4.589  14.154  0.00  0.00    +0.000 C 
BRANCH   8   9
ATOM      9  C   UNL     1       6.324   3.623  12.972  0.00  0.00    +0.000 C 
BRANCH   9  11
ATOM     10  C   UNL     1       7.891   5.309  12.505  0.00  0.00    +0.000 C 
ATOM     11  O   UNL     1       7.131   4.238  11.961  0.00  0.00    +0.000 OA
ENDBRANCH   9  11
ENDBRANCH   8   9
ENDBRANCH   2   8
ENDBRANCH   1   5
BRANCH   1  12
ATOM     12  C   UNL     1       4.892   4.366  19.241  0.00  0.00    +0.000 A 
ATOM     13  C   UNL     1       3.524   4.696  19.353  0.00  0.00    +0.000 A 
ATOM     14  C   UNL     1       2.909   3.564  19.855  0.00  0.00    +0.000 A 
ATOM     15  N   UNL     1       3.895   2.613  19.874  0.00  0.00    +0.000 N 
ATOM     16  N   UNL     1       5.109   3.075  19.531  0.00  0.00    +0.000 NA
ATOM     17  H   UNL     1       3.820   1.638  20.143  0.00  0.00    +0.000 HD
BRANCH  14  18
ATOM     18  C   UNL     1       1.493   3.328  20.318  0.00  0.00    +0.000 C 
ATOM     19  C   UNL     1       1.501   2.583  21.661  0.00  0.00    +0.000 C 
ATOM     20  C   UNL     1       0.732   4.660  20.470  0.00  0.00    +0.000 C 
ATOM     21  C   UNL     1       0.736   2.476  19.275  0.00  0.00    +0.000 C 
ENDBRANCH  14  18
ENDBRANCH   1  12
TORSDOF 6
ENDMDL
MODEL 8
REMARK VINA RESULT:      -5.9      2.709      7.184
REMARK  Name = 
REMARK  10 active torsions:
REMARK  status: ('A' for Active; 'I' for Inactive)
REMARK    1  A    between atoms: C_1  and  O_2
REMARK    2  A    between atoms: O_2  and  C_3
REMARK    3  A    between atoms: C_3  and  C_4
REMARK    4  A    between atoms: C_4  and  N_5
REMARK    5  A    between atoms: N_8  and  C_9
REMARK    6  A    between atoms: C_9  and  C_10
REMARK    7  A    between atoms: C_12  and  C_13
REMARK    8  A    between atoms: C_13  and  C_14
REMARK    9  A    between atoms: C_13  and  C_15
REMARK   10  A    between atoms: C_13  and  C_16
REMARK                            x       y       z     vdW  Elec       q    Type
REMARK                         _______ _______ _______ _____ _____    ______ ____
ROOT
ATOM      1  C   UNL     1       6.097   5.331  18.666  0.00  0.00    +0.000 C 
ENDROOT
BRANCH   1   5
ATOM      2  N   UNL     1       6.495   3.951  15.262  0.00  0.00    +0.000 NA
ATOM      3  C   UNL     1       7.562   4.595  16.058  0.00  0.00    +0.000 C 
ATOM      4  C   UNL     1       7.206   5.993  16.627  0.00  0.00    +0.000 C 
ATOM      5  N   UNL     1       5.932   6.042  17.380  0.00  0.00    +0.000 NA
ATOM      6  C   UNL     1       4.876   5.432  16.540  0.00  0.00    +0.000 C 
ATOM      7  C   UNL     1       5.221   4.015  16.022  0.00  0.00    +0.000 C 
BRANCH   2   8
ATOM      8  C   UNL     1       6.311   4.561  13.932  0.00  0.00    +0.000 C 
BRANCH   8   9
ATOM      9  C   UNL     1       5.500   3.704  12.954  0.00  0.00    +0.000 C 
BRANCH   9  11
ATOM     10  C   UNL     1       5.763   1.922  11.447  0.00  0.00    +0.000 C 
ATOM     11  O   UNL     1       6.406   3.021  12.079  0.00  0.00    +0.000 OA
ENDBRANCH   9  11
ENDBRANCH   8   9
ENDBRANCH   2   8
ENDBRANCH   1   5
BRANCH   1  12
ATOM     12  C   UNL     1       4.787   5.008  19.317  0.00  0.00    +0.000 A 
ATOM     13  C   UNL     1       4.231   3.730  19.542  0.00  0.00    +0.000 A 
ATOM     14  C   UNL     1       2.947   3.961  20.001  0.00  0.00    +0.000 A 
ATOM     15  N   UNL     1       2.872   5.321  20.154  0.00  0.00    +0.000 N 
ATOM     16  N   UNL     1       3.960   5.981  19.726  0.00  0.00    +0.000 NA
ATOM     17  H   UNL     1       2.097   5.869  20.510  0.00  0.00    +0.000 HD
BRANCH  14  18
ATOM     18  C   UNL     1       1.811   3.011  20.287  0.00  0.00    +0.000 C 
ATOM     19  C   UNL     1       1.901   1.794  19.355  0.00  0.00    +0.000 C 
ATOM     20  C   UNL     1       1.841   2.541  21.756  0.00  0.00    +0.000 C 
ATOM     21  C   UNL     1       0.460   3.724  20.054  0.00  0.00    +0.000 C 
ENDBRANCH  14  18
ENDBRANCH   1  12
TORSDOF 6
ENDMDL
MODEL 9
REMARK VINA RESULT:      -5.8      2.789      7.221
REMARK  Name = 
REMARK  10 active torsions:
REMARK  status: ('A' for Active; 'I' for Inactive)
REMARK    1  A    between atoms: C_1  and  O_2
REMARK    2  A    between atoms: O_2  and  C_3
REMARK    3  A    between atoms: C_3  and  C_4
REMARK    4  A    between atoms: C_4  and  N_5
REMARK    5  A    between atoms: N_8  and  C_9
REMARK    6  A    between atoms: C_9  and  C_10
REMARK    7  A    between atoms: C_12  and  C_13
REMARK    8  A    between atoms: C_13  and  C_14
REMARK    9  A    between atoms: C_13  and  C_15
REMARK   10  A    between atoms: C_13  and  C_16
REMARK                            x       y       z     vdW  Elec       q    Type
REMARK                         _______ _______ _______ _____ _____    ______ ____
ROOT
ATOM      1  C   UNL     1       6.000   5.367  18.901  0.00  0.00    +0.000 C 
ENDROOT
BRANCH   1   5
ATOM      2  N   UNL     1       6.611   4.144  15.468  0.00  0.00    +0.000 NA
ATOM      3  C   UNL     1       7.579   4.891  16.299  0.00  0.00    +0.000 C 
ATOM      4  C   UNL     1       7.046   6.218  16.898  0.00  0.00    +0.000 C 
ATOM      5  N   UNL     1       5.765   6.089  17.632  0.00  0.00    +0.000 NA
ATOM      6  C   UNL     1       4.805   5.378  16.758  0.00  0.00    +0.000 C 
ATOM      7  C   UNL     1       5.329   4.029  16.209  0.00  0.00    +0.000 C 
BRANCH   2   8
ATOM      8  C   UNL     1       6.371   4.763  14.152  0.00  0.00    +0.000 C 
BRANCH   8   9
ATOM      9  C   UNL     1       7.564   4.687  13.193  0.00  0.00    +0.000 C 
BRANCH   9  11
ATOM     10  C   UNL     1       6.259   3.121  12.026  0.00  0.00    +0.000 C 
ATOM     11  O   UNL     1       7.096   4.264  11.907  0.00  0.00    +0.000 OA
ENDBRANCH   9  11
ENDBRANCH   8   9
ENDBRANCH   2   8
ENDBRANCH   1   5
BRANCH   1  12
ATOM     12  C   UNL     1       4.881   4.434  19.247  0.00  0.00    +0.000 A 
ATOM     13  C   UNL     1       3.505   4.739  19.342  0.00  0.00    +0.000 A 
ATOM     14  C   UNL     1       2.909   3.604  19.859  0.00  0.00    +0.000 A 
ATOM     15  N   UNL     1       3.913   2.672  19.901  0.00  0.00    +0.000 N 
ATOM     16  N   UNL     1       5.120   3.153  19.560  0.00  0.00    +0.000 NA
ATOM     17  H   UNL     1       3.855   1.701  20.186  0.00  0.00    +0.000 HD
BRANCH  14  18
ATOM     18  C   UNL     1       1.494   3.347  20.315  0.00  0.00    +0.000 C 
ATOM     19  C   UNL     1       0.760   4.682  20.512  0.00  0.00    +0.000 C 
ATOM     20  C   UNL     1       0.732   2.484  19.289  0.00  0.00    +0.000 C 
ATOM     21  C   UNL     1       1.506   2.577  21.654  0.00  0.00    +0.000 C 
ENDBRANCH  14  18
ENDBRANCH   1  12
TORSDOF 6
ENDMDL
