MODEL 1
REMARK VINA RESULT:      -8.0      0.000      0.000
REMARK  Name = 
REMARK  4 active torsions:
REMARK  status: ('A' for Active; 'I' for Inactive)
REMARK    1  A    between atoms: N_3  and  C_4
REMARK    2  A    between atoms: C_7  and  O_8
REMARK    3  A    between atoms: O_8  and  C_9
REMARK    4  A    between atoms: C_13  and  C_15
REMARK                            x       y       z     vdW  Elec       q    Type
REMARK                         _______ _______ _______ _____ _____    ______ ____
ROOT
ATOM      1  C   UNL     1       1.019   9.202  19.994  0.00  0.00    +0.000 A 
ATOM      2  C   UNL     1       1.402   9.305  18.658  0.00  0.00    +0.000 A 
ATOM      3  C   UNL     1       2.083   8.259  18.021  0.00  0.00    +0.000 A 
ATOM      4  C   UNL     1       2.448   7.104  18.710  0.00  0.00    +0.000 A 
ATOM      5  C   UNL     1       2.113   7.012  20.063  0.00  0.00    +0.000 A 
ATOM      6  C   UNL     1       1.402   8.052  20.697  0.00  0.00    +0.000 A 
ENDROOT
BRANCH   1   9
ATOM      7  O   UNL     1       1.564  12.050  20.173  0.00  0.00    +0.000 OA
ATOM      8  C   UNL     1       0.611  11.524  20.754  0.00  0.00    +0.000 C 
ATOM      9  N   UNL     1       0.270  10.200  20.669  0.00  0.00    +0.000 N 
ATOM     10  N   UNL     1      -0.162  12.305  21.581  0.00  0.00    +0.000 N 
ATOM     11  C   UNL     1      -1.349  11.953  22.365  0.00  0.00    +0.000 C 
ATOM     12  C   UNL     1      -1.679  13.225  23.084  0.00  0.00    +0.000 A 
ATOM     13  C   UNL     1      -2.721  13.527  23.936  0.00  0.00    +0.000 A 
ATOM     14  C   UNL     1      -2.739  14.814  24.468  0.00  0.00    +0.000 A 
ATOM     15  N   UNL     1      -1.811  15.770  24.204  0.00  0.00    +0.000 NA
ATOM     16  C   UNL     1      -0.808  15.442  23.365  0.00  0.00    +0.000 A 
ATOM     17  C   UNL     1      -0.719  14.195  22.796  0.00  0.00    +0.000 A 
ATOM     18  C   UNL     1       0.311  13.658  21.873  0.00  0.00    +0.000 C 
ATOM     19  H   UNL     1      -0.642   9.930  21.008  0.00  0.00    +0.000 HD
ENDBRANCH   1   9
BRANCH   4  20
ATOM     20  O   UNL     1       3.100   6.173  17.948  0.00  0.00    +0.000 OA
BRANCH  20  21
ATOM     21  C   UNL     1       4.524   6.065  18.063  0.00  0.00    +0.000 C 
ATOM     22  C   UNL     1       5.210   7.128  17.200  0.00  0.00    +0.000 C 
ATOM     23  C   UNL     1       5.254   6.503  15.807  0.00  0.00    +0.000 C 
ATOM     24  N   UNL     1       5.388   5.081  16.050  0.00  0.00    +0.000 N 
ATOM     25  C   UNL     1       5.754   4.094  15.145  0.00  0.00    +0.000 C 
ATOM     26  O   UNL     1       5.900   2.929  15.536  0.00  0.00    +0.000 OA
ATOM     27  C   UNL     1       5.015   4.751  17.422  0.00  0.00    +0.000 C 
BRANCH  25  28
ATOM     28  C   UNL     1       5.950   4.518  13.652  0.00  0.00    +0.000 C 
ATOM     29  C   UNL     1       7.415   4.699  13.154  0.00  0.00    +0.000 C 
ATOM     30  C   UNL     1       7.074   3.899  11.892  0.00  0.00    +0.000 C 
ATOM     31  C   UNL     1       5.797   3.404  12.583  0.00  0.00    +0.000 C 
ENDBRANCH  25  28
ENDBRANCH  20  21
ENDBRANCH   4  20
TORSDOF 4
ENDMDL
MODEL 2
REMARK VINA RESULT:      -7.9      3.299     12.092
REMARK  Name = 
REMARK  4 active torsions:
REMARK  status: ('A' for Active; 'I' for Inactive)
REMARK    1  A    between atoms: N_3  and  C_4
REMARK    2  A    between atoms: C_7  and  O_8
REMARK    3  A    between atoms: O_8  and  C_9
REMARK    4  A    between atoms: C_13  and  C_15
REMARK                            x       y       z     vdW  Elec       q    Type
REMARK                         _______ _______ _______ _____ _____    ______ ____
ROOT
ATOM      1  C   UNL     1       0.893   9.161  21.143  0.00  0.00    +0.000 A 
ATOM      2  C   UNL     1       1.086  10.310  20.379  0.00  0.00    +0.000 A 
ATOM      3  C   UNL     1       0.543  11.539  20.776  0.00  0.00    +0.000 A 
ATOM      4  C   UNL     1      -0.253  11.647  21.915  0.00  0.00    +0.000 A 
ATOM      5  C   UNL     1      -0.494  10.491  22.660  0.00  0.00    +0.000 A 
ATOM      6  C   UNL     1       0.076   9.259  22.276  0.00  0.00    +0.000 A 
ENDROOT
BRANCH   1   9
ATOM      7  O   UNL     1       2.014   8.286  18.608  0.00  0.00    +0.000 OA
ATOM      8  C   UNL     1       1.942   7.541  19.589  0.00  0.00    +0.000 C 
ATOM      9  N   UNL     1       1.474   7.907  20.824  0.00  0.00    +0.000 N 
ATOM     10  N   UNL     1       2.330   6.230  19.444  0.00  0.00    +0.000 N 
ATOM     11  C   UNL     1       2.370   5.147  20.431  0.00  0.00    +0.000 C 
ATOM     12  C   UNL     1       2.827   3.966  19.630  0.00  0.00    +0.000 A 
ATOM     13  C   UNL     1       3.097   2.672  20.022  0.00  0.00    +0.000 A 
ATOM     14  C   UNL     1       3.490   1.787  19.020  0.00  0.00    +0.000 A 
ATOM     15  N   UNL     1       3.621   2.116  17.709  0.00  0.00    +0.000 NA
ATOM     16  C   UNL     1       3.352   3.391  17.362  0.00  0.00    +0.000 A 
ATOM     17  C   UNL     1       2.961   4.325  18.289  0.00  0.00    +0.000 A 
ATOM     18  C   UNL     1       2.612   5.753  18.090  0.00  0.00    +0.000 C 
ATOM     19  H   UNL     1       1.663   7.286  21.597  0.00  0.00    +0.000 HD
ENDBRANCH   1   9
BRANCH   4  20
ATOM     20  O   UNL     1      -0.701  12.914  22.174  0.00  0.00    +0.000 OA
BRANCH  20  21
ATOM     21  C   UNL     1      -1.569  13.543  21.223  0.00  0.00    +0.000 C 
ATOM     22  C   UNL     1      -1.953  14.947  21.699  0.00  0.00    +0.000 C 
ATOM     23  C   UNL     1      -3.127  14.709  22.647  0.00  0.00    +0.000 C 
ATOM     24  N   UNL     1      -3.803  13.549  22.103  0.00  0.00    +0.000 N 
ATOM     25  C   UNL     1      -5.075  13.085  22.409  0.00  0.00    +0.000 C 
ATOM     26  O   UNL     1      -5.539  12.117  21.791  0.00  0.00    +0.000 OA
ATOM     27  C   UNL     1      -2.933  12.823  21.183  0.00  0.00    +0.000 C 
BRANCH  25  28
ATOM     28  C   UNL     1      -5.860  13.819  23.546  0.00  0.00    +0.000 C 
ATOM     29  C   UNL     1      -6.976  14.814  23.108  0.00  0.00    +0.000 C 
ATOM     30  C   UNL     1      -7.916  14.203  24.154  0.00  0.00    +0.000 C 
ATOM     31  C   UNL     1      -6.964  13.006  24.271  0.00  0.00    +0.000 C 
ENDBRANCH  25  28
ENDBRANCH  20  21
ENDBRANCH   4  20
TORSDOF 4
ENDMDL
MODEL 3
REMARK VINA RESULT:      -7.9      0.580      1.058
REMARK  Name = 
REMARK  4 active torsions:
REMARK  status: ('A' for Active; 'I' for Inactive)
REMARK    1  A    between atoms: N_3  and  C_4
REMARK    2  A    between atoms: C_7  and  O_8
REMARK    3  A    between atoms: O_8  and  C_9
REMARK    4  A    between atoms: C_13  and  C_15
REMARK                            x       y       z     vdW  Elec       q    Type
REMARK                         _______ _______ _______ _____ _____    ______ ____
ROOT
ATOM      1  C   UNL     1       1.069   9.385  19.976  0.00  0.00    +0.000 A 
ATOM      2  C   UNL     1       1.509   8.236  20.629  0.00  0.00    +0.000 A 
ATOM      3  C   UNL     1       2.146   7.206  19.925  0.00  0.00    +0.000 A 
ATOM      4  C   UNL     1       2.315   7.268  18.543  0.00  0.00    +0.000 A 
ATOM      5  C   UNL     1       1.832   8.393  17.871  0.00  0.00    +0.000 A 
ATOM      6  C   UNL     1       1.216   9.443  18.584  0.00  0.00    +0.000 A 
ENDROOT
BRANCH   1   9
ATOM      7  O   UNL     1       1.746  12.203  19.760  0.00  0.00    +0.000 OA
ATOM      8  C   UNL     1       0.881  11.791  20.537  0.00  0.00    +0.000 C 
ATOM      9  N   UNL     1       0.479  10.486  20.649  0.00  0.00    +0.000 N 
ATOM     10  N   UNL     1       0.282  12.692  21.386  0.00  0.00    +0.000 N 
ATOM     11  C   UNL     1      -0.775  12.486  22.381  0.00  0.00    +0.000 C 
ATOM     12  C   UNL     1      -0.934  13.840  23.002  0.00  0.00    +0.000 A 
ATOM     13  C   UNL     1      -1.812  14.283  23.969  0.00  0.00    +0.000 A 
ATOM     14  C   UNL     1      -1.693  15.616  24.357  0.00  0.00    +0.000 A 
ATOM     15  N   UNL     1      -0.784  16.487  23.849  0.00  0.00    +0.000 NA
ATOM     16  C   UNL     1       0.057  16.022  22.902  0.00  0.00    +0.000 A 
ATOM     17  C   UNL     1       0.004  14.722  22.464  0.00  0.00    +0.000 A 
ATOM     18  C   UNL     1       0.849  14.039  21.454  0.00  0.00    +0.000 C 
ATOM     19  H   UNL     1      -0.376  10.303  21.154  0.00  0.00    +0.000 HD
ENDBRANCH   1   9
BRANCH   4  20
ATOM     20  O   UNL     1       2.962   6.190  18.004  0.00  0.00    +0.000 OA
BRANCH  20  21
ATOM     21  C   UNL     1       4.385   6.099  18.148  0.00  0.00    +0.000 C 
ATOM     22  C   UNL     1       5.075   7.170  17.299  0.00  0.00    +0.000 C 
ATOM     23  C   UNL     1       5.156   6.546  15.907  0.00  0.00    +0.000 C 
ATOM     24  N   UNL     1       5.303   5.126  16.154  0.00  0.00    +0.000 N 
ATOM     25  C   UNL     1       5.699   4.144  15.257  0.00  0.00    +0.000 C 
ATOM     26  O   UNL     1       5.852   2.981  15.651  0.00  0.00    +0.000 OA
ATOM     27  C   UNL     1       4.906   4.791  17.518  0.00  0.00    +0.000 C 
BRANCH  25  28
ATOM     28  C   UNL     1       5.921   4.570  13.768  0.00  0.00    +0.000 C 
ATOM     29  C   UNL     1       7.390   4.819  13.313  0.00  0.00    +0.000 C 
ATOM     30  C   UNL     1       7.126   3.997  12.046  0.00  0.00    +0.000 C 
ATOM     31  C   UNL     1       5.853   3.446  12.701  0.00  0.00    +0.000 C 
ENDBRANCH  25  28
ENDBRANCH  20  21
ENDBRANCH   4  20
TORSDOF 4
ENDMDL
MODEL 4
REMARK VINA RESULT:      -7.9      1.129      1.260
REMARK  Name = 
REMARK  4 active torsions:
REMARK  status: ('A' for Active; 'I' for Inactive)
REMARK    1  A    between atoms: N_3  and  C_4
REMARK    2  A    between atoms: C_7  and  O_8
REMARK    3  A    between atoms: O_8  and  C_9
REMARK    4  A    between atoms: C_13  and  C_15
REMARK                            x       y       z     vdW  Elec       q    Type
REMARK                         _______ _______ _______ _____ _____    ______ ____
ROOT
ATOM      1  C   UNL     1       1.083   9.040  20.137  0.00  0.00    +0.000 A 
ATOM      2  C   UNL     1       1.492   9.190  18.814  0.00  0.00    +0.000 A 
ATOM      3  C   UNL     1       2.166   8.158  18.146  0.00  0.00    +0.000 A 
ATOM      4  C   UNL     1       2.499   6.970  18.795  0.00  0.00    +0.000 A 
ATOM      5  C   UNL     1       2.138   6.830  20.136  0.00  0.00    +0.000 A 
ATOM      6  C   UNL     1       1.434   7.857  20.800  0.00  0.00    +0.000 A 
ENDROOT
BRANCH   1   9
ATOM      7  O   UNL     1      -1.248  10.522  19.235  0.00  0.00    +0.000 OA
ATOM      8  C   UNL     1      -0.725  10.722  20.335  0.00  0.00    +0.000 C 
ATOM      9  N   UNL     1       0.340  10.024  20.840  0.00  0.00    +0.000 N 
ATOM     10  N   UNL     1      -1.216  11.741  21.117  0.00  0.00    +0.000 N 
ATOM     11  C   UNL     1      -0.807  12.180  22.454  0.00  0.00    +0.000 C 
ATOM     12  C   UNL     1      -1.690  13.361  22.716  0.00  0.00    +0.000 A 
ATOM     13  C   UNL     1      -1.801  14.165  23.832  0.00  0.00    +0.000 A 
ATOM     14  C   UNL     1      -2.714  15.214  23.756  0.00  0.00    +0.000 A 
ATOM     15  N   UNL     1      -3.487  15.486  22.672  0.00  0.00    +0.000 NA
ATOM     16  C   UNL     1      -3.355  14.679  21.601  0.00  0.00    +0.000 A 
ATOM     17  C   UNL     1      -2.478  13.622  21.595  0.00  0.00    +0.000 A 
ATOM     18  C   UNL     1      -2.192  12.648  20.513  0.00  0.00    +0.000 C 
ATOM     19  H   UNL     1       0.541  10.126  21.824  0.00  0.00    +0.000 HD
ENDBRANCH   1   9
BRANCH   4  20
ATOM     20  O   UNL     1       3.148   6.060  18.006  0.00  0.00    +0.000 OA
BRANCH  20  21
ATOM     21  C   UNL     1       4.574   5.959  18.103  0.00  0.00    +0.000 C 
ATOM     22  C   UNL     1       5.243   7.043  17.253  0.00  0.00    +0.000 C 
ATOM     23  C   UNL     1       5.275   6.446  15.847  0.00  0.00    +0.000 C 
ATOM     24  N   UNL     1       5.421   5.021  16.061  0.00  0.00    +0.000 N 
ATOM     25  C   UNL     1       5.782   4.055  15.132  0.00  0.00    +0.000 C 
ATOM     26  O   UNL     1       5.942   2.883  15.498  0.00  0.00    +0.000 OA
ATOM     27  C   UNL     1       5.067   4.661  17.430  0.00  0.00    +0.000 C 
BRANCH  25  28
ATOM     28  C   UNL     1       5.958   4.508  13.645  0.00  0.00    +0.000 C 
ATOM     29  C   UNL     1       7.407   4.820  13.167  0.00  0.00    +0.000 C 
ATOM     30  C   UNL     1       7.151   4.006  11.893  0.00  0.00    +0.000 C 
ATOM     31  C   UNL     1       5.914   3.397  12.565  0.00  0.00    +0.000 C 
ENDBRANCH  25  28
ENDBRANCH  20  21
ENDBRANCH   4  20
TORSDOF 4
ENDMDL
MODEL 5
REMARK VINA RESULT:      -7.7      2.686     12.191
REMARK  Name = 
REMARK  4 active torsions:
REMARK  status: ('A' for Active; 'I' for Inactive)
REMARK    1  A    between atoms: N_3  and  C_4
REMARK    2  A    between atoms: C_7  and  O_8
REMARK    3  A    between atoms: O_8  and  C_9
REMARK    4  A    between atoms: C_13  and  C_15
REMARK                            x       y       z     vdW  Elec       q    Type
REMARK                         _______ _______ _______ _____ _____    ______ ____
ROOT
ATOM      1  C   UNL     1       1.229   9.064  20.228  0.00  0.00    +0.000 A 
ATOM      2  C   UNL     1       0.930  10.411  20.029  0.00  0.00    +0.000 A 
ATOM      3  C   UNL     1       0.260  11.153  21.011  0.00  0.00    +0.000 A 
ATOM      4  C   UNL     1      -0.179  10.562  22.194  0.00  0.00    +0.000 A 
ATOM      5  C   UNL     1       0.071   9.201  22.381  0.00  0.00    +0.000 A 
ATOM      6  C   UNL     1       0.770   8.460  21.405  0.00  0.00    +0.000 A 
ENDROOT
BRANCH   1   9
ATOM      7  O   UNL     1       1.899   6.241  20.377  0.00  0.00    +0.000 OA
ATOM      8  C   UNL     1       2.286   6.962  19.454  0.00  0.00    +0.000 C 
ATOM      9  N   UNL     1       1.962   8.284  19.297  0.00  0.00    +0.000 N 
ATOM     10  N   UNL     1       3.132   6.423  18.514  0.00  0.00    +0.000 N 
ATOM     11  C   UNL     1       3.719   7.033  17.318  0.00  0.00    +0.000 C 
ATOM     12  C   UNL     1       4.584   5.943  16.762  0.00  0.00    +0.000 A 
ATOM     13  C   UNL     1       5.353   5.908  15.617  0.00  0.00    +0.000 A 
ATOM     14  C   UNL     1       6.070   4.737  15.384  0.00  0.00    +0.000 A 
ATOM     15  N   UNL     1       6.058   3.651  16.198  0.00  0.00    +0.000 NA
ATOM     16  C   UNL     1       5.293   3.718  17.307  0.00  0.00    +0.000 A 
ATOM     17  C   UNL     1       4.554   4.835  17.608  0.00  0.00    +0.000 A 
ATOM     18  C   UNL     1       3.678   5.091  18.778  0.00  0.00    +0.000 C 
ATOM     19  H   UNL     1       2.154   8.709  18.402  0.00  0.00    +0.000 HD
ENDBRANCH   1   9
BRANCH   4  20
ATOM     20  O   UNL     1      -0.808  11.420  23.054  0.00  0.00    +0.000 OA
BRANCH  20  21
ATOM     21  C   UNL     1      -1.241  12.694  22.560  0.00  0.00    +0.000 C 
ATOM     22  C   UNL     1      -1.545  13.641  23.724  0.00  0.00    +0.000 C 
ATOM     23  C   UNL     1      -2.975  13.287  24.128  0.00  0.00    +0.000 C 
ATOM     24  N   UNL     1      -3.612  12.883  22.892  0.00  0.00    +0.000 N 
ATOM     25  C   UNL     1      -4.970  12.735  22.644  0.00  0.00    +0.000 C 
ATOM     26  O   UNL     1      -5.357  12.459  21.501  0.00  0.00    +0.000 OA
ATOM     27  C   UNL     1      -2.617  12.562  21.874  0.00  0.00    +0.000 C 
BRANCH  25  28
ATOM     28  C   UNL     1      -5.951  12.918  23.849  0.00  0.00    +0.000 C 
ATOM     29  C   UNL     1      -6.513  14.350  24.095  0.00  0.00    +0.000 C 
ATOM     30  C   UNL     1      -7.916  13.758  24.270  0.00  0.00    +0.000 C 
ATOM     31  C   UNL     1      -7.415  12.453  23.637  0.00  0.00    +0.000 C 
ENDBRANCH  25  28
ENDBRANCH  20  21
ENDBRANCH   4  20
TORSDOF 4
ENDMDL
MODEL 6
REMARK VINA RESULT:      -7.7      1.112      1.350
REMARK  Name = 
REMARK  4 active torsions:
REMARK  status: ('A' for Active; 'I' for Inactive)
REMARK    1  A    between atoms: N_3  and  C_4
REMARK    2  A    between atoms: C_7  and  O_8
REMARK    3  A    between atoms: O_8  and  C_9
REMARK    4  A    between atoms: C_13  and  C_15
REMARK                            x       y       z     vdW  Elec       q    Type
REMARK                         _______ _______ _______ _____ _____    ______ ____
ROOT
ATOM      1  C   UNL     1       1.052   9.399  19.614  0.00  0.00    +0.000 A 
ATOM      2  C   UNL     1       1.433   9.251  18.282  0.00  0.00    +0.000 A 
ATOM      3  C   UNL     1       2.095   8.095  17.846  0.00  0.00    +0.000 A 
ATOM      4  C   UNL     1       2.444   7.080  18.735  0.00  0.00    +0.000 A 
ATOM      5  C   UNL     1       2.112   7.242  20.081  0.00  0.00    +0.000 A 
ATOM      6  C   UNL     1       1.420   8.392  20.516  0.00  0.00    +0.000 A 
ENDROOT
BRANCH   1   9
ATOM      7  O   UNL     1       0.490  10.133  22.369  0.00  0.00    +0.000 OA
ATOM      8  C   UNL     1       0.051  10.778  21.413  0.00  0.00    +0.000 C 
ATOM      9  N   UNL     1       0.322  10.516  20.096  0.00  0.00    +0.000 N 
ATOM     10  N   UNL     1      -0.801  11.827  21.667  0.00  0.00    +0.000 N 
ATOM     11  C   UNL     1      -1.443  12.762  20.739  0.00  0.00    +0.000 C 
ATOM     12  C   UNL     1      -2.283  13.618  21.636  0.00  0.00    +0.000 A 
ATOM     13  C   UNL     1      -3.081  14.704  21.345  0.00  0.00    +0.000 A 
ATOM     14  C   UNL     1      -3.762  15.283  22.414  0.00  0.00    +0.000 A 
ATOM     15  N   UNL     1      -3.687  14.851  23.700  0.00  0.00    +0.000 NA
ATOM     16  C   UNL     1      -2.894  13.789  23.949  0.00  0.00    +0.000 A 
ATOM     17  C   UNL     1      -2.188  13.163  22.951  0.00  0.00    +0.000 A 
ATOM     18  C   UNL     1      -1.290  11.986  23.037  0.00  0.00    +0.000 C 
ATOM     19  H   UNL     1       0.089  11.230  19.421  0.00  0.00    +0.000 HD
ENDBRANCH   1   9
BRANCH   4  20
ATOM     20  O   UNL     1       3.078   6.015  18.155  0.00  0.00    +0.000 OA
BRANCH  20  21
ATOM     21  C   UNL     1       4.506   5.931  18.248  0.00  0.00    +0.000 C 
ATOM     22  C   UNL     1       5.159   7.029  17.403  0.00  0.00    +0.000 C 
ATOM     23  C   UNL     1       5.195   6.442  15.993  0.00  0.00    +0.000 C 
ATOM     24  N   UNL     1       5.360   5.018  16.197  0.00  0.00    +0.000 N 
ATOM     25  C   UNL     1       5.731   4.062  15.261  0.00  0.00    +0.000 C 
ATOM     26  O   UNL     1       5.905   2.890  15.619  0.00  0.00    +0.000 OA
ATOM     27  C   UNL     1       5.013   4.644  17.565  0.00  0.00    +0.000 C 
BRANCH  25  28
ATOM     28  C   UNL     1       5.897   4.528  13.777  0.00  0.00    +0.000 C 
ATOM     29  C   UNL     1       7.344   4.836  13.290  0.00  0.00    +0.000 C 
ATOM     30  C   UNL     1       7.073   4.035  12.011  0.00  0.00    +0.000 C 
ATOM     31  C   UNL     1       5.838   3.426  12.687  0.00  0.00    +0.000 C 
ENDBRANCH  25  28
ENDBRANCH  20  21
ENDBRANCH   4  20
TORSDOF 4
ENDMDL
MODEL 7
REMARK VINA RESULT:      -7.5      2.415      3.827
REMARK  Name = 
REMARK  4 active torsions:
REMARK  status: ('A' for Active; 'I' for Inactive)
REMARK    1  A    between atoms: N_3  and  C_4
REMARK    2  A    between atoms: C_7  and  O_8
REMARK    3  A    between atoms: O_8  and  C_9
REMARK    4  A    between atoms: C_13  and  C_15
REMARK                            x       y       z     vdW  Elec       q    Type
REMARK                         _______ _______ _______ _____ _____    ______ ____
ROOT
ATOM      1  C   UNL     1      -0.727  10.830  21.472  0.00  0.00    +0.000 A 
ATOM      2  C   UNL     1      -0.291   9.853  22.365  0.00  0.00    +0.000 A 
ATOM      3  C   UNL     1       0.637   8.880  21.972  0.00  0.00    +0.000 A 
ATOM      4  C   UNL     1       1.117   8.821  20.665  0.00  0.00    +0.000 A 
ATOM      5  C   UNL     1       0.649   9.765  19.749  0.00  0.00    +0.000 A 
ATOM      6  C   UNL     1      -0.264  10.762  20.152  0.00  0.00    +0.000 A 
ENDROOT
BRANCH   1   9
ATOM      7  O   UNL     1      -0.161  13.209  23.043  0.00  0.00    +0.000 OA
ATOM      8  C   UNL     1      -1.291  12.951  22.622  0.00  0.00    +0.000 C 
ATOM      9  N   UNL     1      -1.613  11.877  21.835  0.00  0.00    +0.000 N 
ATOM     10  N   UNL     1      -2.328  13.778  22.985  0.00  0.00    +0.000 N 
ATOM     11  C   UNL     1      -3.746  13.723  22.618  0.00  0.00    +0.000 C 
ATOM     12  C   UNL     1      -4.346  14.863  23.382  0.00  0.00    +0.000 A 
ATOM     13  C   UNL     1      -5.639  15.342  23.406  0.00  0.00    +0.000 A 
ATOM     14  C   UNL     1      -5.889  16.422  24.249  0.00  0.00    +0.000 A 
ATOM     15  N   UNL     1      -4.955  17.020  25.033  0.00  0.00    +0.000 NA
ATOM     16  C   UNL     1      -3.700  16.529  24.983  0.00  0.00    +0.000 A 
ATOM     17  C   UNL     1      -3.371  15.467  24.176  0.00  0.00    +0.000 A 
ATOM     18  C   UNL     1      -2.062  14.792  24.005  0.00  0.00    +0.000 C 
ATOM     19  H   UNL     1      -2.513  11.887  21.377  0.00  0.00    +0.000 HD
ENDBRANCH   1   9
BRANCH   4  20
ATOM     20  O   UNL     1       2.024   7.821  20.441  0.00  0.00    +0.000 OA
BRANCH  20  21
ATOM     21  C   UNL     1       1.642   6.722  19.604  0.00  0.00    +0.000 C 
ATOM     22  C   UNL     1       2.001   5.393  20.274  0.00  0.00    +0.000 C 
ATOM     23  C   UNL     1       3.471   5.182  19.916  0.00  0.00    +0.000 C 
ATOM     24  N   UNL     1       3.617   5.788  18.609  0.00  0.00    +0.000 N 
ATOM     25  C   UNL     1       4.665   5.632  17.711  0.00  0.00    +0.000 C 
ATOM     26  O   UNL     1       4.598   6.160  16.594  0.00  0.00    +0.000 OA
ATOM     27  C   UNL     1       2.508   6.694  18.328  0.00  0.00    +0.000 C 
BRANCH  25  28
ATOM     28  C   UNL     1       5.899   4.791  18.178  0.00  0.00    +0.000 C 
ATOM     29  C   UNL     1       7.097   4.682  17.187  0.00  0.00    +0.000 C 
ATOM     30  C   UNL     1       8.063   4.981  18.339  0.00  0.00    +0.000 C 
ATOM     31  C   UNL     1       6.873   5.472  19.174  0.00  0.00    +0.000 C 
ENDBRANCH  25  28
ENDBRANCH  20  21
ENDBRANCH   4  20
TORSDOF 4
ENDMDL
MODEL 8
REMARK VINA RESULT:      -7.5      7.073      8.987
REMARK  Name = 
REMARK  4 active torsions:
REMARK  status: ('A' for Active; 'I' for Inactive)
REMARK    1  A    between atoms: N_3  and  C_4
REMARK    2  A    between atoms: C_7  and  O_8
REMARK    3  A    between atoms: O_8  and  C_9
REMARK    4  A    between atoms: C_13  and  C_15
REMARK                            x       y       z     vdW  Elec       q    Type
REMARK                         _______ _______ _______ _____ _____    ______ ____
ROOT
ATOM      1  C   UNL     1       8.239   8.803  18.072  0.00  0.00    +0.000 A 
ATOM      2  C   UNL     1       8.588   7.712  18.866  0.00  0.00    +0.000 A 
ATOM      3  C   UNL     1       7.879   6.507  18.788  0.00  0.00    +0.000 A 
ATOM      4  C   UNL     1       6.768   6.371  17.957  0.00  0.00    +0.000 A 
ATOM      5  C   UNL     1       6.379   7.475  17.194  0.00  0.00    +0.000 A 
ATOM      6  C   UNL     1       7.110   8.679  17.252  0.00  0.00    +0.000 A 
ENDROOT
BRANCH   1   9
ATOM      7  O   UNL     1       9.205  10.344  20.339  0.00  0.00    +0.000 OA
ATOM      8  C   UNL     1       9.348  10.725  19.174  0.00  0.00    +0.000 C 
ATOM      9  N   UNL     1       8.963  10.023  18.063  0.00  0.00    +0.000 N 
ATOM     10  N   UNL     1       9.907  11.962  18.955  0.00  0.00    +0.000 N 
ATOM     11  C   UNL     1      10.210  12.646  17.695  0.00  0.00    +0.000 C 
ATOM     12  C   UNL     1      10.751  13.970  18.141  0.00  0.00    +0.000 A 
ATOM     13  C   UNL     1      11.249  15.026  17.406  0.00  0.00    +0.000 A 
ATOM     14  C   UNL     1      11.661  16.146  18.124  0.00  0.00    +0.000 A 
ATOM     15  N   UNL     1      11.604  16.258  19.477  0.00  0.00    +0.000 NA
ATOM     16  C   UNL     1      11.114  15.206  20.163  0.00  0.00    +0.000 A 
ATOM     17  C   UNL     1      10.688  14.063  19.531  0.00  0.00    +0.000 A 
ATOM     18  C   UNL     1      10.114  12.828  20.116  0.00  0.00    +0.000 C 
ATOM     19  H   UNL     1       9.321  10.329  17.170  0.00  0.00    +0.000 HD
ENDBRANCH   1   9
BRANCH   4  20
ATOM     20  O   UNL     1       6.189   5.132  17.986  0.00  0.00    +0.000 OA
BRANCH  20  21
ATOM     21  C   UNL     1       5.078   4.872  17.118  0.00  0.00    +0.000 C 
ATOM     22  C   UNL     1       3.824   5.585  17.631  0.00  0.00    +0.000 C 
ATOM     23  C   UNL     1       3.256   4.631  18.680  0.00  0.00    +0.000 C 
ATOM     24  N   UNL     1       3.606   3.311  18.197  0.00  0.00    +0.000 N 
ATOM     25  C   UNL     1       3.095   2.089  18.615  0.00  0.00    +0.000 C 
ATOM     26  O   UNL     1       3.445   1.051  18.039  0.00  0.00    +0.000 OA
ATOM     27  C   UNL     1       4.670   3.386  17.201  0.00  0.00    +0.000 C 
BRANCH  25  28
ATOM     28  C   UNL     1       2.098   2.095  19.820  0.00  0.00    +0.000 C 
ATOM     29  C   UNL     1       2.602   2.722  21.154  0.00  0.00    +0.000 C 
ATOM     30  C   UNL     1       1.280   3.486  21.283  0.00  0.00    +0.000 C 
ATOM     31  C   UNL     1       0.991   3.181  19.807  0.00  0.00    +0.000 C 
ENDBRANCH  25  28
ENDBRANCH  20  21
ENDBRANCH   4  20
TORSDOF 4
ENDMDL
MODEL 9
REMARK VINA RESULT:      -7.4      3.380     11.154
REMARK  Name = 
REMARK  4 active torsions:
REMARK  status: ('A' for Active; 'I' for Inactive)
REMARK    1  A    between atoms: N_3  and  C_4
REMARK    2  A    between atoms: C_7  and  O_8
REMARK    3  A    between atoms: O_8  and  C_9
REMARK    4  A    between atoms: C_13  and  C_15
REMARK                            x       y       z     vdW  Elec       q    Type
REMARK                         _______ _______ _______ _____ _____    ______ ____
ROOT
ATOM      1  C   UNL     1       0.760   9.105  21.518  0.00  0.00    +0.000 A 
ATOM      2  C   UNL     1       1.118  10.332  20.963  0.00  0.00    +0.000 A 
ATOM      3  C   UNL     1       0.537  11.524  21.415  0.00  0.00    +0.000 A 
ATOM      4  C   UNL     1      -0.455  11.523  22.393  0.00  0.00    +0.000 A 
ATOM      5  C   UNL     1      -0.857  10.293  22.920  0.00  0.00    +0.000 A 
ATOM      6  C   UNL     1      -0.252   9.095  22.486  0.00  0.00    +0.000 A 
ENDROOT
BRANCH   1   9
ATOM      7  O   UNL     1       1.991   8.396  18.983  0.00  0.00    +0.000 OA
ATOM      8  C   UNL     1       1.885   7.591  19.912  0.00  0.00    +0.000 C 
ATOM      9  N   UNL     1       1.364   7.876  21.146  0.00  0.00    +0.000 N 
ATOM     10  N   UNL     1       2.288   6.293  19.702  0.00  0.00    +0.000 N 
ATOM     11  C   UNL     1       2.296   5.151  20.620  0.00  0.00    +0.000 C 
ATOM     12  C   UNL     1       2.795   4.025  19.768  0.00  0.00    +0.000 A 
ATOM     13  C   UNL     1       3.059   2.709  20.089  0.00  0.00    +0.000 A 
ATOM     14  C   UNL     1       3.499   1.891  19.051  0.00  0.00    +0.000 A 
ATOM     15  N   UNL     1       3.681   2.301  17.770  0.00  0.00    +0.000 NA
ATOM     16  C   UNL     1       3.416   3.594  17.492  0.00  0.00    +0.000 A 
ATOM     17  C   UNL     1       2.980   4.467  18.458  0.00  0.00    +0.000 A 
ATOM     18  C   UNL     1       2.629   5.903  18.333  0.00  0.00    +0.000 C 
ATOM     19  H   UNL     1       1.526   7.209  21.887  0.00  0.00    +0.000 HD
ENDBRANCH   1   9
BRANCH   4  20
ATOM     20  O   UNL     1      -0.916  12.766  22.732  0.00  0.00    +0.000 OA
BRANCH  20  21
ATOM     21  C   UNL     1      -1.201  13.702  21.685  0.00  0.00    +0.000 C 
ATOM     22  C   UNL     1      -2.319  14.656  22.115  0.00  0.00    +0.000 C 
ATOM     23  C   UNL     1      -3.603  13.887  21.806  0.00  0.00    +0.000 C 
ATOM     24  N   UNL     1      -3.276  13.086  20.644  0.00  0.00    +0.000 N 
ATOM     25  C   UNL     1      -4.152  12.426  19.793  0.00  0.00    +0.000 C 
ATOM     26  O   UNL     1      -3.711  11.846  18.792  0.00  0.00    +0.000 OA
ATOM     27  C   UNL     1      -1.830  12.979  20.477  0.00  0.00    +0.000 C 
BRANCH  25  28
ATOM     28  C   UNL     1      -5.671  12.442  20.163  0.00  0.00    +0.000 C 
ATOM     29  C   UNL     1      -6.557  13.522  19.473  0.00  0.00    +0.000 C 
ATOM     30  C   UNL     1      -7.613  12.452  19.175  0.00  0.00    +0.000 C 
ATOM     31  C   UNL     1      -6.567  11.373  19.485  0.00  0.00    +0.000 C 
ENDBRANCH  25  28
ENDBRANCH  20  21
ENDBRANCH   4  20
TORSDOF 4
ENDMDL
