MODEL 1
REMARK VINA RESULT:      -6.4      0.000      0.000
REMARK  Name = 
REMARK  7 active torsions:
REMARK  status: ('A' for Active; 'I' for Inactive)
REMARK    1  A    between atoms: C_1  and  O_2
REMARK    2  A    between atoms: O_2  and  C_3
REMARK    3  A    between atoms: C_3  and  C_5
REMARK    4  A    between atoms: C_6  and  C_7
REMARK    5  A    between atoms: C_8  and  C_9
REMARK    6  A    between atoms: C_11  and  O_12
REMARK    7  A    between atoms: C_14  and  O_15
REMARK                            x       y       z     vdW  Elec       q    Type
REMARK                         _______ _______ _______ _____ _____    ______ ____
ROOT
ATOM      1  C   UNL     1       4.222   4.122  19.058  0.00  0.00    +0.000 A 
ATOM      2  C   UNL     1       3.113   4.948  18.919  0.00  0.00    +0.000 A 
ATOM      3  C   UNL     1       3.164   6.278  18.221  0.00  0.00    +0.000 C 
ATOM      4  N   UNL     1       1.891   4.613  19.407  0.00  0.00    +0.000 NA
ATOM      5  C   UNL     1       1.811   3.435  20.031  0.00  0.00    +0.000 A 
ATOM      6  N   UNL     1       2.786   2.559  20.237  0.00  0.00    +0.000 NA
ATOM      7  C   UNL     1       3.966   2.940  19.736  0.00  0.00    +0.000 A 
ENDROOT
BRANCH   1   9
ATOM      8  C   UNL     1       5.870   4.299  17.237  0.00  0.00    +0.000 C 
ATOM      9  C   UNL     1       5.551   4.442  18.531  0.00  0.00    +0.000 C 
BRANCH   8  10
ATOM     10  C   UNL     1       7.233   4.647  16.784  0.00  0.00    +0.000 C 
ATOM     11  O   UNL     1       8.265   4.239  17.294  0.00  0.00    +0.000 OA
BRANCH  10  13
ATOM     12  C   UNL     1       5.984   5.224  14.905  0.00  0.00    +0.000 C 
ATOM     13  O   UNL     1       7.134   5.474  15.715  0.00  0.00    +0.000 OA
ENDBRANCH  10  13
ENDBRANCH   8  10
ENDBRANCH   1   9
BRANCH   5  14
ATOM     14  O   UNL     1       0.576   3.129  20.507  0.00  0.00    +0.000 OA
ATOM     15  H   UNL     1       0.349   2.415  19.891  0.00  0.00    +0.000 HD
ENDBRANCH   5  14
BRANCH   7  16
ATOM     16  O   UNL     1       4.948   2.025  19.962  0.00  0.00    +0.000 OA
ATOM     17  H   UNL     1       4.827   1.873  20.918  0.00  0.00    +0.000 HD
ENDBRANCH   7  16
TORSDOF 5
ENDMDL
MODEL 2
REMARK VINA RESULT:      -6.4      1.160      1.397
REMARK  Name = 
REMARK  7 active torsions:
REMARK  status: ('A' for Active; 'I' for Inactive)
REMARK    1  A    between atoms: C_1  and  O_2
REMARK    2  A    between atoms: O_2  and  C_3
REMARK    3  A    between atoms: C_3  and  C_5
REMARK    4  A    between atoms: C_6  and  C_7
REMARK    5  A    between atoms: C_8  and  C_9
REMARK    6  A    between atoms: C_11  and  O_12
REMARK    7  A    between atoms: C_14  and  O_15
REMARK                            x       y       z     vdW  Elec       q    Type
REMARK                         _______ _______ _______ _____ _____    ______ ____
ROOT
ATOM      1  C   UNL     1       4.042   4.018  18.936  0.00  0.00    +0.000 A 
ATOM      2  C   UNL     1       2.891   4.797  18.887  0.00  0.00    +0.000 A 
ATOM      3  C   UNL     1       2.800   6.074  18.101  0.00  0.00    +0.000 C 
ATOM      4  N   UNL     1       1.755   4.460  19.551  0.00  0.00    +0.000 NA
ATOM      5  C   UNL     1       1.803   3.328  20.257  0.00  0.00    +0.000 A 
ATOM      6  N   UNL     1       2.831   2.499  20.394  0.00  0.00    +0.000 NA
ATOM      7  C   UNL     1       3.922   2.880  19.719  0.00  0.00    +0.000 A 
ENDROOT
BRANCH   1   9
ATOM      8  C   UNL     1       6.309   4.969  18.806  0.00  0.00    +0.000 C 
ATOM      9  C   UNL     1       5.279   4.341  18.221  0.00  0.00    +0.000 C 
BRANCH   8  10
ATOM     10  C   UNL     1       7.525   5.256  18.015  0.00  0.00    +0.000 C 
ATOM     11  O   UNL     1       8.012   4.506  17.183  0.00  0.00    +0.000 OA
BRANCH  10  13
ATOM     12  C   UNL     1       7.528   7.529  17.507  0.00  0.00    +0.000 C 
ATOM     13  O   UNL     1       7.986   6.481  18.365  0.00  0.00    +0.000 OA
ENDBRANCH  10  13
ENDBRANCH   8  10
ENDBRANCH   1   9
BRANCH   5  14
ATOM     14  O   UNL     1       0.652   3.018  20.908  0.00  0.00    +0.000 OA
ATOM     15  H   UNL     1       0.203   2.530  20.200  0.00  0.00    +0.000 HD
ENDBRANCH   5  14
BRANCH   7  16
ATOM     16  O   UNL     1       4.960   2.014  19.877  0.00  0.00    +0.000 OA
ATOM     17  H   UNL     1       4.519   1.172  19.656  0.00  0.00    +0.000 HD
ENDBRANCH   7  16
TORSDOF 5
ENDMDL
MODEL 3
REMARK VINA RESULT:      -6.3      1.350      1.364
REMARK  Name = 
REMARK  7 active torsions:
REMARK  status: ('A' for Active; 'I' for Inactive)
REMARK    1  A    between atoms: C_1  and  O_2
REMARK    2  A    between atoms: O_2  and  C_3
REMARK    3  A    between atoms: C_3  and  C_5
REMARK    4  A    between atoms: C_6  and  C_7
REMARK    5  A    between atoms: C_8  and  C_9
REMARK    6  A    between atoms: C_11  and  O_12
REMARK    7  A    between atoms: C_14  and  O_15
REMARK                            x       y       z     vdW  Elec       q    Type
REMARK                         _______ _______ _______ _____ _____    ______ ____
ROOT
ATOM      1  C   UNL     1       3.744   3.700  17.996  0.00  0.00    +0.000 A 
ATOM      2  C   UNL     1       2.729   4.620  18.234  0.00  0.00    +0.000 A 
ATOM      3  C   UNL     1       2.910   6.102  18.066  0.00  0.00    +0.000 C 
ATOM      4  N   UNL     1       1.488   4.245  18.641  0.00  0.00    +0.000 NA
ATOM      5  C   UNL     1       1.294   2.933  18.797  0.00  0.00    +0.000 A 
ATOM      6  N   UNL     1       2.172   1.955  18.611  0.00  0.00    +0.000 NA
ATOM      7  C   UNL     1       3.375   2.382  18.212  0.00  0.00    +0.000 A 
ENDROOT
BRANCH   1   9
ATOM      8  C   UNL     1       5.428   4.106  16.246  0.00  0.00    +0.000 C 
ATOM      9  C   UNL     1       5.088   4.066  17.542  0.00  0.00    +0.000 C 
BRANCH   8  10
ATOM     10  C   UNL     1       6.806   4.487  15.870  0.00  0.00    +0.000 C 
ATOM     11  O   UNL     1       7.779   4.408  16.604  0.00  0.00    +0.000 OA
BRANCH  10  13
ATOM     12  C   UNL     1       6.307   3.950  13.660  0.00  0.00    +0.000 C 
ATOM     13  O   UNL     1       6.797   4.921  14.586  0.00  0.00    +0.000 OA
ENDBRANCH  10  13
ENDBRANCH   8  10
ENDBRANCH   1   9
BRANCH   5  14
ATOM     14  O   UNL     1       0.044   2.590  19.202  0.00  0.00    +0.000 OA
ATOM     15  H   UNL     1       0.277   1.955  19.898  0.00  0.00    +0.000 HD
ENDBRANCH   5  14
BRANCH   7  16
ATOM     16  O   UNL     1       4.255   1.360  18.030  0.00  0.00    +0.000 OA
ATOM     17  H   UNL     1       3.710   0.606  18.324  0.00  0.00    +0.000 HD
ENDBRANCH   7  16
TORSDOF 5
ENDMDL
MODEL 4
REMARK VINA RESULT:      -6.3      1.334      1.797
REMARK  Name = 
REMARK  7 active torsions:
REMARK  status: ('A' for Active; 'I' for Inactive)
REMARK    1  A    between atoms: C_1  and  O_2
REMARK    2  A    between atoms: O_2  and  C_3
REMARK    3  A    between atoms: C_3  and  C_5
REMARK    4  A    between atoms: C_6  and  C_7
REMARK    5  A    between atoms: C_8  and  C_9
REMARK    6  A    between atoms: C_11  and  O_12
REMARK    7  A    between atoms: C_14  and  O_15
REMARK                            x       y       z     vdW  Elec       q    Type
REMARK                         _______ _______ _______ _____ _____    ______ ____
ROOT
ATOM      1  C   UNL     1       3.529   3.214  18.663  0.00  0.00    +0.000 A 
ATOM      2  C   UNL     1       2.233   3.697  18.800  0.00  0.00    +0.000 A 
ATOM      3  C   UNL     1       1.509   4.423  17.702  0.00  0.00    +0.000 C 
ATOM      4  N   UNL     1       1.519   3.549  19.945  0.00  0.00    +0.000 NA
ATOM      5  C   UNL     1       2.134   2.905  20.940  0.00  0.00    +0.000 A 
ATOM      6  N   UNL     1       3.362   2.401  20.945  0.00  0.00    +0.000 NA
ATOM      7  C   UNL     1       4.018   2.577  19.793  0.00  0.00    +0.000 A 
ENDROOT
BRANCH   1   9
ATOM      8  C   UNL     1       5.307   4.243  17.305  0.00  0.00    +0.000 C 
ATOM      9  C   UNL     1       4.324   3.341  17.439  0.00  0.00    +0.000 C 
BRANCH   8  10
ATOM     10  C   UNL     1       6.064   4.306  16.038  0.00  0.00    +0.000 C 
ATOM     11  O   UNL     1       5.597   4.083  14.931  0.00  0.00    +0.000 OA
BRANCH  10  13
ATOM     12  C   UNL     1       7.649   4.638  17.712  0.00  0.00    +0.000 C 
ATOM     13  O   UNL     1       7.342   4.661  16.316  0.00  0.00    +0.000 OA
ENDBRANCH  10  13
ENDBRANCH   8  10
ENDBRANCH   1   9
BRANCH   5  14
ATOM     14  O   UNL     1       1.393   2.771  22.072  0.00  0.00    +0.000 OA
ATOM     15  H   UNL     1       2.062   2.365  22.645  0.00  0.00    +0.000 HD
ENDBRANCH   5  14
BRANCH   7  16
ATOM     16  O   UNL     1       5.274   2.052  19.825  0.00  0.00    +0.000 OA
ATOM     17  H   UNL     1       5.703   2.666  20.451  0.00  0.00    +0.000 HD
ENDBRANCH   7  16
TORSDOF 5
ENDMDL
MODEL 5
REMARK VINA RESULT:      -6.3      1.540      1.737
REMARK  Name = 
REMARK  7 active torsions:
REMARK  status: ('A' for Active; 'I' for Inactive)
REMARK    1  A    between atoms: C_1  and  O_2
REMARK    2  A    between atoms: O_2  and  C_3
REMARK    3  A    between atoms: C_3  and  C_5
REMARK    4  A    between atoms: C_6  and  C_7
REMARK    5  A    between atoms: C_8  and  C_9
REMARK    6  A    between atoms: C_11  and  O_12
REMARK    7  A    between atoms: C_14  and  O_15
REMARK                            x       y       z     vdW  Elec       q    Type
REMARK                         _______ _______ _______ _____ _____    ______ ____
ROOT
ATOM      1  C   UNL     1       3.651   3.835  17.927  0.00  0.00    +0.000 A 
ATOM      2  C   UNL     1       2.608   4.697  18.245  0.00  0.00    +0.000 A 
ATOM      3  C   UNL     1       2.724   6.192  18.158  0.00  0.00    +0.000 C 
ATOM      4  N   UNL     1       1.395   4.249  18.662  0.00  0.00    +0.000 NA
ATOM      5  C   UNL     1       1.259   2.923  18.748  0.00  0.00    +0.000 A 
ATOM      6  N   UNL     1       2.168   1.994  18.482  0.00  0.00    +0.000 NA
ATOM      7  C   UNL     1       3.342   2.492  18.077  0.00  0.00    +0.000 A 
ENDROOT
BRANCH   1   9
ATOM      8  C   UNL     1       5.993   4.502  18.292  0.00  0.00    +0.000 C 
ATOM      9  C   UNL     1       4.966   4.282  17.459  0.00  0.00    +0.000 C 
BRANCH   8  10
ATOM     10  C   UNL     1       7.290   4.948  17.741  0.00  0.00    +0.000 C 
ATOM     11  O   UNL     1       7.929   4.354  16.886  0.00  0.00    +0.000 OA
BRANCH  10  13
ATOM     12  C   UNL     1       7.452   7.258  17.489  0.00  0.00    +0.000 C 
ATOM     13  O   UNL     1       7.630   6.119  18.333  0.00  0.00    +0.000 OA
ENDBRANCH  10  13
ENDBRANCH   8  10
ENDBRANCH   1   9
BRANCH   5  14
ATOM     14  O   UNL     1       0.035   2.506  19.166  0.00  0.00    +0.000 OA
ATOM     15  H   UNL     1       0.084   2.792  20.091  0.00  0.00    +0.000 HD
ENDBRANCH   5  14
BRANCH   7  16
ATOM     16  O   UNL     1       4.257   1.520  17.813  0.00  0.00    +0.000 OA
ATOM     17  H   UNL     1       3.695   0.726  17.896  0.00  0.00    +0.000 HD
ENDBRANCH   7  16
TORSDOF 5
ENDMDL
MODEL 6
REMARK VINA RESULT:      -6.3      1.237      1.280
REMARK  Name = 
REMARK  7 active torsions:
REMARK  status: ('A' for Active; 'I' for Inactive)
REMARK    1  A    between atoms: C_1  and  O_2
REMARK    2  A    between atoms: O_2  and  C_3
REMARK    3  A    between atoms: C_3  and  C_5
REMARK    4  A    between atoms: C_6  and  C_7
REMARK    5  A    between atoms: C_8  and  C_9
REMARK    6  A    between atoms: C_11  and  O_12
REMARK    7  A    between atoms: C_14  and  O_15
REMARK                            x       y       z     vdW  Elec       q    Type
REMARK                         _______ _______ _______ _____ _____    ______ ____
ROOT
ATOM      1  C   UNL     1       3.694   3.324  18.854  0.00  0.00    +0.000 A 
ATOM      2  C   UNL     1       2.435   3.899  18.986  0.00  0.00    +0.000 A 
ATOM      3  C   UNL     1       1.831   4.796  17.942  0.00  0.00    +0.000 C 
ATOM      4  N   UNL     1       1.652   3.693  20.076  0.00  0.00    +0.000 NA
ATOM      5  C   UNL     1       2.159   2.899  21.021  0.00  0.00    +0.000 A 
ATOM      6  N   UNL     1       3.341   2.294  21.025  0.00  0.00    +0.000 NA
ATOM      7  C   UNL     1       4.070   2.532  19.928  0.00  0.00    +0.000 A 
ENDROOT
BRANCH   1   9
ATOM      8  C   UNL     1       5.565   4.398  17.667  0.00  0.00    +0.000 C 
ATOM      9  C   UNL     1       4.560   3.510  17.687  0.00  0.00    +0.000 C 
BRANCH   8  10
ATOM     10  C   UNL     1       6.395   4.524  16.451  0.00  0.00    +0.000 C 
ATOM     11  O   UNL     1       7.613   4.619  16.441  0.00  0.00    +0.000 OA
BRANCH  10  13
ATOM     12  C   UNL     1       6.188   3.940  14.206  0.00  0.00    +0.000 C 
ATOM     13  O   UNL     1       5.579   4.504  15.369  0.00  0.00    +0.000 OA
ENDBRANCH  10  13
ENDBRANCH   8  10
ENDBRANCH   1   9
BRANCH   5  14
ATOM     14  O   UNL     1       1.351   2.711  22.097  0.00  0.00    +0.000 OA
ATOM     15  H   UNL     1       1.852   2.009  22.543  0.00  0.00    +0.000 HD
ENDBRANCH   5  14
BRANCH   7  16
ATOM     16  O   UNL     1       5.276   1.902  19.958  0.00  0.00    +0.000 OA
ATOM     17  H   UNL     1       5.110   1.243  20.659  0.00  0.00    +0.000 HD
ENDBRANCH   7  16
TORSDOF 5
ENDMDL
MODEL 7
REMARK VINA RESULT:      -6.2      1.146      1.159
REMARK  Name = 
REMARK  7 active torsions:
REMARK  status: ('A' for Active; 'I' for Inactive)
REMARK    1  A    between atoms: C_1  and  O_2
REMARK    2  A    between atoms: O_2  and  C_3
REMARK    3  A    between atoms: C_3  and  C_5
REMARK    4  A    between atoms: C_6  and  C_7
REMARK    5  A    between atoms: C_8  and  C_9
REMARK    6  A    between atoms: C_11  and  O_12
REMARK    7  A    between atoms: C_14  and  O_15
REMARK                            x       y       z     vdW  Elec       q    Type
REMARK                         _______ _______ _______ _____ _____    ______ ____
ROOT
ATOM      1  C   UNL     1       3.842   3.753  18.656  0.00  0.00    +0.000 A 
ATOM      2  C   UNL     1       2.706   4.521  18.426  0.00  0.00    +0.000 A 
ATOM      3  C   UNL     1       2.760   5.987  18.105  0.00  0.00    +0.000 C 
ATOM      4  N   UNL     1       1.453   3.999  18.476  0.00  0.00    +0.000 NA
ATOM      5  C   UNL     1       1.371   2.696  18.757  0.00  0.00    +0.000 A 
ATOM      6  N   UNL     1       2.367   1.854  19.001  0.00  0.00    +0.000 NA
ATOM      7  C   UNL     1       3.577   2.422  18.940  0.00  0.00    +0.000 A 
ENDROOT
BRANCH   1   9
ATOM      8  C   UNL     1       5.916   4.322  17.458  0.00  0.00    +0.000 C 
ATOM      9  C   UNL     1       5.208   4.276  18.596  0.00  0.00    +0.000 C 
BRANCH   8  10
ATOM     10  C   UNL     1       7.289   4.867  17.481  0.00  0.00    +0.000 C 
ATOM     11  O   UNL     1       7.791   5.462  18.423  0.00  0.00    +0.000 OA
BRANCH  10  13
ATOM     12  C   UNL     1       7.000   4.670  15.179  0.00  0.00    +0.000 C 
ATOM     13  O   UNL     1       7.885   4.585  16.297  0.00  0.00    +0.000 OA
ENDBRANCH  10  13
ENDBRANCH   8  10
ENDBRANCH   1   9
BRANCH   5  14
ATOM     14  O   UNL     1       0.105   2.204  18.797  0.00  0.00    +0.000 OA
ATOM     15  H   UNL     1      -0.105   2.245  17.851  0.00  0.00    +0.000 HD
ENDBRANCH   5  14
BRANCH   7  16
ATOM     16  O   UNL     1       4.580   1.537  19.195  0.00  0.00    +0.000 OA
ATOM     17  H   UNL     1       4.058   0.739  19.402  0.00  0.00    +0.000 HD
ENDBRANCH   7  16
TORSDOF 5
ENDMDL
MODEL 8
REMARK VINA RESULT:      -6.2      1.580      1.627
REMARK  Name = 
REMARK  7 active torsions:
REMARK  status: ('A' for Active; 'I' for Inactive)
REMARK    1  A    between atoms: C_1  and  O_2
REMARK    2  A    between atoms: O_2  and  C_3
REMARK    3  A    between atoms: C_3  and  C_5
REMARK    4  A    between atoms: C_6  and  C_7
REMARK    5  A    between atoms: C_8  and  C_9
REMARK    6  A    between atoms: C_11  and  O_12
REMARK    7  A    between atoms: C_14  and  O_15
REMARK                            x       y       z     vdW  Elec       q    Type
REMARK                         _______ _______ _______ _____ _____    ______ ____
ROOT
ATOM      1  C   UNL     1       3.953   3.908  18.940  0.00  0.00    +0.000 A 
ATOM      2  C   UNL     1       2.808   4.531  18.456  0.00  0.00    +0.000 A 
ATOM      3  C   UNL     1       2.757   5.990  18.101  0.00  0.00    +0.000 C 
ATOM      4  N   UNL     1       1.641   3.863  18.267  0.00  0.00    +0.000 NA
ATOM      5  C   UNL     1       1.654   2.563  18.571  0.00  0.00    +0.000 A 
ATOM      6  N   UNL     1       2.669   1.850  19.043  0.00  0.00    +0.000 NA
ATOM      7  C   UNL     1       3.791   2.558  19.210  0.00  0.00    +0.000 A 
ENDROOT
BRANCH   1   9
ATOM      8  C   UNL     1       6.180   4.648  18.195  0.00  0.00    +0.000 C 
ATOM      9  C   UNL     1       5.232   4.592  19.142  0.00  0.00    +0.000 C 
BRANCH   8  10
ATOM     10  C   UNL     1       7.444   5.360  18.477  0.00  0.00    +0.000 C 
ATOM     11  O   UNL     1       8.101   5.242  19.499  0.00  0.00    +0.000 OA
BRANCH  10  13
ATOM     12  C   UNL     1       6.895   7.289  17.292  0.00  0.00    +0.000 C 
ATOM     13  O   UNL     1       7.743   6.145  17.413  0.00  0.00    +0.000 OA
ENDBRANCH  10  13
ENDBRANCH   8  10
ENDBRANCH   1   9
BRANCH   5  14
ATOM     14  O   UNL     1       0.473   1.922  18.369  0.00  0.00    +0.000 OA
ATOM     15  H   UNL     1       0.795   1.168  17.850  0.00  0.00    +0.000 HD
ENDBRANCH   5  14
BRANCH   7  16
ATOM     16  O   UNL     1       4.815   1.804  19.696  0.00  0.00    +0.000 OA
ATOM     17  H   UNL     1       4.328   1.002  19.964  0.00  0.00    +0.000 HD
ENDBRANCH   7  16
TORSDOF 5
ENDMDL
MODEL 9
REMARK VINA RESULT:      -6.1      1.275      1.577
REMARK  Name = 
REMARK  7 active torsions:
REMARK  status: ('A' for Active; 'I' for Inactive)
REMARK    1  A    between atoms: C_1  and  O_2
REMARK    2  A    between atoms: O_2  and  C_3
REMARK    3  A    between atoms: C_3  and  C_5
REMARK    4  A    between atoms: C_6  and  C_7
REMARK    5  A    between atoms: C_8  and  C_9
REMARK    6  A    between atoms: C_11  and  O_12
REMARK    7  A    between atoms: C_14  and  O_15
REMARK                            x       y       z     vdW  Elec       q    Type
REMARK                         _______ _______ _______ _____ _____    ______ ____
ROOT
ATOM      1  C   UNL     1       3.514   4.027  17.810  0.00  0.00    +0.000 A 
ATOM      2  C   UNL     1       2.685   4.979  18.394  0.00  0.00    +0.000 A 
ATOM      3  C   UNL     1       2.771   6.444  18.076  0.00  0.00    +0.000 C 
ATOM      4  N   UNL     1       1.730   4.652  19.303  0.00  0.00    +0.000 NA
ATOM      5  C   UNL     1       1.627   3.356  19.605  0.00  0.00    +0.000 A 
ATOM      6  N   UNL     1       2.352   2.351  19.129  0.00  0.00    +0.000 NA
ATOM      7  C   UNL     1       3.277   2.730  18.240  0.00  0.00    +0.000 A 
ENDROOT
BRANCH   1   9
ATOM      8  C   UNL     1       5.789   4.703  17.155  0.00  0.00    +0.000 C 
ATOM      9  C   UNL     1       4.544   4.339  16.816  0.00  0.00    +0.000 C 
BRANCH   8  10
ATOM     10  C   UNL     1       6.771   4.999  16.090  0.00  0.00    +0.000 C 
ATOM     11  O   UNL     1       6.967   4.304  15.105  0.00  0.00    +0.000 OA
BRANCH  10  13
ATOM     12  C   UNL     1       7.394   6.466  17.788  0.00  0.00    +0.000 C 
ATOM     13  O   UNL     1       7.395   6.163  16.392  0.00  0.00    +0.000 OA
ENDBRANCH  10  13
ENDBRANCH   8  10
ENDBRANCH   1   9
BRANCH   5  14
ATOM     14  O   UNL     1       0.662   3.061  20.515  0.00  0.00    +0.000 OA
ATOM     15  H   UNL     1       0.017   3.746  20.280  0.00  0.00    +0.000 HD
ENDBRANCH   5  14
BRANCH   7  16
ATOM     16  O   UNL     1       4.007   1.682  17.770  0.00  0.00    +0.000 OA
ATOM     17  H   UNL     1       4.543   2.134  17.091  0.00  0.00    +0.000 HD
ENDBRANCH   7  16
TORSDOF 5
ENDMDL
