MODEL 1
REMARK VINA RESULT:      -7.3      0.000      0.000
REMARK  Name = 
REMARK  5 active torsions:
REMARK  status: ('A' for Active; 'I' for Inactive)
REMARK    1  A    between atoms: C_1  and  O_2
REMARK    2  A    between atoms: O_2  and  C_3
REMARK    3  A    between atoms: C_7  and  C_8
REMARK    4  A    between atoms: C_12  and  C_13
REMARK    5  A    between atoms: C_13  and  C_14
REMARK                            x       y       z     vdW  Elec       q    Type
REMARK                         _______ _______ _______ _____ _____    ______ ____
ROOT
ATOM      1  C   UNL     1       4.129   3.873  17.568  0.00  0.00    +0.000 A 
ATOM      2  C   UNL     1       3.291   4.266  18.631  0.00  0.00    +0.000 A 
ATOM      3  C   UNL     1       2.997   5.622  18.759  0.00  0.00    +0.000 A 
ATOM      4  O   UNL     1       2.192   6.184  19.705  0.00  0.00    +0.000 OA
ATOM      5  C   UNL     1       2.121   7.524  19.430  0.00  0.00    +0.000 A 
ATOM      6  C   UNL     1       2.908   7.817  18.335  0.00  0.00    +0.000 A 
ATOM      7  C   UNL     1       3.483   6.598  17.902  0.00  0.00    +0.000 A 
ATOM      8  C   UNL     1       4.336   6.207  16.858  0.00  0.00    +0.000 A 
ATOM      9  C   UNL     1       4.647   4.844  16.691  0.00  0.00    +0.000 A 
ATOM     10 CL   UNL     1       5.623   4.498  15.305  0.00  0.00    +0.000 Cl
ENDROOT
BRANCH   5  11
ATOM     11  C   UNL     1       1.298   8.517  20.167  0.00  0.00    +0.000 A 
ATOM     12  C   UNL     1       0.902   9.747  19.667  0.00  0.00    +0.000 A 
ATOM     13  N   UNL     1       0.224  10.315  20.698  0.00  0.00    +0.000 N 
ATOM     14  N   UNL     1      -0.387  11.516  20.831  0.00  0.00    +0.000 NA
ATOM     15  C   UNL     1      -0.848  11.540  22.056  0.00  0.00    +0.000 A 
ATOM     16  S   UNL     1      -0.580  10.099  23.075  0.00  0.00    +0.000 S 
ATOM     17  C   UNL     1       0.235   9.434  21.729  0.00  0.00    +0.000 A 
ATOM     18  N   UNL     1       0.856   8.319  21.467  0.00  0.00    +0.000 NA
BRANCH  15  19
ATOM     19  C   UNL     1      -1.620  12.697  22.635  0.00  0.00    +0.000 C 
ATOM     20  C   UNL     1      -2.888  12.211  23.310  0.00  0.00    +0.000 C 
ATOM     21  F   UNL     1      -0.894  13.407  23.546  0.00  0.00    +0.000 F 
ENDBRANCH  15  19
ENDBRANCH   5  11
BRANCH   1  23
ATOM     22  C   UNL     1       3.408   1.704  18.308  0.00  0.00    +0.000 C 
ATOM     23  O   UNL     1       4.253   2.509  17.499  0.00  0.00    +0.000 OA
ENDBRANCH   1  23
TORSDOF 3
ENDMDL
MODEL 2
REMARK VINA RESULT:      -7.3      1.454      1.652
REMARK  Name = 
REMARK  5 active torsions:
REMARK  status: ('A' for Active; 'I' for Inactive)
REMARK    1  A    between atoms: C_1  and  O_2
REMARK    2  A    between atoms: O_2  and  C_3
REMARK    3  A    between atoms: C_7  and  C_8
REMARK    4  A    between atoms: C_12  and  C_13
REMARK    5  A    between atoms: C_13  and  C_14
REMARK                            x       y       z     vdW  Elec       q    Type
REMARK                         _______ _______ _______ _____ _____    ______ ____
ROOT
ATOM      1  C   UNL     1       3.859   4.243  18.599  0.00  0.00    +0.000 A 
ATOM      2  C   UNL     1       3.110   4.764  19.674  0.00  0.00    +0.000 A 
ATOM      3  C   UNL     1       2.684   6.088  19.588  0.00  0.00    +0.000 A 
ATOM      4  O   UNL     1       1.937   6.752  20.514  0.00  0.00    +0.000 OA
ATOM      5  C   UNL     1       1.686   8.000  20.009  0.00  0.00    +0.000 A 
ATOM      6  C   UNL     1       2.303   8.139  18.783  0.00  0.00    +0.000 A 
ATOM      7  C   UNL     1       2.956   6.913  18.508  0.00  0.00    +0.000 A 
ATOM      8  C   UNL     1       3.721   6.400  17.449  0.00  0.00    +0.000 A 
ATOM      9  C   UNL     1       4.160   5.063  17.496  0.00  0.00    +0.000 A 
ATOM     10 CL   UNL     1       5.002   4.537  16.079  0.00  0.00    +0.000 Cl
ENDROOT
BRANCH   5  11
ATOM     11  C   UNL     1       0.848   9.043  20.655  0.00  0.00    +0.000 A 
ATOM     12  C   UNL     1       0.557   9.102  22.009  0.00  0.00    +0.000 A 
ATOM     13  N   UNL     1      -0.266  10.176  22.120  0.00  0.00    +0.000 N 
ATOM     14  N   UNL     1      -0.896  10.733  23.181  0.00  0.00    +0.000 NA
ATOM     15  C   UNL     1      -1.586  11.732  22.694  0.00  0.00    +0.000 A 
ATOM     16  S   UNL     1      -1.473  12.046  20.940  0.00  0.00    +0.000 S 
ATOM     17  C   UNL     1      -0.422  10.701  20.878  0.00  0.00    +0.000 A 
ATOM     18  N   UNL     1       0.239  10.071  19.949  0.00  0.00    +0.000 NA
BRANCH  15  19
ATOM     19  C   UNL     1      -2.437  12.648  23.535  0.00  0.00    +0.000 C 
ATOM     20  C   UNL     1      -3.034  13.755  22.687  0.00  0.00    +0.000 C 
ATOM     21  F   UNL     1      -3.456  11.989  24.158  0.00  0.00    +0.000 F 
ENDBRANCH  15  19
ENDBRANCH   5  11
BRANCH   1  23
ATOM     22  C   UNL     1       4.160   2.378  20.083  0.00  0.00    +0.000 C 
ATOM     23  O   UNL     1       4.124   2.908  18.766  0.00  0.00    +0.000 OA
ENDBRANCH   1  23
TORSDOF 3
ENDMDL
MODEL 3
REMARK VINA RESULT:      -7.2      5.302      8.967
REMARK  Name = 
REMARK  5 active torsions:
REMARK  status: ('A' for Active; 'I' for Inactive)
REMARK    1  A    between atoms: C_1  and  O_2
REMARK    2  A    between atoms: O_2  and  C_3
REMARK    3  A    between atoms: C_7  and  C_8
REMARK    4  A    between atoms: C_12  and  C_13
REMARK    5  A    between atoms: C_13  and  C_14
REMARK                            x       y       z     vdW  Elec       q    Type
REMARK                         _______ _______ _______ _____ _____    ______ ____
ROOT
ATOM      1  C   UNL     1      -0.538  11.130  21.791  0.00  0.00    +0.000 A 
ATOM      2  C   UNL     1       0.199   9.928  21.787  0.00  0.00    +0.000 A 
ATOM      3  C   UNL     1       0.710   9.483  20.569  0.00  0.00    +0.000 A 
ATOM      4  O   UNL     1       1.459   8.362  20.374  0.00  0.00    +0.000 OA
ATOM      5  C   UNL     1       1.806   8.335  19.049  0.00  0.00    +0.000 A 
ATOM      6  C   UNL     1       1.247   9.415  18.399  0.00  0.00    +0.000 A 
ATOM      7  C   UNL     1       0.531  10.156  19.370  0.00  0.00    +0.000 A 
ATOM      8  C   UNL     1      -0.222  11.340  19.372  0.00  0.00    +0.000 A 
ATOM      9  C   UNL     1      -0.745  11.827  20.586  0.00  0.00    +0.000 A 
ATOM     10 CL   UNL     1      -1.561  13.346  20.456  0.00  0.00    +0.000 Cl
ENDROOT
BRANCH   5  11
ATOM     11  C   UNL     1       2.681   7.322  18.404  0.00  0.00    +0.000 A 
ATOM     12  C   UNL     1       3.676   7.605  17.480  0.00  0.00    +0.000 A 
ATOM     13  N   UNL     1       4.162   6.383  17.140  0.00  0.00    +0.000 N 
ATOM     14  N   UNL     1       5.129   5.999  16.273  0.00  0.00    +0.000 NA
ATOM     15  C   UNL     1       5.147   4.692  16.327  0.00  0.00    +0.000 A 
ATOM     16  S   UNL     1       4.014   3.887  17.447  0.00  0.00    +0.000 S 
ATOM     17  C   UNL     1       3.471   5.456  17.850  0.00  0.00    +0.000 A 
ATOM     18  N   UNL     1       2.570   5.960  18.646  0.00  0.00    +0.000 NA
BRANCH  15  19
ATOM     19  C   UNL     1       6.094   3.837  15.525  0.00  0.00    +0.000 C 
ATOM     20  C   UNL     1       5.888   4.060  14.038  0.00  0.00    +0.000 C 
ATOM     21  F   UNL     1       7.402   4.088  15.818  0.00  0.00    +0.000 F 
ENDBRANCH  15  19
ENDBRANCH   5  11
BRANCH   1  23
ATOM     22  C   UNL     1      -2.262  11.738  23.350  0.00  0.00    +0.000 C 
ATOM     23  O   UNL     1      -0.891  11.502  23.063  0.00  0.00    +0.000 OA
ENDBRANCH   1  23
TORSDOF 3
ENDMDL
MODEL 4
REMARK VINA RESULT:      -7.2      1.930      2.104
REMARK  Name = 
REMARK  5 active torsions:
REMARK  status: ('A' for Active; 'I' for Inactive)
REMARK    1  A    between atoms: C_1  and  O_2
REMARK    2  A    between atoms: O_2  and  C_3
REMARK    3  A    between atoms: C_7  and  C_8
REMARK    4  A    between atoms: C_12  and  C_13
REMARK    5  A    between atoms: C_13  and  C_14
REMARK                            x       y       z     vdW  Elec       q    Type
REMARK                         _______ _______ _______ _____ _____    ______ ____
ROOT
ATOM      1  C   UNL     1       4.745   4.453  18.811  0.00  0.00    +0.000 A 
ATOM      2  C   UNL     1       3.857   5.176  19.633  0.00  0.00    +0.000 A 
ATOM      3  C   UNL     1       3.302   6.346  19.118  0.00  0.00    +0.000 A 
ATOM      4  O   UNL     1       2.413   7.161  19.753  0.00  0.00    +0.000 OA
ATOM      5  C   UNL     1       2.077   8.154  18.872  0.00  0.00    +0.000 A 
ATOM      6  C   UNL     1       2.779   7.991  17.696  0.00  0.00    +0.000 A 
ATOM      7  C   UNL     1       3.578   6.832  17.849  0.00  0.00    +0.000 A 
ATOM      8  C   UNL     1       4.480   6.123  17.042  0.00  0.00    +0.000 A 
ATOM      9  C   UNL     1       5.052   4.930  17.524  0.00  0.00    +0.000 A 
ATOM     10 CL   UNL     1       6.063   4.110  16.384  0.00  0.00    +0.000 Cl
ENDROOT
BRANCH   5  11
ATOM     11  C   UNL     1       1.082   9.229  19.119  0.00  0.00    +0.000 A 
ATOM     12  C   UNL     1       0.667   9.655  20.372  0.00  0.00    +0.000 A 
ATOM     13  N   UNL     1      -0.269  10.601  20.102  0.00  0.00    +0.000 N 
ATOM     14  N   UNL     1      -1.044  11.367  20.905  0.00  0.00    +0.000 NA
ATOM     15  C   UNL     1      -1.789  12.079  20.097  0.00  0.00    +0.000 A 
ATOM     16  S   UNL     1      -1.553  11.864  18.340  0.00  0.00    +0.000 S 
ATOM     17  C   UNL     1      -0.367  10.705  18.753  0.00  0.00    +0.000 A 
ATOM     18  N   UNL     1       0.435   9.913  18.100  0.00  0.00    +0.000 NA
BRANCH  15  19
ATOM     19  C   UNL     1      -2.801  13.091  20.568  0.00  0.00    +0.000 C 
ATOM     20  C   UNL     1      -4.197  12.698  20.124  0.00  0.00    +0.000 C 
ATOM     21  F   UNL     1      -2.807  13.232  21.925  0.00  0.00    +0.000 F 
ENDBRANCH  15  19
ENDBRANCH   5  11
BRANCH   1  23
ATOM     22  C   UNL     1       4.139   2.329  19.759  0.00  0.00    +0.000 C 
ATOM     23  O   UNL     1       5.134   3.276  19.399  0.00  0.00    +0.000 OA
ENDBRANCH   1  23
TORSDOF 3
ENDMDL
MODEL 5
REMARK VINA RESULT:      -7.2      5.600      9.168
REMARK  Name = 
REMARK  5 active torsions:
REMARK  status: ('A' for Active; 'I' for Inactive)
REMARK    1  A    between atoms: C_1  and  O_2
REMARK    2  A    between atoms: O_2  and  C_3
REMARK    3  A    between atoms: C_7  and  C_8
REMARK    4  A    between atoms: C_12  and  C_13
REMARK    5  A    between atoms: C_13  and  C_14
REMARK                            x       y       z     vdW  Elec       q    Type
REMARK                         _______ _______ _______ _____ _____    ______ ____
ROOT
ATOM      1  C   UNL     1      -0.450  10.768  20.677  0.00  0.00    +0.000 A 
ATOM      2  C   UNL     1       0.253  10.500  19.485  0.00  0.00    +0.000 A 
ATOM      3  C   UNL     1       1.109   9.401  19.468  0.00  0.00    +0.000 A 
ATOM      4  O   UNL     1       1.850   8.976  18.405  0.00  0.00    +0.000 OA
ATOM      5  C   UNL     1       2.493   7.831  18.795  0.00  0.00    +0.000 A 
ATOM      6  C   UNL     1       2.190   7.551  20.111  0.00  0.00    +0.000 A 
ATOM      7  C   UNL     1       1.305   8.563  20.555  0.00  0.00    +0.000 A 
ATOM      8  C   UNL     1       0.622   8.845  21.748  0.00  0.00    +0.000 A 
ATOM      9  C   UNL     1      -0.260   9.941  21.800  0.00  0.00    +0.000 A 
ATOM     10 CL   UNL     1      -1.109  10.106  23.298  0.00  0.00    +0.000 Cl
ENDROOT
BRANCH   5  11
ATOM     11  C   UNL     1       3.359   6.988  17.931  0.00  0.00    +0.000 A 
ATOM     12  C   UNL     1       4.166   7.466  16.909  0.00  0.00    +0.000 A 
ATOM     13  N   UNL     1       4.719   6.344  16.380  0.00  0.00    +0.000 N 
ATOM     14  N   UNL     1       5.577   6.153  15.350  0.00  0.00    +0.000 NA
ATOM     15  C   UNL     1       5.741   4.857  15.266  0.00  0.00    +0.000 A 
ATOM     16  S   UNL     1       4.883   3.831  16.448  0.00  0.00    +0.000 S 
ATOM     17  C   UNL     1       4.247   5.284  17.082  0.00  0.00    +0.000 A 
ATOM     18  N   UNL     1       3.431   5.608  18.046  0.00  0.00    +0.000 NA
BRANCH  15  19
ATOM     19  C   UNL     1       6.638   4.193  14.254  0.00  0.00    +0.000 C 
ATOM     20  C   UNL     1       5.823   3.620  13.110  0.00  0.00    +0.000 C 
ATOM     21  F   UNL     1       7.563   5.049  13.734  0.00  0.00    +0.000 F 
ENDBRANCH  15  19
ENDBRANCH   5  11
BRANCH   1  23
ATOM     22  C   UNL     1      -0.944  13.101  20.972  0.00  0.00    +0.000 C 
ATOM     23  O   UNL     1      -1.328  11.810  20.524  0.00  0.00    +0.000 OA
ENDBRANCH   1  23
TORSDOF 3
ENDMDL
MODEL 6
REMARK VINA RESULT:      -7.1      5.364      9.048
REMARK  Name = 
REMARK  5 active torsions:
REMARK  status: ('A' for Active; 'I' for Inactive)
REMARK    1  A    between atoms: C_1  and  O_2
REMARK    2  A    between atoms: O_2  and  C_3
REMARK    3  A    between atoms: C_7  and  C_8
REMARK    4  A    between atoms: C_12  and  C_13
REMARK    5  A    between atoms: C_13  and  C_14
REMARK                            x       y       z     vdW  Elec       q    Type
REMARK                         _______ _______ _______ _____ _____    ______ ____
ROOT
ATOM      1  C   UNL     1      -0.969  11.708  20.745  0.00  0.00    +0.000 A 
ATOM      2  C   UNL     1      -0.197  11.252  19.658  0.00  0.00    +0.000 A 
ATOM      3  C   UNL     1       0.546  10.085  19.833  0.00  0.00    +0.000 A 
ATOM      4  O   UNL     1       1.330   9.485  18.894  0.00  0.00    +0.000 OA
ATOM      5  C   UNL     1       1.821   8.336  19.455  0.00  0.00    +0.000 A 
ATOM      6  C   UNL     1       1.379   8.227  20.757  0.00  0.00    +0.000 A 
ATOM      7  C   UNL     1       0.563   9.356  21.011  0.00  0.00    +0.000 A 
ATOM      8  C   UNL     1      -0.189   9.824  22.100  0.00  0.00    +0.000 A 
ATOM      9  C   UNL     1      -0.960  10.994  21.958  0.00  0.00    +0.000 A 
ATOM     10 CL   UNL     1      -1.914  11.395  23.344  0.00  0.00    +0.000 Cl
ENDROOT
BRANCH   5  11
ATOM     11  C   UNL     1       2.671   7.331  18.766  0.00  0.00    +0.000 A 
ATOM     12  C   UNL     1       3.531   7.606  17.714  0.00  0.00    +0.000 A 
ATOM     13  N   UNL     1       4.045   6.392  17.387  0.00  0.00    +0.000 N 
ATOM     14  N   UNL     1       4.924   6.005  16.432  0.00  0.00    +0.000 NA
ATOM     15  C   UNL     1       5.026   4.706  16.557  0.00  0.00    +0.000 A 
ATOM     16  S   UNL     1       4.084   3.917  17.851  0.00  0.00    +0.000 S 
ATOM     17  C   UNL     1       3.500   5.477  18.227  0.00  0.00    +0.000 A 
ATOM     18  N   UNL     1       2.671   5.983  19.097  0.00  0.00    +0.000 NA
BRANCH  15  19
ATOM     19  C   UNL     1       5.921   3.853  15.695  0.00  0.00    +0.000 C 
ATOM     20  C   UNL     1       5.718   4.178  14.227  0.00  0.00    +0.000 C 
ATOM     21  F   UNL     1       7.242   4.015  15.992  0.00  0.00    +0.000 F 
ENDBRANCH  15  19
ENDBRANCH   5  11
BRANCH   1  23
ATOM     22  C   UNL     1      -3.104  12.619  20.122  0.00  0.00    +0.000 C 
ATOM     23  O   UNL     1      -1.724  12.802  20.406  0.00  0.00    +0.000 OA
ENDBRANCH   1  23
TORSDOF 3
ENDMDL
MODEL 7
REMARK VINA RESULT:      -7.1      1.774      2.390
REMARK  Name = 
REMARK  5 active torsions:
REMARK  status: ('A' for Active; 'I' for Inactive)
REMARK    1  A    between atoms: C_1  and  O_2
REMARK    2  A    between atoms: O_2  and  C_3
REMARK    3  A    between atoms: C_7  and  C_8
REMARK    4  A    between atoms: C_12  and  C_13
REMARK    5  A    between atoms: C_13  and  C_14
REMARK                            x       y       z     vdW  Elec       q    Type
REMARK                         _______ _______ _______ _____ _____    ______ ____
ROOT
ATOM      1  C   UNL     1       4.456   4.319  18.235  0.00  0.00    +0.000 A 
ATOM      2  C   UNL     1       4.046   5.661  18.106  0.00  0.00    +0.000 A 
ATOM      3  C   UNL     1       3.126   6.152  19.031  0.00  0.00    +0.000 A 
ATOM      4  O   UNL     1       2.633   7.422  19.077  0.00  0.00    +0.000 OA
ATOM      5  C   UNL     1       1.817   7.497  20.174  0.00  0.00    +0.000 A 
ATOM      6  C   UNL     1       1.763   6.268  20.800  0.00  0.00    +0.000 A 
ATOM      7  C   UNL     1       2.598   5.393  20.064  0.00  0.00    +0.000 A 
ATOM      8  C   UNL     1       2.990   4.051  20.177  0.00  0.00    +0.000 A 
ATOM      9  C   UNL     1       3.926   3.523  19.267  0.00  0.00    +0.000 A 
ATOM     10 CL   UNL     1       4.393   1.888  19.589  0.00  0.00    +0.000 Cl
ENDROOT
BRANCH   5  11
ATOM     11  C   UNL     1       1.117   8.718  20.651  0.00  0.00    +0.000 A 
ATOM     12  C   UNL     1       0.787   8.978  21.972  0.00  0.00    +0.000 A 
ATOM     13  N   UNL     1       0.127  10.164  21.915  0.00  0.00    +0.000 N 
ATOM     14  N   UNL     1      -0.455  10.927  22.871  0.00  0.00    +0.000 NA
ATOM     15  C   UNL     1      -0.973  11.948  22.236  0.00  0.00    +0.000 A 
ATOM     16  S   UNL     1      -0.748  12.031  20.467  0.00  0.00    +0.000 S 
ATOM     17  C   UNL     1       0.097  10.553  20.616  0.00  0.00    +0.000 A 
ATOM     18  N   UNL     1       0.693   9.729  19.801  0.00  0.00    +0.000 NA
BRANCH  15  19
ATOM     19  C   UNL     1      -1.712  13.069  22.920  0.00  0.00    +0.000 C 
ATOM     20  C   UNL     1      -2.940  12.540  23.638  0.00  0.00    +0.000 C 
ATOM     21  F   UNL     1      -0.936  13.729  23.827  0.00  0.00    +0.000 F 
ENDBRANCH  15  19
ENDBRANCH   5  11
BRANCH   1  23
ATOM     22  C   UNL     1       6.680   4.675  17.398  0.00  0.00    +0.000 C 
ATOM     23  O   UNL     1       5.433   3.998  17.328  0.00  0.00    +0.000 OA
ENDBRANCH   1  23
TORSDOF 3
ENDMDL
MODEL 8
REMARK VINA RESULT:      -7.1      1.545      1.869
REMARK  Name = 
REMARK  5 active torsions:
REMARK  status: ('A' for Active; 'I' for Inactive)
REMARK    1  A    between atoms: C_1  and  O_2
REMARK    2  A    between atoms: O_2  and  C_3
REMARK    3  A    between atoms: C_7  and  C_8
REMARK    4  A    between atoms: C_12  and  C_13
REMARK    5  A    between atoms: C_13  and  C_14
REMARK                            x       y       z     vdW  Elec       q    Type
REMARK                         _______ _______ _______ _____ _____    ______ ____
ROOT
ATOM      1  C   UNL     1       3.066   4.024  19.184  0.00  0.00    +0.000 A 
ATOM      2  C   UNL     1       2.449   4.751  20.223  0.00  0.00    +0.000 A 
ATOM      3  C   UNL     1       2.233   6.113  20.023  0.00  0.00    +0.000 A 
ATOM      4  O   UNL     1       1.634   6.968  20.900  0.00  0.00    +0.000 OA
ATOM      5  C   UNL     1       1.564   8.190  20.286  0.00  0.00    +0.000 A 
ATOM      6  C   UNL     1       2.150   8.120  19.039  0.00  0.00    +0.000 A 
ATOM      7  C   UNL     1       2.591   6.786  18.866  0.00  0.00    +0.000 A 
ATOM      8  C   UNL     1       3.227   6.066  17.842  0.00  0.00    +0.000 A 
ATOM      9  C   UNL     1       3.452   4.685  18.003  0.00  0.00    +0.000 A 
ATOM     10 CL   UNL     1       4.148   3.908  16.623  0.00  0.00    +0.000 Cl
ENDROOT
BRANCH   5  11
ATOM     11  C   UNL     1       0.925   9.407  20.851  0.00  0.00    +0.000 A 
ATOM     12  C   UNL     1       0.368   9.496  22.118  0.00  0.00    +0.000 A 
ATOM     13  N   UNL     1      -0.130  10.759  22.166  0.00  0.00    +0.000 N 
ATOM     14  N   UNL     1      -0.801  11.434  23.129  0.00  0.00    +0.000 NA
ATOM     15  C   UNL     1      -1.063  12.609  22.614  0.00  0.00    +0.000 A 
ATOM     16  S   UNL     1      -0.482  12.942  20.960  0.00  0.00    +0.000 S 
ATOM     17  C   UNL     1       0.144  11.352  20.978  0.00  0.00    +0.000 A 
ATOM     18  N   UNL     1       0.795  10.593  20.143  0.00  0.00    +0.000 NA
BRANCH  15  19
ATOM     19  C   UNL     1      -1.793  13.699  23.354  0.00  0.00    +0.000 C 
ATOM     20  C   UNL     1      -3.129  13.196  23.869  0.00  0.00    +0.000 C 
ATOM     21  F   UNL     1      -1.081  14.182  24.412  0.00  0.00    +0.000 F 
ENDBRANCH  15  19
ENDBRANCH   5  11
BRANCH   1  23
ATOM     22  C   UNL     1       4.337   2.144  19.974  0.00  0.00    +0.000 C 
ATOM     23  O   UNL     1       3.125   2.684  19.470  0.00  0.00    +0.000 OA
ENDBRANCH   1  23
TORSDOF 3
ENDMDL
MODEL 9
REMARK VINA RESULT:      -6.7      1.511      1.726
REMARK  Name = 
REMARK  5 active torsions:
REMARK  status: ('A' for Active; 'I' for Inactive)
REMARK    1  A    between atoms: C_1  and  O_2
REMARK    2  A    between atoms: O_2  and  C_3
REMARK    3  A    between atoms: C_7  and  C_8
REMARK    4  A    between atoms: C_12  and  C_13
REMARK    5  A    between atoms: C_13  and  C_14
REMARK                            x       y       z     vdW  Elec       q    Type
REMARK                         _______ _______ _______ _____ _____    ______ ____
ROOT
ATOM      1  C   UNL     1       3.923   3.569  17.418  0.00  0.00    +0.000 A 
ATOM      2  C   UNL     1       2.963   4.197  18.238  0.00  0.00    +0.000 A 
ATOM      3  C   UNL     1       2.927   5.590  18.245  0.00  0.00    +0.000 A 
ATOM      4  O   UNL     1       2.060   6.367  18.955  0.00  0.00    +0.000 OA
ATOM      5  C   UNL     1       2.324   7.669  18.623  0.00  0.00    +0.000 A 
ATOM      6  C   UNL     1       3.379   7.720  17.736  0.00  0.00    +0.000 A 
ATOM      7  C   UNL     1       3.779   6.384  17.493  0.00  0.00    +0.000 A 
ATOM      8  C   UNL     1       4.748   5.757  16.696  0.00  0.00    +0.000 A 
ATOM      9  C   UNL     1       4.808   4.350  16.655  0.00  0.00    +0.000 A 
ATOM     10 CL   UNL     1       5.981   3.716  15.552  0.00  0.00    +0.000 Cl
ENDROOT
BRANCH   5  11
ATOM     11  C   UNL     1       1.573   8.856  19.110  0.00  0.00    +0.000 A 
ATOM     12  C   UNL     1       1.072   9.005  20.394  0.00  0.00    +0.000 A 
ATOM     13  N   UNL     1       0.431  10.202  20.355  0.00  0.00    +0.000 N 
ATOM     14  N   UNL     1      -0.269  10.889  21.290  0.00  0.00    +0.000 NA
ATOM     15  C   UNL     1      -0.693  11.970  20.686  0.00  0.00    +0.000 A 
ATOM     16  S   UNL     1      -0.235  12.203  18.976  0.00  0.00    +0.000 S 
ATOM     17  C   UNL     1       0.575  10.704  19.103  0.00  0.00    +0.000 A 
ATOM     18  N   UNL     1       1.270   9.944  18.304  0.00  0.00    +0.000 NA
BRANCH  15  19
ATOM     19  C   UNL     1      -1.510  13.038  21.363  0.00  0.00    +0.000 C 
ATOM     20  C   UNL     1      -1.038  13.250  22.790  0.00  0.00    +0.000 C 
ATOM     21  F   UNL     1      -1.452  14.235  20.711  0.00  0.00    +0.000 F 
ENDBRANCH  15  19
ENDBRANCH   5  11
BRANCH   1  23
ATOM     22  C   UNL     1       3.474   1.557  18.654  0.00  0.00    +0.000 C 
ATOM     23  O   UNL     1       3.781   2.204  17.428  0.00  0.00    +0.000 OA
ENDBRANCH   1  23
TORSDOF 3
ENDMDL
