MODEL 1
REMARK VINA RESULT:      -7.6      0.000      0.000
REMARK  Name = 
REMARK  3 active torsions:
REMARK  status: ('A' for Active; 'I' for Inactive)
REMARK    1  A    between atoms: C_2  and  C_3
REMARK    2  A    between atoms: C_3  and  C_4
REMARK    3  A    between atoms: C_4  and  N_5
REMARK                            x       y       z     vdW  Elec       q    Type
REMARK                         _______ _______ _______ _____ _____    ______ ____
ROOT
ATOM      1  C   UNL     1       6.343   5.549  18.815  0.00  0.00    +0.000 C 
ENDROOT
BRANCH   1   3
ATOM      2  O   UNL     1       4.883   6.868  17.447  0.00  0.00    +0.000 OA
ATOM      3  C   UNL     1       4.996   5.918  18.219  0.00  0.00    +0.000 C 
ATOM      4  N   UNL     1       3.906   5.132  18.592  0.00  0.00    +0.000 N 
ATOM      5  C   UNL     1       3.978   4.039  19.561  0.00  0.00    +0.000 C 
ATOM      6  C   UNL     1       4.187   2.691  18.875  0.00  0.00    +0.000 C 
ATOM      7  C   UNL     1       2.944   2.142  18.177  0.00  0.00    +0.000 C 
ATOM      8  C   UNL     1       2.292   3.084  17.164  0.00  0.00    +0.000 C 
ATOM      9  C   UNL     1       1.643   4.303  17.820  0.00  0.00    +0.000 C 
ATOM     10  C   UNL     1       2.601   5.473  18.033  0.00  0.00    +0.000 C 
ENDBRANCH   1   3
BRANCH   1  11
ATOM     11  C   UNL     1       7.162   4.751  17.813  0.00  0.00    +0.000 C 
BRANCH  11  12
ATOM     12  N   UNL     1       7.386   5.535  16.605  0.00  0.00    +0.000 N 
ATOM     13  C   UNL     1       7.043   4.968  15.388  0.00  0.00    +0.000 A 
ATOM     14  C   UNL     1       5.961   4.100  15.232  0.00  0.00    +0.000 A 
ATOM     15  C   UNL     1       5.668   3.576  13.977  0.00  0.00    +0.000 A 
ATOM     16  C   UNL     1       6.441   3.965  12.902  0.00  0.00    +0.000 A 
ATOM     17  F   UNL     1       6.184   3.496  11.675  0.00  0.00    +0.000 F 
ATOM     18  C   UNL     1       7.479   4.853  13.120  0.00  0.00    +0.000 A 
ATOM     19  N   UNL     1       7.800   5.353  14.339  0.00  0.00    +0.000 NA
ATOM     20  H   UNL     1       8.313   5.940  16.490  0.00  0.00    +0.000 HD
ENDBRANCH  11  12
ENDBRANCH   1  11
TORSDOF 3
ENDMDL
MODEL 2
REMARK VINA RESULT:      -7.6      3.343      4.620
REMARK  Name = 
REMARK  3 active torsions:
REMARK  status: ('A' for Active; 'I' for Inactive)
REMARK    1  A    between atoms: C_2  and  C_3
REMARK    2  A    between atoms: C_3  and  C_4
REMARK    3  A    between atoms: C_4  and  N_5
REMARK                            x       y       z     vdW  Elec       q    Type
REMARK                         _______ _______ _______ _____ _____    ______ ____
ROOT
ATOM      1  C   UNL     1       3.450   3.076  16.636  0.00  0.00    +0.000 C 
ENDROOT
BRANCH   1   3
ATOM      2  O   UNL     1       3.649   1.274  18.204  0.00  0.00    +0.000 OA
ATOM      3  C   UNL     1       3.106   2.340  17.919  0.00  0.00    +0.000 C 
ATOM      4  N   UNL     1       2.151   2.930  18.746  0.00  0.00    +0.000 N 
ATOM      5  C   UNL     1       1.427   4.157  18.416  0.00  0.00    +0.000 C 
ATOM      6  C   UNL     1       2.103   5.387  19.015  0.00  0.00    +0.000 C 
ATOM      7  C   UNL     1       1.905   5.542  20.522  0.00  0.00    +0.000 C 
ATOM      8  C   UNL     1       2.313   4.331  21.362  0.00  0.00    +0.000 C 
ATOM      9  C   UNL     1       1.395   3.128  21.153  0.00  0.00    +0.000 C 
ATOM     10  C   UNL     1       1.803   2.235  19.982  0.00  0.00    +0.000 C 
ENDBRANCH   1   3
BRANCH   1  11
ATOM     11  C   UNL     1       4.917   3.475  16.634  0.00  0.00    +0.000 C 
BRANCH  11  12
ATOM     12  N   UNL     1       5.340   3.849  17.978  0.00  0.00    +0.000 N 
ATOM     13  C   UNL     1       6.206   4.923  18.111  0.00  0.00    +0.000 A 
ATOM     14  C   UNL     1       6.179   6.032  17.264  0.00  0.00    +0.000 A 
ATOM     15  C   UNL     1       7.072   7.080  17.464  0.00  0.00    +0.000 A 
ATOM     16  C   UNL     1       7.944   7.010  18.532  0.00  0.00    +0.000 A 
ATOM     17  F   UNL     1       8.809   8.002  18.769  0.00  0.00    +0.000 F 
ATOM     18  C   UNL     1       7.897   5.897  19.352  0.00  0.00    +0.000 A 
ATOM     19  N   UNL     1       7.056   4.851  19.157  0.00  0.00    +0.000 NA
ATOM     20  H   UNL     1       5.705   3.103  18.565  0.00  0.00    +0.000 HD
ENDBRANCH  11  12
ENDBRANCH   1  11
TORSDOF 3
ENDMDL
MODEL 3
REMARK VINA RESULT:      -7.2      3.097      4.296
REMARK  Name = 
REMARK  3 active torsions:
REMARK  status: ('A' for Active; 'I' for Inactive)
REMARK    1  A    between atoms: C_2  and  C_3
REMARK    2  A    between atoms: C_3  and  C_4
REMARK    3  A    between atoms: C_4  and  N_5
REMARK                            x       y       z     vdW  Elec       q    Type
REMARK                         _______ _______ _______ _____ _____    ______ ____
ROOT
ATOM      1  C   UNL     1       3.984   3.760  16.761  0.00  0.00    +0.000 C 
ENDROOT
BRANCH   1   3
ATOM      2  O   UNL     1       3.806   1.623  17.832  0.00  0.00    +0.000 OA
ATOM      3  C   UNL     1       3.374   2.771  17.737  0.00  0.00    +0.000 C 
ATOM      4  N   UNL     1       2.308   3.227  18.512  0.00  0.00    +0.000 N 
ATOM      5  C   UNL     1       1.714   4.557  18.385  0.00  0.00    +0.000 C 
ATOM      6  C   UNL     1       2.320   5.541  19.383  0.00  0.00    +0.000 C 
ATOM      7  C   UNL     1       1.850   5.345  20.823  0.00  0.00    +0.000 C 
ATOM      8  C   UNL     1       2.039   3.936  21.386  0.00  0.00    +0.000 C 
ATOM      9  C   UNL     1       1.124   2.906  20.725  0.00  0.00    +0.000 C 
ATOM     10  C   UNL     1       1.704   2.289  19.454  0.00  0.00    +0.000 C 
ENDBRANCH   1   3
BRANCH   1  11
ATOM     11  C   UNL     1       5.400   3.340  16.401  0.00  0.00    +0.000 C 
BRANCH  11  12
ATOM     12  N   UNL     1       6.139   4.471  15.854  0.00  0.00    +0.000 N 
ATOM     13  C   UNL     1       6.770   5.327  16.743  0.00  0.00    +0.000 A 
ATOM     14  C   UNL     1       7.328   4.896  17.948  0.00  0.00    +0.000 A 
ATOM     15  C   UNL     1       7.957   5.810  18.787  0.00  0.00    +0.000 A 
ATOM     16  C   UNL     1       8.047   7.126  18.381  0.00  0.00    +0.000 A 
ATOM     17  F   UNL     1       8.656   8.034  19.151  0.00  0.00    +0.000 F 
ATOM     18  C   UNL     1       7.501   7.481  17.161  0.00  0.00    +0.000 A 
ATOM     19  N   UNL     1       6.857   6.613  16.341  0.00  0.00    +0.000 NA
ATOM     20  H   UNL     1       5.646   5.056  15.183  0.00  0.00    +0.000 HD
ENDBRANCH  11  12
ENDBRANCH   1  11
TORSDOF 3
ENDMDL
MODEL 4
REMARK VINA RESULT:      -7.1      1.572      2.252
REMARK  Name = 
REMARK  3 active torsions:
REMARK  status: ('A' for Active; 'I' for Inactive)
REMARK    1  A    between atoms: C_2  and  C_3
REMARK    2  A    between atoms: C_3  and  C_4
REMARK    3  A    between atoms: C_4  and  N_5
REMARK                            x       y       z     vdW  Elec       q    Type
REMARK                         _______ _______ _______ _____ _____    ______ ____
ROOT
ATOM      1  C   UNL     1       5.961   5.410  18.788  0.00  0.00    +0.000 C 
ENDROOT
BRANCH   1   3
ATOM      2  O   UNL     1       5.470   3.145  19.396  0.00  0.00    +0.000 OA
ATOM      3  C   UNL     1       5.030   4.242  19.058  0.00  0.00    +0.000 C 
ATOM      4  N   UNL     1       3.664   4.477  18.902  0.00  0.00    +0.000 N 
ATOM      5  C   UNL     1       3.098   5.741  18.435  0.00  0.00    +0.000 C 
ATOM      6  C   UNL     1       2.699   6.644  19.599  0.00  0.00    +0.000 C 
ATOM      7  C   UNL     1       1.425   6.212  20.322  0.00  0.00    +0.000 C 
ATOM      8  C   UNL     1       1.418   4.769  20.828  0.00  0.00    +0.000 C 
ATOM      9  C   UNL     1       1.375   3.743  19.696  0.00  0.00    +0.000 C 
ATOM     10  C   UNL     1       2.752   3.364  19.153  0.00  0.00    +0.000 C 
ENDBRANCH   1   3
BRANCH   1  11
ATOM     11  C   UNL     1       7.194   4.938  18.035  0.00  0.00    +0.000 C 
BRANCH  11  12
ATOM     12  N   UNL     1       7.357   5.701  16.804  0.00  0.00    +0.000 N 
ATOM     13  C   UNL     1       7.020   5.087  15.608  0.00  0.00    +0.000 A 
ATOM     14  C   UNL     1       5.981   4.162  15.495  0.00  0.00    +0.000 A 
ATOM     15  C   UNL     1       5.691   3.593  14.259  0.00  0.00    +0.000 A 
ATOM     16  C   UNL     1       6.424   3.992  13.160  0.00  0.00    +0.000 A 
ATOM     17  F   UNL     1       6.168   3.479  11.951  0.00  0.00    +0.000 F 
ATOM     18  C   UNL     1       7.420   4.935  13.336  0.00  0.00    +0.000 A 
ATOM     19  N   UNL     1       7.738   5.481  14.536  0.00  0.00    +0.000 NA
ATOM     20  H   UNL     1       8.260   6.149  16.661  0.00  0.00    +0.000 HD
ENDBRANCH  11  12
ENDBRANCH   1  11
TORSDOF 3
ENDMDL
MODEL 5
REMARK VINA RESULT:      -7.1      1.479      2.064
REMARK  Name = 
REMARK  3 active torsions:
REMARK  status: ('A' for Active; 'I' for Inactive)
REMARK    1  A    between atoms: C_2  and  C_3
REMARK    2  A    between atoms: C_3  and  C_4
REMARK    3  A    between atoms: C_4  and  N_5
REMARK                            x       y       z     vdW  Elec       q    Type
REMARK                         _______ _______ _______ _____ _____    ______ ____
ROOT
ATOM      1  C   UNL     1       5.387   4.885  17.552  0.00  0.00    +0.000 C 
ENDROOT
BRANCH   1   3
ATOM      2  O   UNL     1       5.793   4.551  19.889  0.00  0.00    +0.000 OA
ATOM      3  C   UNL     1       5.107   4.267  18.909  0.00  0.00    +0.000 C 
ATOM      4  N   UNL     1       4.043   3.369  18.985  0.00  0.00    +0.000 N 
ATOM      5  C   UNL     1       3.244   2.947  17.835  0.00  0.00    +0.000 C 
ATOM      6  C   UNL     1       1.981   3.790  17.687  0.00  0.00    +0.000 C 
ATOM      7  C   UNL     1       0.888   3.471  18.706  0.00  0.00    +0.000 C 
ATOM      8  C   UNL     1       1.322   3.535  20.171  0.00  0.00    +0.000 C 
ATOM      9  C   UNL     1       2.295   2.420  20.551  0.00  0.00    +0.000 C 
ATOM     10  C   UNL     1       3.760   2.760  20.282  0.00  0.00    +0.000 C 
ENDBRANCH   1   3
BRANCH   1  11
ATOM     11  C   UNL     1       6.861   4.755  17.207  0.00  0.00    +0.000 C 
BRANCH  11  12
ATOM     12  N   UNL     1       7.190   5.602  16.067  0.00  0.00    +0.000 N 
ATOM     13  C   UNL     1       7.112   5.046  14.799  0.00  0.00    +0.000 A 
ATOM     14  C   UNL     1       6.172   4.074  14.452  0.00  0.00    +0.000 A 
ATOM     15  C   UNL     1       6.144   3.568  13.157  0.00  0.00    +0.000 A 
ATOM     16  C   UNL     1       7.033   4.075  12.230  0.00  0.00    +0.000 A 
ATOM     17  F   UNL     1       7.031   3.626  10.970  0.00  0.00    +0.000 F 
ATOM     18  C   UNL     1       7.918   5.059  12.632  0.00  0.00    +0.000 A 
ATOM     19  N   UNL     1       7.982   5.545  13.897  0.00  0.00    +0.000 NA
ATOM     20  H   UNL     1       8.073   6.106  16.113  0.00  0.00    +0.000 HD
ENDBRANCH  11  12
ENDBRANCH   1  11
TORSDOF 3
ENDMDL
MODEL 6
REMARK VINA RESULT:      -7.0      3.289      4.353
REMARK  Name = 
REMARK  3 active torsions:
REMARK  status: ('A' for Active; 'I' for Inactive)
REMARK    1  A    between atoms: C_2  and  C_3
REMARK    2  A    between atoms: C_3  and  C_4
REMARK    3  A    between atoms: C_4  and  N_5
REMARK                            x       y       z     vdW  Elec       q    Type
REMARK                         _______ _______ _______ _____ _____    ______ ____
ROOT
ATOM      1  C   UNL     1       3.423   2.034  18.523  0.00  0.00    +0.000 C 
ENDROOT
BRANCH   1   3
ATOM      2  O   UNL     1       3.594   2.430  20.880  0.00  0.00    +0.000 OA
ATOM      3  C   UNL     1       3.083   2.760  19.812  0.00  0.00    +0.000 C 
ATOM      4  N   UNL     1       2.167   3.808  19.721  0.00  0.00    +0.000 N 
ATOM      5  C   UNL     1       1.480   4.191  18.489  0.00  0.00    +0.000 C 
ATOM      6  C   UNL     1       2.212   5.316  17.762  0.00  0.00    +0.000 C 
ATOM      7  C   UNL     1       2.053   6.690  18.410  0.00  0.00    +0.000 C 
ATOM      8  C   UNL     1       2.438   6.763  19.889  0.00  0.00    +0.000 C 
ATOM      9  C   UNL     1       1.474   5.994  20.791  0.00  0.00    +0.000 C 
ATOM     10  C   UNL     1       1.824   4.516  20.951  0.00  0.00    +0.000 C 
ENDBRANCH   1   3
BRANCH   1  11
ATOM     11  C   UNL     1       4.584   2.720  17.822  0.00  0.00    +0.000 C 
BRANCH  11  12
ATOM     12  N   UNL     1       5.381   3.471  18.783  0.00  0.00    +0.000 N 
ATOM     13  C   UNL     1       6.003   4.632  18.348  0.00  0.00    +0.000 A 
ATOM     14  C   UNL     1       5.448   5.475  17.384  0.00  0.00    +0.000 A 
ATOM     15  C   UNL     1       6.122   6.630  17.002  0.00  0.00    +0.000 A 
ATOM     16  C   UNL     1       7.317   6.933  17.624  0.00  0.00    +0.000 A 
ATOM     17  F   UNL     1       7.991   8.041  17.297  0.00  0.00    +0.000 F 
ATOM     18  C   UNL     1       7.796   6.070  18.593  0.00  0.00    +0.000 A 
ATOM     19  N   UNL     1       7.169   4.925  18.959  0.00  0.00    +0.000 NA
ATOM     20  H   UNL     1       6.076   2.946  19.309  0.00  0.00    +0.000 HD
ENDBRANCH  11  12
ENDBRANCH   1  11
TORSDOF 3
ENDMDL
MODEL 7
REMARK VINA RESULT:      -7.0      1.768      2.276
REMARK  Name = 
REMARK  3 active torsions:
REMARK  status: ('A' for Active; 'I' for Inactive)
REMARK    1  A    between atoms: C_2  and  C_3
REMARK    2  A    between atoms: C_3  and  C_4
REMARK    3  A    between atoms: C_4  and  N_5
REMARK                            x       y       z     vdW  Elec       q    Type
REMARK                         _______ _______ _______ _____ _____    ______ ____
ROOT
ATOM      1  C   UNL     1       4.806   5.001  17.565  0.00  0.00    +0.000 C 
ENDROOT
BRANCH   1   3
ATOM      2  O   UNL     1       4.471   2.651  17.232  0.00  0.00    +0.000 OA
ATOM      3  C   UNL     1       3.984   3.724  17.583  0.00  0.00    +0.000 C 
ATOM      4  N   UNL     1       2.662   3.833  18.013  0.00  0.00    +0.000 N 
ATOM      5  C   UNL     1       2.018   5.096  18.371  0.00  0.00    +0.000 C 
ATOM      6  C   UNL     1       2.092   5.359  19.873  0.00  0.00    +0.000 C 
ATOM      7  C   UNL     1       1.139   4.506  20.708  0.00  0.00    +0.000 C 
ATOM      8  C   UNL     1       1.255   2.997  20.494  0.00  0.00    +0.000 C 
ATOM      9  C   UNL     1       0.774   2.555  19.112  0.00  0.00    +0.000 C 
ATOM     10  C   UNL     1       1.854   2.616  18.033  0.00  0.00    +0.000 C 
ENDBRANCH   1   3
BRANCH   1  11
ATOM     11  C   UNL     1       6.267   4.684  17.293  0.00  0.00    +0.000 C 
BRANCH  11  12
ATOM     12  N   UNL     1       6.782   5.545  16.236  0.00  0.00    +0.000 N 
ATOM     13  C   UNL     1       6.857   5.026  14.953  0.00  0.00    +0.000 A 
ATOM     14  C   UNL     1       5.935   4.107  14.450  0.00  0.00    +0.000 A 
ATOM     15  C   UNL     1       6.065   3.637  13.147  0.00  0.00    +0.000 A 
ATOM     16  C   UNL     1       7.092   4.129  12.367  0.00  0.00    +0.000 A 
ATOM     17  F   UNL     1       7.245   3.714  11.104  0.00  0.00    +0.000 F 
ATOM     18  C   UNL     1       7.952   5.062  12.917  0.00  0.00    +0.000 A 
ATOM     19  N   UNL     1       7.861   5.511  14.193  0.00  0.00    +0.000 NA
ATOM     20  H   UNL     1       7.670   6.009  16.418  0.00  0.00    +0.000 HD
ENDBRANCH  11  12
ENDBRANCH   1  11
TORSDOF 3
ENDMDL
MODEL 8
REMARK VINA RESULT:      -7.0      2.896      3.897
REMARK  Name = 
REMARK  3 active torsions:
REMARK  status: ('A' for Active; 'I' for Inactive)
REMARK    1  A    between atoms: C_2  and  C_3
REMARK    2  A    between atoms: C_3  and  C_4
REMARK    3  A    between atoms: C_4  and  N_5
REMARK                            x       y       z     vdW  Elec       q    Type
REMARK                         _______ _______ _______ _____ _____    ______ ____
ROOT
ATOM      1  C   UNL     1       4.078   3.882  16.576  0.00  0.00    +0.000 C 
ENDROOT
BRANCH   1   3
ATOM      2  O   UNL     1       3.697   6.087  17.434  0.00  0.00    +0.000 OA
ATOM      3  C   UNL     1       3.718   4.879  17.663  0.00  0.00    +0.000 C 
ATOM      4  N   UNL     1       3.417   4.357  18.920  0.00  0.00    +0.000 N 
ATOM      5  C   UNL     1       3.497   2.937  19.259  0.00  0.00    +0.000 C 
ATOM      6  C   UNL     1       2.145   2.245  19.106  0.00  0.00    +0.000 C 
ATOM      7  C   UNL     1       1.145   2.568  20.214  0.00  0.00    +0.000 C 
ATOM      8  C   UNL     1       0.882   4.057  20.444  0.00  0.00    +0.000 C 
ATOM      9  C   UNL     1       2.088   4.788  21.031  0.00  0.00    +0.000 C 
ATOM     10  C   UNL     1       3.072   5.300  19.980  0.00  0.00    +0.000 C 
ENDBRANCH   1   3
BRANCH   1  11
ATOM     11  C   UNL     1       5.578   3.634  16.563  0.00  0.00    +0.000 C 
BRANCH  11  12
ATOM     12  N   UNL     1       6.275   4.785  16.003  0.00  0.00    +0.000 N 
ATOM     13  C   UNL     1       6.912   5.650  16.880  0.00  0.00    +0.000 A 
ATOM     14  C   UNL     1       7.513   5.224  18.065  0.00  0.00    +0.000 A 
ATOM     15  C   UNL     1       8.145   6.147  18.892  0.00  0.00    +0.000 A 
ATOM     16  C   UNL     1       8.194   7.467  18.493  0.00  0.00    +0.000 A 
ATOM     17  F   UNL     1       8.804   8.384  19.252  0.00  0.00    +0.000 F 
ATOM     18  C   UNL     1       7.605   7.817  17.291  0.00  0.00    +0.000 A 
ATOM     19  N   UNL     1       6.958   6.939  16.485  0.00  0.00    +0.000 NA
ATOM     20  H   UNL     1       5.750   5.363  15.350  0.00  0.00    +0.000 HD
ENDBRANCH  11  12
ENDBRANCH   1  11
TORSDOF 3
ENDMDL
MODEL 9
REMARK VINA RESULT:      -6.8      1.424      1.510
REMARK  Name = 
REMARK  3 active torsions:
REMARK  status: ('A' for Active; 'I' for Inactive)
REMARK    1  A    between atoms: C_2  and  C_3
REMARK    2  A    between atoms: C_3  and  C_4
REMARK    3  A    between atoms: C_4  and  N_5
REMARK                            x       y       z     vdW  Elec       q    Type
REMARK                         _______ _______ _______ _____ _____    ______ ____
ROOT
ATOM      1  C   UNL     1       5.413   4.997  18.507  0.00  0.00    +0.000 C 
ENDROOT
BRANCH   1   3
ATOM      2  O   UNL     1       3.665   6.614  18.772  0.00  0.00    +0.000 OA
ATOM      3  C   UNL     1       4.059   5.472  19.002  0.00  0.00    +0.000 C 
ATOM      4  N   UNL     1       3.296   4.556  19.725  0.00  0.00    +0.000 N 
ATOM      5  C   UNL     1       3.752   3.214  20.085  0.00  0.00    +0.000 C 
ATOM      6  C   UNL     1       3.288   2.172  19.071  0.00  0.00    +0.000 C 
ATOM      7  C   UNL     1       1.805   1.817  19.168  0.00  0.00    +0.000 C 
ATOM      8  C   UNL     1       0.843   3.003  19.090  0.00  0.00    +0.000 C 
ATOM      9  C   UNL     1       0.921   3.911  20.316  0.00  0.00    +0.000 C 
ATOM     10  C   UNL     1       1.993   4.996  20.214  0.00  0.00    +0.000 C 
ENDBRANCH   1   3
BRANCH   1  11
ATOM     11  C   UNL     1       5.310   4.515  17.069  0.00  0.00    +0.000 C 
BRANCH  11  12
ATOM     12  N   UNL     1       6.025   5.422  16.180  0.00  0.00    +0.000 N 
ATOM     13  C   UNL     1       6.365   4.962  14.917  0.00  0.00    +0.000 A 
ATOM     14  C   UNL     1       5.572   4.068  14.195  0.00  0.00    +0.000 A 
ATOM     15  C   UNL     1       5.970   3.657  12.927  0.00  0.00    +0.000 A 
ATOM     16  C   UNL     1       7.131   4.182  12.397  0.00  0.00    +0.000 A 
ATOM     17  F   UNL     1       7.542   3.824  11.175  0.00  0.00    +0.000 F 
ATOM     18  C   UNL     1       7.854   5.087  13.153  0.00  0.00    +0.000 A 
ATOM     19  N   UNL     1       7.500   5.478  14.402  0.00  0.00    +0.000 NA
ATOM     20  H   UNL     1       6.853   5.875  16.560  0.00  0.00    +0.000 HD
ENDBRANCH  11  12
ENDBRANCH   1  11
TORSDOF 3
ENDMDL
