MODEL 1
REMARK VINA RESULT:      -7.7      0.000      0.000
REMARK  Name = 
REMARK  7 active torsions:
REMARK  status: ('A' for Active; 'I' for Inactive)
REMARK    1  A    between atoms: C_1  and  O_2
REMARK    2  A    between atoms: O_2  and  C_3
REMARK    3  A    between atoms: C_3  and  C_4
REMARK    4  A    between atoms: C_5  and  C_6
REMARK    5  A    between atoms: C_6  and  O_7
REMARK    6  A    between atoms: C_6  and  C_8
REMARK    7  A    between atoms: C_6  and  C_14
REMARK                            x       y       z     vdW  Elec       q    Type
REMARK                         _______ _______ _______ _____ _____    ______ ____
ROOT
ATOM      1  C   UNL     1       5.517   5.895  16.191  0.00  0.00    +0.000 C 
ENDROOT
BRANCH   1   2
ATOM      2  C   UNL     1       6.684   6.440  17.059  0.00  0.00    +0.000 A 
ATOM      3  C   UNL     1       7.321   5.655  18.046  0.00  0.00    +0.000 A 
ATOM      4  C   UNL     1       8.172   6.230  19.004  0.00  0.00    +0.000 A 
ATOM      5  C   UNL     1       8.492   7.581  18.926  0.00  0.00    +0.000 A 
ATOM      6  C   UNL     1       7.999   8.341  17.874  0.00  0.00    +0.000 A 
ATOM      7  C   UNL     1       7.106   7.780  16.951  0.00  0.00    +0.000 A 
ENDBRANCH   1   2
BRANCH   1   8
ATOM      8  C   UNL     1       5.924   5.144  14.917  0.00  0.00    +0.000 A 
ATOM      9  C   UNL     1       5.103   4.213  14.245  0.00  0.00    +0.000 A 
ATOM     10  C   UNL     1       5.594   3.534  13.117  0.00  0.00    +0.000 A 
ATOM     11  C   UNL     1       6.844   3.853  12.638  0.00  0.00    +0.000 A 
ATOM     12  N   UNL     1       7.618   4.814  13.176  0.00  0.00    +0.000 NA
ATOM     13  C   UNL     1       7.134   5.428  14.289  0.00  0.00    +0.000 A 
ENDBRANCH   1   8
BRANCH   1  15
ATOM     14  C   UNL     1       3.893   4.158  17.712  0.00  0.00    +0.000 C 
ATOM     15  C   UNL     1       4.643   4.960  17.010  0.00  0.00    +0.000 C 
BRANCH  14  16
ATOM     16  C   UNL     1       3.019   3.222  18.532  0.00  0.00    +0.000 C 
ATOM     17  C   UNL     1       3.507   3.172  20.024  0.00  0.00    +0.000 C 
ATOM     18  N   UNL     1       2.479   3.646  20.999  0.00  0.00    +0.000 NA
ATOM     19  C   UNL     1       2.136   5.046  20.673  0.00  0.00    +0.000 C 
ATOM     20  C   UNL     1       1.563   5.179  19.254  0.00  0.00    +0.000 C 
ATOM     21  C   UNL     1       1.570   3.799  18.558  0.00  0.00    +0.000 C 
ATOM     22  C   UNL     1       0.690   2.877  19.425  0.00  0.00    +0.000 C 
ATOM     23  C   UNL     1       1.273   2.803  20.845  0.00  0.00    +0.000 C 
BRANCH  16  25
ATOM     24  C   UNL     1       3.840   0.946  18.475  0.00  0.00    +0.000 C 
ATOM     25  O   UNL     1       2.980   1.928  17.909  0.00  0.00    +0.000 OA
ENDBRANCH  16  25
ENDBRANCH  14  16
ENDBRANCH   1  15
BRANCH   1  26
ATOM     26  O   UNL     1       4.687   6.997  15.806  0.00  0.00    +0.000 OA
ATOM     27  H   UNL     1       5.031   7.773  16.280  0.00  0.00    +0.000 HD
ENDBRANCH   1  26
TORSDOF 6
ENDMDL
MODEL 2
REMARK VINA RESULT:      -7.5      2.116      4.432
REMARK  Name = 
REMARK  7 active torsions:
REMARK  status: ('A' for Active; 'I' for Inactive)
REMARK    1  A    between atoms: C_1  and  O_2
REMARK    2  A    between atoms: O_2  and  C_3
REMARK    3  A    between atoms: C_3  and  C_4
REMARK    4  A    between atoms: C_5  and  C_6
REMARK    5  A    between atoms: C_6  and  O_7
REMARK    6  A    between atoms: C_6  and  C_8
REMARK    7  A    between atoms: C_6  and  C_14
REMARK                            x       y       z     vdW  Elec       q    Type
REMARK                         _______ _______ _______ _____ _____    ______ ____
ROOT
ATOM      1  C   UNL     1       6.709   5.057  17.170  0.00  0.00    +0.000 C 
ENDROOT
BRANCH   1   2
ATOM      2  C   UNL     1       6.550   4.850  15.639  0.00  0.00    +0.000 A 
ATOM      3  C   UNL     1       5.411   4.232  15.076  0.00  0.00    +0.000 A 
ATOM      4  C   UNL     1       5.395   3.802  13.739  0.00  0.00    +0.000 A 
ATOM      5  C   UNL     1       6.475   4.079  12.909  0.00  0.00    +0.000 A 
ATOM      6  C   UNL     1       7.543   4.819  13.399  0.00  0.00    +0.000 A 
ATOM      7  C   UNL     1       7.582   5.201  14.748  0.00  0.00    +0.000 A 
ENDBRANCH   1   2
BRANCH   1   8
ATOM      8  C   UNL     1       7.284   6.410  17.607  0.00  0.00    +0.000 A 
ATOM      9  C   UNL     1       6.948   7.647  17.016  0.00  0.00    +0.000 A 
ATOM     10  C   UNL     1       7.576   8.825  17.452  0.00  0.00    +0.000 A 
ATOM     11  C   UNL     1       8.453   8.760  18.511  0.00  0.00    +0.000 A 
ATOM     12  N   UNL     1       8.719   7.624  19.182  0.00  0.00    +0.000 NA
ATOM     13  C   UNL     1       8.126   6.492  18.714  0.00  0.00    +0.000 A 
ENDBRANCH   1   8
BRANCH   1  15
ATOM     14  C   UNL     1       4.221   4.738  18.466  0.00  0.00    +0.000 C 
ATOM     15  C   UNL     1       5.370   4.886  17.868  0.00  0.00    +0.000 C 
BRANCH  14  16
ATOM     16  C   UNL     1       2.882   4.566  19.164  0.00  0.00    +0.000 C 
ATOM     17  C   UNL     1       1.742   4.294  18.118  0.00  0.00    +0.000 C 
ATOM     18  N   UNL     1       1.073   2.971  18.302  0.00  0.00    +0.000 NA
ATOM     19  C   UNL     1       2.091   1.908  18.161  0.00  0.00    +0.000 C 
ATOM     20  C   UNL     1       3.206   2.042  19.208  0.00  0.00    +0.000 C 
ATOM     21  C   UNL     1       2.960   3.300  20.072  0.00  0.00    +0.000 C 
ATOM     22  C   UNL     1       1.590   3.095  20.748  0.00  0.00    +0.000 C 
ATOM     23  C   UNL     1       0.509   2.925  19.668  0.00  0.00    +0.000 C 
BRANCH  16  25
ATOM     24  C   UNL     1       2.463   6.944  19.314  0.00  0.00    +0.000 C 
ATOM     25  O   UNL     1       2.620   5.706  19.998  0.00  0.00    +0.000 OA
ENDBRANCH  16  25
ENDBRANCH  14  16
ENDBRANCH   1  15
BRANCH   1  26
ATOM     26  O   UNL     1       7.568   4.030  17.679  0.00  0.00    +0.000 OA
ATOM     27  H   UNL     1       8.282   3.927  17.026  0.00  0.00    +0.000 HD
ENDBRANCH   1  26
TORSDOF 6
ENDMDL
MODEL 3
REMARK VINA RESULT:      -7.3      1.902      4.000
REMARK  Name = 
REMARK  7 active torsions:
REMARK  status: ('A' for Active; 'I' for Inactive)
REMARK    1  A    between atoms: C_1  and  O_2
REMARK    2  A    between atoms: O_2  and  C_3
REMARK    3  A    between atoms: C_3  and  C_4
REMARK    4  A    between atoms: C_5  and  C_6
REMARK    5  A    between atoms: C_6  and  O_7
REMARK    6  A    between atoms: C_6  and  C_8
REMARK    7  A    between atoms: C_6  and  C_14
REMARK                            x       y       z     vdW  Elec       q    Type
REMARK                         _______ _______ _______ _____ _____    ______ ____
ROOT
ATOM      1  C   UNL     1       7.020   4.849  16.935  0.00  0.00    +0.000 C 
ENDROOT
BRANCH   1   2
ATOM      2  C   UNL     1       6.750   4.728  15.411  0.00  0.00    +0.000 A 
ATOM      3  C   UNL     1       5.598   4.094  14.895  0.00  0.00    +0.000 A 
ATOM      4  C   UNL     1       5.497   3.745  13.539  0.00  0.00    +0.000 A 
ATOM      5  C   UNL     1       6.497   4.123  12.649  0.00  0.00    +0.000 A 
ATOM      6  C   UNL     1       7.567   4.880  13.105  0.00  0.00    +0.000 A 
ATOM      7  C   UNL     1       7.695   5.181  14.468  0.00  0.00    +0.000 A 
ENDBRANCH   1   2
BRANCH   1   8
ATOM      8  C   UNL     1       7.404   6.246  17.439  0.00  0.00    +0.000 A 
ATOM      9  C   UNL     1       6.953   7.453  16.864  0.00  0.00    +0.000 A 
ATOM     10  C   UNL     1       7.412   8.682  17.366  0.00  0.00    +0.000 A 
ATOM     11  C   UNL     1       8.236   8.687  18.469  0.00  0.00    +0.000 A 
ATOM     12  N   UNL     1       8.602   7.568  19.121  0.00  0.00    +0.000 NA
ATOM     13  C   UNL     1       8.174   6.390  18.591  0.00  0.00    +0.000 A 
ENDBRANCH   1   8
BRANCH   1  15
ATOM     14  C   UNL     1       4.753   4.020  18.400  0.00  0.00    +0.000 C 
ATOM     15  C   UNL     1       5.799   4.403  17.724  0.00  0.00    +0.000 C 
BRANCH  14  16
ATOM     16  C   UNL     1       3.534   3.572  19.190  0.00  0.00    +0.000 C 
ATOM     17  C   UNL     1       3.392   4.406  20.513  0.00  0.00    +0.000 C 
ATOM     18  N   UNL     1       2.124   5.192  20.586  0.00  0.00    +0.000 NA
ATOM     19  C   UNL     1       2.088   6.130  19.444  0.00  0.00    +0.000 C 
ATOM     20  C   UNL     1       2.131   5.393  18.097  0.00  0.00    +0.000 C 
ATOM     21  C   UNL     1       2.260   3.872  18.339  0.00  0.00    +0.000 C 
ATOM     22  C   UNL     1       1.018   3.461  19.154  0.00  0.00    +0.000 C 
ATOM     23  C   UNL     1       0.990   4.249  20.474  0.00  0.00    +0.000 C 
BRANCH  16  25
ATOM     24  C   UNL     1       3.696   1.346  18.254  0.00  0.00    +0.000 C 
ATOM     25  O   UNL     1       3.600   2.156  19.421  0.00  0.00    +0.000 OA
ENDBRANCH  16  25
ENDBRANCH  14  16
ENDBRANCH   1  15
BRANCH   1  26
ATOM     26  O   UNL     1       8.079   3.950  17.281  0.00  0.00    +0.000 OA
ATOM     27  H   UNL     1       8.535   3.738  16.448  0.00  0.00    +0.000 HD
ENDBRANCH   1  26
TORSDOF 6
ENDMDL
MODEL 4
REMARK VINA RESULT:      -7.3      0.366      1.010
REMARK  Name = 
REMARK  7 active torsions:
REMARK  status: ('A' for Active; 'I' for Inactive)
REMARK    1  A    between atoms: C_1  and  O_2
REMARK    2  A    between atoms: O_2  and  C_3
REMARK    3  A    between atoms: C_3  and  C_4
REMARK    4  A    between atoms: C_5  and  C_6
REMARK    5  A    between atoms: C_6  and  O_7
REMARK    6  A    between atoms: C_6  and  C_8
REMARK    7  A    between atoms: C_6  and  C_14
REMARK                            x       y       z     vdW  Elec       q    Type
REMARK                         _______ _______ _______ _____ _____    ______ ____
ROOT
ATOM      1  C   UNL     1       5.321   6.079  16.449  0.00  0.00    +0.000 C 
ENDROOT
BRANCH   1   2
ATOM      2  C   UNL     1       6.382   6.742  17.369  0.00  0.00    +0.000 A 
ATOM      3  C   UNL     1       6.787   8.086  17.208  0.00  0.00    +0.000 A 
ATOM      4  C   UNL     1       7.929   8.590  17.852  0.00  0.00    +0.000 A 
ATOM      5  C   UNL     1       8.625   7.794  18.755  0.00  0.00    +0.000 A 
ATOM      6  C   UNL     1       8.157   6.519  19.044  0.00  0.00    +0.000 A 
ATOM      7  C   UNL     1       7.049   5.997  18.362  0.00  0.00    +0.000 A 
ENDBRANCH   1   2
BRANCH   1   8
ATOM      8  C   UNL     1       5.867   5.341  15.221  0.00  0.00    +0.000 A 
ATOM      9  C   UNL     1       5.145   4.377  14.484  0.00  0.00    +0.000 A 
ATOM     10  C   UNL     1       5.759   3.715  13.407  0.00  0.00    +0.000 A 
ATOM     11  C   UNL     1       7.034   4.082  13.039  0.00  0.00    +0.000 A 
ATOM     12  N   UNL     1       7.720   5.073  13.637  0.00  0.00    +0.000 NA
ATOM     13  C   UNL     1       7.116   5.671  14.700  0.00  0.00    +0.000 A 
ENDBRANCH   1   8
BRANCH   1  15
ATOM     14  C   UNL     1       3.765   4.236  17.917  0.00  0.00    +0.000 C 
ATOM     15  C   UNL     1       4.483   5.087  17.239  0.00  0.00    +0.000 C 
BRANCH  14  16
ATOM     16  C   UNL     1       2.926   3.245  18.707  0.00  0.00    +0.000 C 
ATOM     17  C   UNL     1       3.499   3.065  20.158  0.00  0.00    +0.000 C 
ATOM     18  N   UNL     1       2.538   3.467  21.229  0.00  0.00    +0.000 NA
ATOM     19  C   UNL     1       2.199   4.894  21.041  0.00  0.00    +0.000 C 
ATOM     20  C   UNL     1       1.546   5.151  19.675  0.00  0.00    +0.000 C 
ATOM     21  C   UNL     1       1.490   3.834  18.868  0.00  0.00    +0.000 C 
ATOM     22  C   UNL     1       0.648   2.853  19.707  0.00  0.00    +0.000 C 
ATOM     23  C   UNL     1       1.312   2.653  21.079  0.00  0.00    +0.000 C 
BRANCH  16  25
ATOM     24  C   UNL     1       3.858   1.060  18.244  0.00  0.00    +0.000 C 
ATOM     25  O   UNL     1       2.829   2.008  17.983  0.00  0.00    +0.000 OA
ENDBRANCH  16  25
ENDBRANCH  14  16
ENDBRANCH   1  15
BRANCH   1  26
ATOM     26  O   UNL     1       4.423   7.094  15.989  0.00  0.00    +0.000 OA
ATOM     27  H   UNL     1       3.530   6.711  16.045  0.00  0.00    +0.000 HD
ENDBRANCH   1  26
TORSDOF 6
ENDMDL
MODEL 5
REMARK VINA RESULT:      -7.2      2.040      4.457
REMARK  Name = 
REMARK  7 active torsions:
REMARK  status: ('A' for Active; 'I' for Inactive)
REMARK    1  A    between atoms: C_1  and  O_2
REMARK    2  A    between atoms: O_2  and  C_3
REMARK    3  A    between atoms: C_3  and  C_4
REMARK    4  A    between atoms: C_5  and  C_6
REMARK    5  A    between atoms: C_6  and  O_7
REMARK    6  A    between atoms: C_6  and  C_8
REMARK    7  A    between atoms: C_6  and  C_14
REMARK                            x       y       z     vdW  Elec       q    Type
REMARK                         _______ _______ _______ _____ _____    ______ ____
ROOT
ATOM      1  C   UNL     1       6.826   4.999  17.408  0.00  0.00    +0.000 C 
ENDROOT
BRANCH   1   2
ATOM      2  C   UNL     1       6.776   4.606  15.906  0.00  0.00    +0.000 A 
ATOM      3  C   UNL     1       7.728   5.071  14.971  0.00  0.00    +0.000 A 
ATOM      4  C   UNL     1       7.521   4.943  13.588  0.00  0.00    +0.000 A 
ATOM      5  C   UNL     1       6.414   4.248  13.114  0.00  0.00    +0.000 A 
ATOM      6  C   UNL     1       5.544   3.650  14.016  0.00  0.00    +0.000 A 
ATOM      7  C   UNL     1       5.721   3.825  15.395  0.00  0.00    +0.000 A 
ENDBRANCH   1   2
BRANCH   1   8
ATOM      8  C   UNL     1       7.325   6.417  17.713  0.00  0.00    +0.000 A 
ATOM      9  C   UNL     1       8.298   6.727  18.687  0.00  0.00    +0.000 A 
ATOM     10  C   UNL     1       8.644   8.067  18.929  0.00  0.00    +0.000 A 
ATOM     11  C   UNL     1       8.081   9.052  18.149  0.00  0.00    +0.000 A 
ATOM     12  N   UNL     1       7.235   8.798  17.133  0.00  0.00    +0.000 NA
ATOM     13  C   UNL     1       6.890   7.495  16.946  0.00  0.00    +0.000 A 
ENDBRANCH   1   8
BRANCH   1  15
ATOM     14  C   UNL     1       4.270   4.735  18.577  0.00  0.00    +0.000 C 
ATOM     15  C   UNL     1       5.450   4.857  18.037  0.00  0.00    +0.000 C 
BRANCH  14  16
ATOM     16  C   UNL     1       2.894   4.592  19.207  0.00  0.00    +0.000 C 
ATOM     17  C   UNL     1       1.802   4.342  18.107  0.00  0.00    +0.000 C 
ATOM     18  N   UNL     1       1.096   3.034  18.258  0.00  0.00    +0.000 NA
ATOM     19  C   UNL     1       2.097   1.949  18.170  0.00  0.00    +0.000 C 
ATOM     20  C   UNL     1       3.162   2.062  19.271  0.00  0.00    +0.000 C 
ATOM     21  C   UNL     1       2.900   3.327  20.120  0.00  0.00    +0.000 C 
ATOM     22  C   UNL     1       1.494   3.153  20.727  0.00  0.00    +0.000 C 
ATOM     23  C   UNL     1       0.465   3.003  19.596  0.00  0.00    +0.000 C 
BRANCH  16  25
ATOM     24  C   UNL     1       2.501   6.977  19.331  0.00  0.00    +0.000 C 
ATOM     25  O   UNL     1       2.616   5.740  20.026  0.00  0.00    +0.000 OA
ENDBRANCH  16  25
ENDBRANCH  14  16
ENDBRANCH   1  15
BRANCH   1  26
ATOM     26  O   UNL     1       7.683   4.075  18.089  0.00  0.00    +0.000 OA
ATOM     27  H   UNL     1       7.251   3.206  18.021  0.00  0.00    +0.000 HD
ENDBRANCH   1  26
TORSDOF 6
ENDMDL
MODEL 6
REMARK VINA RESULT:      -7.2      2.039      4.160
REMARK  Name = 
REMARK  7 active torsions:
REMARK  status: ('A' for Active; 'I' for Inactive)
REMARK    1  A    between atoms: C_1  and  O_2
REMARK    2  A    between atoms: O_2  and  C_3
REMARK    3  A    between atoms: C_3  and  C_4
REMARK    4  A    between atoms: C_5  and  C_6
REMARK    5  A    between atoms: C_6  and  O_7
REMARK    6  A    between atoms: C_6  and  C_8
REMARK    7  A    between atoms: C_6  and  C_14
REMARK                            x       y       z     vdW  Elec       q    Type
REMARK                         _______ _______ _______ _____ _____    ______ ____
ROOT
ATOM      1  C   UNL     1       7.061   4.832  17.039  0.00  0.00    +0.000 C 
ENDROOT
BRANCH   1   2
ATOM      2  C   UNL     1       6.728   4.692  15.529  0.00  0.00    +0.000 A 
ATOM      3  C   UNL     1       5.526   4.104  15.072  0.00  0.00    +0.000 A 
ATOM      4  C   UNL     1       5.357   3.732  13.728  0.00  0.00    +0.000 A 
ATOM      5  C   UNL     1       6.339   4.041  12.793  0.00  0.00    +0.000 A 
ATOM      6  C   UNL     1       7.462   4.754  13.191  0.00  0.00    +0.000 A 
ATOM      7  C   UNL     1       7.656   5.076  14.541  0.00  0.00    +0.000 A 
ENDBRANCH   1   2
BRANCH   1   8
ATOM      8  C   UNL     1       7.434   6.241  17.515  0.00  0.00    +0.000 A 
ATOM      9  C   UNL     1       6.976   7.433  16.913  0.00  0.00    +0.000 A 
ATOM     10  C   UNL     1       7.424   8.675  17.391  0.00  0.00    +0.000 A 
ATOM     11  C   UNL     1       8.243   8.708  18.497  0.00  0.00    +0.000 A 
ATOM     12  N   UNL     1       8.615   7.606  19.174  0.00  0.00    +0.000 NA
ATOM     13  C   UNL     1       8.197   6.415  18.667  0.00  0.00    +0.000 A 
ENDBRANCH   1   8
BRANCH   1  15
ATOM     14  C   UNL     1       4.882   3.961  18.609  0.00  0.00    +0.000 C 
ATOM     15  C   UNL     1       5.888   4.363  17.884  0.00  0.00    +0.000 C 
BRANCH  14  16
ATOM     16  C   UNL     1       3.709   3.492  19.455  0.00  0.00    +0.000 C 
ATOM     17  C   UNL     1       2.770   4.697  19.818  0.00  0.00    +0.000 C 
ATOM     18  N   UNL     1       1.381   4.546  19.291  0.00  0.00    +0.000 NA
ATOM     19  C   UNL     1       1.449   4.443  17.817  0.00  0.00    +0.000 C 
ATOM     20  C   UNL     1       2.278   3.231  17.367  0.00  0.00    +0.000 C 
ATOM     21  C   UNL     1       2.852   2.504  18.604  0.00  0.00    +0.000 C 
ATOM     22  C   UNL     1       1.637   2.060  19.442  0.00  0.00    +0.000 C 
ATOM     23  C   UNL     1       0.812   3.295  19.839  0.00  0.00    +0.000 C 
BRANCH  16  25
ATOM     24  C   UNL     1       4.989   1.639  20.341  0.00  0.00    +0.000 C 
ATOM     25  O   UNL     1       4.196   2.790  20.610  0.00  0.00    +0.000 OA
ENDBRANCH  16  25
ENDBRANCH  14  16
ENDBRANCH   1  15
BRANCH   1  26
ATOM     26  O   UNL     1       8.156   3.961  17.344  0.00  0.00    +0.000 OA
ATOM     27  H   UNL     1       8.805   4.501  17.825  0.00  0.00    +0.000 HD
ENDBRANCH   1  26
TORSDOF 6
ENDMDL
MODEL 7
REMARK VINA RESULT:      -7.0      1.905      4.354
REMARK  Name = 
REMARK  7 active torsions:
REMARK  status: ('A' for Active; 'I' for Inactive)
REMARK    1  A    between atoms: C_1  and  O_2
REMARK    2  A    between atoms: O_2  and  C_3
REMARK    3  A    between atoms: C_3  and  C_4
REMARK    4  A    between atoms: C_5  and  C_6
REMARK    5  A    between atoms: C_6  and  O_7
REMARK    6  A    between atoms: C_6  and  C_8
REMARK    7  A    between atoms: C_6  and  C_14
REMARK                            x       y       z     vdW  Elec       q    Type
REMARK                         _______ _______ _______ _____ _____    ______ ____
ROOT
ATOM      1  C   UNL     1       6.581   4.928  16.837  0.00  0.00    +0.000 C 
ENDROOT
BRANCH   1   2
ATOM      2  C   UNL     1       6.563   4.794  15.290  0.00  0.00    +0.000 A 
ATOM      3  C   UNL     1       5.531   4.117  14.602  0.00  0.00    +0.000 A 
ATOM      4  C   UNL     1       5.661   3.762  13.250  0.00  0.00    +0.000 A 
ATOM      5  C   UNL     1       6.776   4.174  12.529  0.00  0.00    +0.000 A 
ATOM      6  C   UNL     1       7.732   4.971  13.144  0.00  0.00    +0.000 A 
ATOM      7  C   UNL     1       7.630   5.279  14.507  0.00  0.00    +0.000 A 
ENDBRANCH   1   2
BRANCH   1   8
ATOM      8  C   UNL     1       7.196   6.220  17.391  0.00  0.00    +0.000 A 
ATOM      9  C   UNL     1       8.051   6.278  18.512  0.00  0.00    +0.000 A 
ATOM     10  C   UNL     1       8.515   7.521  18.975  0.00  0.00    +0.000 A 
ATOM     11  C   UNL     1       8.190   8.658  18.271  0.00  0.00    +0.000 A 
ATOM     12  N   UNL     1       7.472   8.642  17.132  0.00  0.00    +0.000 NA
ATOM     13  C   UNL     1       7.005   7.430  16.728  0.00  0.00    +0.000 A 
ENDBRANCH   1   8
BRANCH   1  15
ATOM     14  C   UNL     1       3.959   4.735  17.868  0.00  0.00    +0.000 C 
ATOM     15  C   UNL     1       5.170   4.824  17.392  0.00  0.00    +0.000 C 
BRANCH  14  16
ATOM     16  C   UNL     1       2.548   4.632  18.422  0.00  0.00    +0.000 C 
ATOM     17  C   UNL     1       1.769   3.450  17.742  0.00  0.00    +0.000 C 
ATOM     18  N   UNL     1       1.336   2.393  18.705  0.00  0.00    +0.000 NA
ATOM     19  C   UNL     1       2.539   1.836  19.360  0.00  0.00    +0.000 C 
ATOM     20  C   UNL     1       3.321   2.911  20.130  0.00  0.00    +0.000 C 
ATOM     21  C   UNL     1       2.640   4.286  19.941  0.00  0.00    +0.000 C 
ATOM     22  C   UNL     1       1.211   4.137  20.498  0.00  0.00    +0.000 C 
ATOM     23  C   UNL     1       0.477   3.026  19.729  0.00  0.00    +0.000 C 
BRANCH  16  25
ATOM     24  C   UNL     1       2.621   7.032  18.723  0.00  0.00    +0.000 C 
ATOM     25  O   UNL     1       1.881   5.898  18.286  0.00  0.00    +0.000 OA
ENDBRANCH  16  25
ENDBRANCH  14  16
ENDBRANCH   1  15
BRANCH   1  26
ATOM     26  O   UNL     1       7.314   3.824  17.379  0.00  0.00    +0.000 OA
ATOM     27  H   UNL     1       8.230   4.135  17.487  0.00  0.00    +0.000 HD
ENDBRANCH   1  26
TORSDOF 6
ENDMDL
MODEL 8
REMARK VINA RESULT:      -6.8      7.991     10.173
REMARK  Name = 
REMARK  7 active torsions:
REMARK  status: ('A' for Active; 'I' for Inactive)
REMARK    1  A    between atoms: C_1  and  O_2
REMARK    2  A    between atoms: O_2  and  C_3
REMARK    3  A    between atoms: C_3  and  C_4
REMARK    4  A    between atoms: C_5  and  C_6
REMARK    5  A    between atoms: C_6  and  O_7
REMARK    6  A    between atoms: C_6  and  C_8
REMARK    7  A    between atoms: C_6  and  C_14
REMARK                            x       y       z     vdW  Elec       q    Type
REMARK                         _______ _______ _______ _____ _____    ______ ____
ROOT
ATOM      1  C   UNL     1      -0.177  11.175  18.736  0.00  0.00    +0.000 C 
ENDROOT
BRANCH   1   2
ATOM      2  C   UNL     1       0.844  10.011  18.844  0.00  0.00    +0.000 A 
ATOM      3  C   UNL     1       1.698   9.653  17.776  0.00  0.00    +0.000 A 
ATOM      4  C   UNL     1       2.410   8.443  17.780  0.00  0.00    +0.000 A 
ATOM      5  C   UNL     1       2.371   7.619  18.899  0.00  0.00    +0.000 A 
ATOM      6  C   UNL     1       1.661   8.022  20.021  0.00  0.00    +0.000 A 
ATOM      7  C   UNL     1       0.906   9.203  19.997  0.00  0.00    +0.000 A 
ENDBRANCH   1   2
BRANCH   1   8
ATOM      8  C   UNL     1      -1.423  10.897  17.886  0.00  0.00    +0.000 A 
ATOM      9  C   UNL     1      -1.579   9.776  17.043  0.00  0.00    +0.000 A 
ATOM     10  C   UNL     1      -2.738   9.644  16.260  0.00  0.00    +0.000 A 
ATOM     11  C   UNL     1      -3.742  10.577  16.393  0.00  0.00    +0.000 A 
ATOM     12  N   UNL     1      -3.689  11.600  17.266  0.00  0.00    +0.000 NA
ATOM     13  C   UNL     1      -2.540  11.724  17.984  0.00  0.00    +0.000 A 
ENDBRANCH   1   8
BRANCH   1  15
ATOM     14  C   UNL     1      -1.064  11.943  21.304  0.00  0.00    +0.000 C 
ATOM     15  C   UNL     1      -0.654  11.589  20.118  0.00  0.00    +0.000 C 
BRANCH  14  16
ATOM     16  C   UNL     1      -1.542  12.355  22.687  0.00  0.00    +0.000 C 
ATOM     17  C   UNL     1      -1.114  13.832  23.005  0.00  0.00    +0.000 C 
ATOM     18  N   UNL     1      -2.271  14.747  23.239  0.00  0.00    +0.000 NA
ATOM     19  C   UNL     1      -3.109  14.762  22.021  0.00  0.00    +0.000 C 
ATOM     20  C   UNL     1      -3.650  13.366  21.682  0.00  0.00    +0.000 C 
ATOM     21  C   UNL     1      -3.102  12.335  22.695  0.00  0.00    +0.000 C 
ATOM     22  C   UNL     1      -3.592  12.794  24.082  0.00  0.00    +0.000 C 
ATOM     23  C   UNL     1      -3.064  14.210  24.366  0.00  0.00    +0.000 C 
BRANCH  16  25
ATOM     24  C   UNL     1      -0.821  10.097  23.175  0.00  0.00    +0.000 C 
ATOM     25  O   UNL     1      -1.072  11.410  23.662  0.00  0.00    +0.000 OA
ENDBRANCH  16  25
ENDBRANCH  14  16
ENDBRANCH   1  15
BRANCH   1  26
ATOM     26  O   UNL     1       0.490  12.313  18.178  0.00  0.00    +0.000 OA
ATOM     27  H   UNL     1       0.373  12.249  17.215  0.00  0.00    +0.000 HD
ENDBRANCH   1  26
TORSDOF 6
ENDMDL
MODEL 9
REMARK VINA RESULT:      -6.8      2.515      6.662
REMARK  Name = 
REMARK  7 active torsions:
REMARK  status: ('A' for Active; 'I' for Inactive)
REMARK    1  A    between atoms: C_1  and  O_2
REMARK    2  A    between atoms: O_2  and  C_3
REMARK    3  A    between atoms: C_3  and  C_4
REMARK    4  A    between atoms: C_5  and  C_6
REMARK    5  A    between atoms: C_6  and  O_7
REMARK    6  A    between atoms: C_6  and  C_8
REMARK    7  A    between atoms: C_6  and  C_14
REMARK                            x       y       z     vdW  Elec       q    Type
REMARK                         _______ _______ _______ _____ _____    ______ ____
ROOT
ATOM      1  C   UNL     1       2.771   6.175  19.574  0.00  0.00    +0.000 C 
ENDROOT
BRANCH   1   2
ATOM      2  C   UNL     1       1.956   7.495  19.487  0.00  0.00    +0.000 A 
ATOM      3  C   UNL     1       1.836   8.230  18.286  0.00  0.00    +0.000 A 
ATOM      4  C   UNL     1       1.342   9.544  18.276  0.00  0.00    +0.000 A 
ATOM      5  C   UNL     1       0.854  10.110  19.449  0.00  0.00    +0.000 A 
ATOM      6  C   UNL     1       0.821   9.352  20.612  0.00  0.00    +0.000 A 
ATOM      7  C   UNL     1       1.364   8.060  20.633  0.00  0.00    +0.000 A 
ENDBRANCH   1   2
BRANCH   1   8
ATOM      8  C   UNL     1       1.979   4.882  19.343  0.00  0.00    +0.000 A 
ATOM      9  C   UNL     1       1.277   4.186  20.350  0.00  0.00    +0.000 A 
ATOM     10  C   UNL     1       0.630   2.977  20.044  0.00  0.00    +0.000 A 
ATOM     11  C   UNL     1       0.625   2.534  18.741  0.00  0.00    +0.000 A 
ATOM     12  N   UNL     1       1.183   3.220  17.726  0.00  0.00    +0.000 NA
ATOM     13  C   UNL     1       1.834   4.368  18.056  0.00  0.00    +0.000 A 
ENDBRANCH   1   8
BRANCH   1  15
ATOM     14  C   UNL     1       4.894   6.209  17.714  0.00  0.00    +0.000 C 
ATOM     15  C   UNL     1       3.913   6.193  18.573  0.00  0.00    +0.000 C 
BRANCH  14  16
ATOM     16  C   UNL     1       6.037   6.228  16.712  0.00  0.00    +0.000 C 
ATOM     17  C   UNL     1       7.103   5.130  17.065  0.00  0.00    +0.000 C 
ATOM     18  N   UNL     1       7.276   4.106  15.992  0.00  0.00    +0.000 NA
ATOM     19  C   UNL     1       5.978   3.434  15.772  0.00  0.00    +0.000 C 
ATOM     20  C   UNL     1       4.889   4.425  15.333  0.00  0.00    +0.000 C 
ATOM     21  C   UNL     1       5.468   5.858  15.308  0.00  0.00    +0.000 C 
ATOM     22  C   UNL     1       6.631   5.833  14.297  0.00  0.00    +0.000 C 
ATOM     23  C   UNL     1       7.678   4.803  14.750  0.00  0.00    +0.000 C 
BRANCH  16  25
ATOM     24  C   UNL     1       7.664   7.817  17.541  0.00  0.00    +0.000 C 
ATOM     25  O   UNL     1       6.594   7.551  16.640  0.00  0.00    +0.000 OA
ENDBRANCH  16  25
ENDBRANCH  14  16
ENDBRANCH   1  15
BRANCH   1  26
ATOM     26  O   UNL     1       3.368   6.098  20.873  0.00  0.00    +0.000 OA
ATOM     27  H   UNL     1       4.250   5.709  20.742  0.00  0.00    +0.000 HD
ENDBRANCH   1  26
TORSDOF 6
ENDMDL
