MODEL 1
REMARK VINA RESULT:      -8.5      0.000      0.000
REMARK  Name = 
REMARK  9 active torsions:
REMARK  status: ('A' for Active; 'I' for Inactive)
REMARK    1  A    between atoms: C_1  and  C_2
REMARK    2  A    between atoms: C_2  and  O_3
REMARK    3  A    between atoms: O_3  and  C_4
REMARK    4  A    between atoms: C_4  and  C_6
REMARK    5  A    between atoms: N_8  and  C_9
REMARK    6  A    between atoms: C_9  and  C_10
REMARK    7  A    between atoms: C_13  and  C_14
REMARK    8  A    between atoms: C_14  and  O_16
REMARK    9  A    between atoms: O_16  and  C_17
REMARK                            x       y       z     vdW  Elec       q    Type
REMARK                         _______ _______ _______ _____ _____    ______ ____
ROOT
ATOM      1  C   UNL     1       2.336   4.299  18.206  0.00  0.00    +0.000 A 
ATOM      2  C   UNL     1       2.163   5.627  18.060  0.00  0.00    +0.000 A 
ATOM      3  N   UNL     1       3.134   6.557  17.690  0.00  0.00    +0.000 N 
ATOM      4  C   UNL     1       4.459   6.094  17.488  0.00  0.00    +0.000 A 
ATOM      5  C   UNL     1       5.554   6.932  17.217  0.00  0.00    +0.000 A 
ATOM      6  C   UNL     1       6.848   6.428  17.048  0.00  0.00    +0.000 A 
ATOM      7  C   UNL     1       7.089   5.061  17.116  0.00  0.00    +0.000 A 
ATOM      8  C   UNL     1       6.031   4.199  17.357  0.00  0.00    +0.000 A 
ATOM      9  C   UNL     1       4.738   4.712  17.552  0.00  0.00    +0.000 A 
ATOM     10  C   UNL     1       3.660   3.749  17.846  0.00  0.00    +0.000 A 
ATOM     11  O   UNL     1       3.883   2.547  17.788  0.00  0.00    +0.000 OA
ENDROOT
BRANCH   1  12
ATOM     12  C   UNL     1       1.264   3.498  18.837  0.00  0.00    +0.000 C 
ATOM     13  O   UNL     1       0.690   2.567  18.276  0.00  0.00    +0.000 OA
BRANCH  12  14
ATOM     14  O   UNL     1       0.882   4.066  20.005  0.00  0.00    +0.000 OA
BRANCH  14  16
ATOM     15  C   UNL     1       1.645   2.583  21.702  0.00  0.00    +0.000 C 
ATOM     16  C   UNL     1       1.802   3.967  21.099  0.00  0.00    +0.000 C 
ENDBRANCH  14  16
ENDBRANCH  12  14
ENDBRANCH   1  12
BRANCH   3  17
ATOM     17  C   UNL     1       2.877   8.022  17.741  0.00  0.00    +0.000 C 
BRANCH  17  18
ATOM     18  C   UNL     1       1.964   8.399  18.901  0.00  0.00    +0.000 A 
ATOM     19  C   UNL     1       1.081   9.485  18.788  0.00  0.00    +0.000 A 
ATOM     20  C   UNL     1       0.420   9.983  19.914  0.00  0.00    +0.000 A 
ATOM     21  C   UNL     1       0.589   9.371  21.160  0.00  0.00    +0.000 A 
ATOM     22  C   UNL     1       1.358   8.205  21.251  0.00  0.00    +0.000 A 
ATOM     23  C   UNL     1       2.039   7.724  20.128  0.00  0.00    +0.000 A 
BRANCH  21  24
ATOM     24  C   UNL     1      -0.009  10.033  22.350  0.00  0.00    +0.000 C 
ATOM     25  O   UNL     1       0.300   9.756  23.499  0.00  0.00    +0.000 OA
BRANCH  24  26
ATOM     26  O   UNL     1      -0.954  10.933  21.978  0.00  0.00    +0.000 OA
ATOM     27  C   UNL     1      -1.649  11.522  23.077  0.00  0.00    +0.000 C 
ENDBRANCH  24  26
ENDBRANCH  21  24
ENDBRANCH  17  18
ENDBRANCH   3  17
TORSDOF 7
ENDMDL
MODEL 2
REMARK VINA RESULT:      -8.1      1.908      4.107
REMARK  Name = 
REMARK  9 active torsions:
REMARK  status: ('A' for Active; 'I' for Inactive)
REMARK    1  A    between atoms: C_1  and  C_2
REMARK    2  A    between atoms: C_2  and  O_3
REMARK    3  A    between atoms: O_3  and  C_4
REMARK    4  A    between atoms: C_4  and  C_6
REMARK    5  A    between atoms: N_8  and  C_9
REMARK    6  A    between atoms: C_9  and  C_10
REMARK    7  A    between atoms: C_13  and  C_14
REMARK    8  A    between atoms: C_14  and  O_16
REMARK    9  A    between atoms: O_16  and  C_17
REMARK                            x       y       z     vdW  Elec       q    Type
REMARK                         _______ _______ _______ _____ _____    ______ ____
ROOT
ATOM      1  C   UNL     1       5.541   5.150  18.998  0.00  0.00    +0.000 A 
ATOM      2  C   UNL     1       4.796   6.168  18.525  0.00  0.00    +0.000 A 
ATOM      3  N   UNL     1       3.446   6.123  18.180  0.00  0.00    +0.000 N 
ATOM      4  C   UNL     1       2.773   4.878  18.281  0.00  0.00    +0.000 A 
ATOM      5  C   UNL     1       1.447   4.664  17.869  0.00  0.00    +0.000 A 
ATOM      6  C   UNL     1       0.835   3.410  17.968  0.00  0.00    +0.000 A 
ATOM      7  C   UNL     1       1.520   2.328  18.510  0.00  0.00    +0.000 A 
ATOM      8  C   UNL     1       2.822   2.505  18.951  0.00  0.00    +0.000 A 
ATOM      9  C   UNL     1       3.441   3.760  18.825  0.00  0.00    +0.000 A 
ATOM     10  C   UNL     1       4.841   3.876  19.274  0.00  0.00    +0.000 A 
ATOM     11  O   UNL     1       5.378   2.939  19.849  0.00  0.00    +0.000 OA
ENDROOT
BRANCH   1  12
ATOM     12  C   UNL     1       7.009   5.308  19.081  0.00  0.00    +0.000 C 
ATOM     13  O   UNL     1       7.625   5.392  20.141  0.00  0.00    +0.000 OA
BRANCH  12  14
ATOM     14  O   UNL     1       7.523   5.550  17.853  0.00  0.00    +0.000 OA
BRANCH  14  16
ATOM     15  C   UNL     1       7.007   5.021  15.590  0.00  0.00    +0.000 C 
ATOM     16  C   UNL     1       7.492   4.466  16.917  0.00  0.00    +0.000 C 
ENDBRANCH  14  16
ENDBRANCH  12  14
ENDBRANCH   1  12
BRANCH   3  17
ATOM     17  C   UNL     1       2.772   7.258  17.494  0.00  0.00    +0.000 C 
BRANCH  17  18
ATOM     18  C   UNL     1       1.979   8.119  18.468  0.00  0.00    +0.000 A 
ATOM     19  C   UNL     1       1.415   9.335  18.048  0.00  0.00    +0.000 A 
ATOM     20  C   UNL     1       0.896  10.237  18.980  0.00  0.00    +0.000 A 
ATOM     21  C   UNL     1       0.884   9.918  20.342  0.00  0.00    +0.000 A 
ATOM     22  C   UNL     1       1.317   8.651  20.750  0.00  0.00    +0.000 A 
ATOM     23  C   UNL     1       1.859   7.760  19.819  0.00  0.00    +0.000 A 
BRANCH  21  24
ATOM     24  C   UNL     1       0.470  10.974  21.303  0.00  0.00    +0.000 C 
ATOM     25  O   UNL     1       0.252  12.131  20.977  0.00  0.00    +0.000 OA
BRANCH  24  26
ATOM     26  O   UNL     1       0.417  10.484  22.567  0.00  0.00    +0.000 OA
ATOM     27  C   UNL     1      -0.907  10.387  23.090  0.00  0.00    +0.000 C 
ENDBRANCH  24  26
ENDBRANCH  21  24
ENDBRANCH  17  18
ENDBRANCH   3  17
TORSDOF 7
ENDMDL
MODEL 3
REMARK VINA RESULT:      -8.1      0.509      1.063
REMARK  Name = 
REMARK  9 active torsions:
REMARK  status: ('A' for Active; 'I' for Inactive)
REMARK    1  A    between atoms: C_1  and  C_2
REMARK    2  A    between atoms: C_2  and  O_3
REMARK    3  A    between atoms: O_3  and  C_4
REMARK    4  A    between atoms: C_4  and  C_6
REMARK    5  A    between atoms: N_8  and  C_9
REMARK    6  A    between atoms: C_9  and  C_10
REMARK    7  A    between atoms: C_13  and  C_14
REMARK    8  A    between atoms: C_14  and  O_16
REMARK    9  A    between atoms: O_16  and  C_17
REMARK                            x       y       z     vdW  Elec       q    Type
REMARK                         _______ _______ _______ _____ _____    ______ ____
ROOT
ATOM      1  C   UNL     1       2.278   4.164  18.271  0.00  0.00    +0.000 A 
ATOM      2  C   UNL     1       2.025   5.457  17.992  0.00  0.00    +0.000 A 
ATOM      3  N   UNL     1       2.954   6.424  17.610  0.00  0.00    +0.000 N 
ATOM      4  C   UNL     1       4.321   6.049  17.549  0.00  0.00    +0.000 A 
ATOM      5  C   UNL     1       5.372   6.943  17.284  0.00  0.00    +0.000 A 
ATOM      6  C   UNL     1       6.707   6.527  17.257  0.00  0.00    +0.000 A 
ATOM      7  C   UNL     1       7.038   5.194  17.468  0.00  0.00    +0.000 A 
ATOM      8  C   UNL     1       6.027   4.276  17.708  0.00  0.00    +0.000 A 
ATOM      9  C   UNL     1       4.690   4.703  17.760  0.00  0.00    +0.000 A 
ATOM     10  C   UNL     1       3.663   3.688  18.061  0.00  0.00    +0.000 A 
ATOM     11  O   UNL     1       3.973   2.507  18.129  0.00  0.00    +0.000 OA
ENDROOT
BRANCH   1  12
ATOM     12  C   UNL     1       1.218   3.339  18.892  0.00  0.00    +0.000 C 
ATOM     13  O   UNL     1       0.691   2.377  18.337  0.00  0.00    +0.000 OA
BRANCH  12  14
ATOM     14  O   UNL     1       0.788   3.918  20.037  0.00  0.00    +0.000 OA
BRANCH  14  16
ATOM     15  C   UNL     1       1.900   2.541  21.628  0.00  0.00    +0.000 C 
ATOM     16  C   UNL     1       1.719   3.962  21.125  0.00  0.00    +0.000 C 
ENDBRANCH  14  16
ENDBRANCH  12  14
ENDBRANCH   1  12
BRANCH   3  17
ATOM     17  C   UNL     1       2.592   7.864  17.507  0.00  0.00    +0.000 C 
BRANCH  17  18
ATOM     18  C   UNL     1       2.032   8.403  18.817  0.00  0.00    +0.000 A 
ATOM     19  C   UNL     1       2.168   7.667  20.006  0.00  0.00    +0.000 A 
ATOM     20  C   UNL     1       1.458   8.033  21.153  0.00  0.00    +0.000 A 
ATOM     21  C   UNL     1       0.643   9.169  21.147  0.00  0.00    +0.000 A 
ATOM     22  C   UNL     1       0.613   9.983  20.008  0.00  0.00    +0.000 A 
ATOM     23  C   UNL     1       1.304   9.601  18.854  0.00  0.00    +0.000 A 
BRANCH  21  24
ATOM     24  C   UNL     1      -0.211   9.423  22.338  0.00  0.00    +0.000 C 
ATOM     25  O   UNL     1      -1.025   8.618  22.764  0.00  0.00    +0.000 OA
BRANCH  24  26
ATOM     26  O   UNL     1       0.013  10.664  22.837  0.00  0.00    +0.000 OA
ATOM     27  C   UNL     1      -1.155  11.483  22.882  0.00  0.00    +0.000 C 
ENDBRANCH  24  26
ENDBRANCH  21  24
ENDBRANCH  17  18
ENDBRANCH   3  17
TORSDOF 7
ENDMDL
MODEL 4
REMARK VINA RESULT:      -8.0      1.891      4.148
REMARK  Name = 
REMARK  9 active torsions:
REMARK  status: ('A' for Active; 'I' for Inactive)
REMARK    1  A    between atoms: C_1  and  C_2
REMARK    2  A    between atoms: C_2  and  O_3
REMARK    3  A    between atoms: O_3  and  C_4
REMARK    4  A    between atoms: C_4  and  C_6
REMARK    5  A    between atoms: N_8  and  C_9
REMARK    6  A    between atoms: C_9  and  C_10
REMARK    7  A    between atoms: C_13  and  C_14
REMARK    8  A    between atoms: C_14  and  O_16
REMARK    9  A    between atoms: O_16  and  C_17
REMARK                            x       y       z     vdW  Elec       q    Type
REMARK                         _______ _______ _______ _____ _____    ______ ____
ROOT
ATOM      1  C   UNL     1       5.301   5.086  19.164  0.00  0.00    +0.000 A 
ATOM      2  C   UNL     1       4.436   6.056  18.811  0.00  0.00    +0.000 A 
ATOM      3  N   UNL     1       3.065   5.912  18.600  0.00  0.00    +0.000 N 
ATOM      4  C   UNL     1       2.505   4.613  18.712  0.00  0.00    +0.000 A 
ATOM      5  C   UNL     1       1.165   4.306  18.424  0.00  0.00    +0.000 A 
ATOM      6  C   UNL     1       0.665   3.003  18.527  0.00  0.00    +0.000 A 
ATOM      7  C   UNL     1       1.484   1.963  18.952  0.00  0.00    +0.000 A 
ATOM      8  C   UNL     1       2.807   2.231  19.270  0.00  0.00    +0.000 A 
ATOM      9  C   UNL     1       3.310   3.536  19.139  0.00  0.00    +0.000 A 
ATOM     10  C   UNL     1       4.735   3.750  19.452  0.00  0.00    +0.000 A 
ATOM     11  O   UNL     1       5.399   2.840  19.930  0.00  0.00    +0.000 OA
ENDROOT
BRANCH   1  12
ATOM     12  C   UNL     1       6.754   5.361  19.109  0.00  0.00    +0.000 C 
ATOM     13  O   UNL     1       7.461   5.488  20.107  0.00  0.00    +0.000 OA
BRANCH  12  14
ATOM     14  O   UNL     1       7.127   5.650  17.840  0.00  0.00    +0.000 OA
BRANCH  14  16
ATOM     15  C   UNL     1       6.623   4.645  15.743  0.00  0.00    +0.000 C 
ATOM     16  C   UNL     1       7.467   4.541  17.001  0.00  0.00    +0.000 C 
ENDBRANCH  14  16
ENDBRANCH  12  14
ENDBRANCH   1  12
BRANCH   3  17
ATOM     17  C   UNL     1       2.238   7.012  18.033  0.00  0.00    +0.000 C 
BRANCH  17  18
ATOM     18  C   UNL     1       1.875   8.050  19.088  0.00  0.00    +0.000 A 
ATOM     19  C   UNL     1       1.864   7.706  20.450  0.00  0.00    +0.000 A 
ATOM     20  C   UNL     1       1.308   8.571  21.396  0.00  0.00    +0.000 A 
ATOM     21  C   UNL     1       0.801   9.814  21.005  0.00  0.00    +0.000 A 
ATOM     22  C   UNL     1       0.936  10.218  19.671  0.00  0.00    +0.000 A 
ATOM     23  C   UNL     1       1.470   9.341  18.722  0.00  0.00    +0.000 A 
BRANCH  21  24
ATOM     24  C   UNL     1       0.078  10.625  22.021  0.00  0.00    +0.000 C 
ATOM     25  O   UNL     1      -0.121  10.246  23.164  0.00  0.00    +0.000 OA
BRANCH  24  26
ATOM     26  O   UNL     1      -0.354  11.795  21.487  0.00  0.00    +0.000 OA
ATOM     27  C   UNL     1      -1.734  12.063  21.732  0.00  0.00    +0.000 C 
ENDBRANCH  24  26
ENDBRANCH  21  24
ENDBRANCH  17  18
ENDBRANCH   3  17
TORSDOF 7
ENDMDL
MODEL 5
REMARK VINA RESULT:      -8.0      1.949      4.245
REMARK  Name = 
REMARK  9 active torsions:
REMARK  status: ('A' for Active; 'I' for Inactive)
REMARK    1  A    between atoms: C_1  and  C_2
REMARK    2  A    between atoms: C_2  and  O_3
REMARK    3  A    between atoms: O_3  and  C_4
REMARK    4  A    between atoms: C_4  and  C_6
REMARK    5  A    between atoms: N_8  and  C_9
REMARK    6  A    between atoms: C_9  and  C_10
REMARK    7  A    between atoms: C_13  and  C_14
REMARK    8  A    between atoms: C_14  and  O_16
REMARK    9  A    between atoms: O_16  and  C_17
REMARK                            x       y       z     vdW  Elec       q    Type
REMARK                         _______ _______ _______ _____ _____    ______ ____
ROOT
ATOM      1  C   UNL     1       5.479   6.023  17.570  0.00  0.00    +0.000 A 
ATOM      2  C   UNL     1       4.383   6.807  17.577  0.00  0.00    +0.000 A 
ATOM      3  N   UNL     1       3.143   6.500  18.136  0.00  0.00    +0.000 N 
ATOM      4  C   UNL     1       2.974   5.219  18.721  0.00  0.00    +0.000 A 
ATOM      5  C   UNL     1       1.753   4.739  19.225  0.00  0.00    +0.000 A 
ATOM      6  C   UNL     1       1.632   3.456  19.772  0.00  0.00    +0.000 A 
ATOM      7  C   UNL     1       2.736   2.617  19.861  0.00  0.00    +0.000 A 
ATOM      8  C   UNL     1       3.964   3.064  19.397  0.00  0.00    +0.000 A 
ATOM      9  C   UNL     1       4.075   4.342  18.825  0.00  0.00    +0.000 A 
ATOM     10  C   UNL     1       5.398   4.746  18.312  0.00  0.00    +0.000 A 
ATOM     11  O   UNL     1       6.372   4.032  18.506  0.00  0.00    +0.000 OA
ENDROOT
BRANCH   1  12
ATOM     12  C   UNL     1       6.632   6.402  16.725  0.00  0.00    +0.000 C 
ATOM     13  O   UNL     1       7.544   7.132  17.106  0.00  0.00    +0.000 OA
BRANCH  12  14
ATOM     14  O   UNL     1       6.423   6.008  15.446  0.00  0.00    +0.000 OA
BRANCH  14  16
ATOM     15  C   UNL     1       6.058   4.073  14.110  0.00  0.00    +0.000 C 
ATOM     16  C   UNL     1       7.026   4.771  15.048  0.00  0.00    +0.000 C 
ENDBRANCH  14  16
ENDBRANCH  12  14
ENDBRANCH   1  12
BRANCH   3  17
ATOM     17  C   UNL     1       1.951   7.364  17.923  0.00  0.00    +0.000 C 
BRANCH  17  18
ATOM     18  C   UNL     1       1.691   8.276  19.115  0.00  0.00    +0.000 A 
ATOM     19  C   UNL     1       1.867   7.802  20.426  0.00  0.00    +0.000 A 
ATOM     20  C   UNL     1       1.407   8.544  21.516  0.00  0.00    +0.000 A 
ATOM     21  C   UNL     1       0.812   9.795  21.320  0.00  0.00    +0.000 A 
ATOM     22  C   UNL     1       0.760  10.332  20.029  0.00  0.00    +0.000 A 
ATOM     23  C   UNL     1       1.198   9.577  18.936  0.00  0.00    +0.000 A 
BRANCH  21  24
ATOM     24  C   UNL     1       0.199  10.468  22.496  0.00  0.00    +0.000 C 
ATOM     25  O   UNL     1      -0.013   9.904  23.558  0.00  0.00    +0.000 OA
BRANCH  24  26
ATOM     26  O   UNL     1      -0.122  11.754  22.203  0.00  0.00    +0.000 OA
ATOM     27  C   UNL     1      -1.416  12.142  22.663  0.00  0.00    +0.000 C 
ENDBRANCH  24  26
ENDBRANCH  21  24
ENDBRANCH  17  18
ENDBRANCH   3  17
TORSDOF 7
ENDMDL
MODEL 6
REMARK VINA RESULT:      -8.0      2.014      4.332
REMARK  Name = 
REMARK  9 active torsions:
REMARK  status: ('A' for Active; 'I' for Inactive)
REMARK    1  A    between atoms: C_1  and  C_2
REMARK    2  A    between atoms: C_2  and  O_3
REMARK    3  A    between atoms: O_3  and  C_4
REMARK    4  A    between atoms: C_4  and  C_6
REMARK    5  A    between atoms: N_8  and  C_9
REMARK    6  A    between atoms: C_9  and  C_10
REMARK    7  A    between atoms: C_13  and  C_14
REMARK    8  A    between atoms: C_14  and  O_16
REMARK    9  A    between atoms: O_16  and  C_17
REMARK                            x       y       z     vdW  Elec       q    Type
REMARK                         _______ _______ _______ _____ _____    ______ ____
ROOT
ATOM      1  C   UNL     1       5.541   5.301  19.112  0.00  0.00    +0.000 A 
ATOM      2  C   UNL     1       4.773   6.284  18.603  0.00  0.00    +0.000 A 
ATOM      3  N   UNL     1       3.439   6.178  18.209  0.00  0.00    +0.000 N 
ATOM      4  C   UNL     1       2.816   4.907  18.296  0.00  0.00    +0.000 A 
ATOM      5  C   UNL     1       1.517   4.633  17.837  0.00  0.00    +0.000 A 
ATOM      6  C   UNL     1       0.955   3.355  17.923  0.00  0.00    +0.000 A 
ATOM      7  C   UNL     1       1.664   2.308  18.500  0.00  0.00    +0.000 A 
ATOM      8  C   UNL     1       2.940   2.543  18.987  0.00  0.00    +0.000 A 
ATOM      9  C   UNL     1       3.510   3.822  18.874  0.00  0.00    +0.000 A 
ATOM     10  C   UNL     1       4.886   4.001  19.374  0.00  0.00    +0.000 A 
ATOM     11  O   UNL     1       5.441   3.092  19.976  0.00  0.00    +0.000 OA
ENDROOT
BRANCH   1  12
ATOM     12  C   UNL     1       6.998   5.523  19.249  0.00  0.00    +0.000 C 
ATOM     13  O   UNL     1       7.637   5.241  20.259  0.00  0.00    +0.000 OA
BRANCH  12  14
ATOM     14  O   UNL     1       7.458   6.253  18.206  0.00  0.00    +0.000 OA
BRANCH  14  16
ATOM     15  C   UNL     1       7.822   8.519  17.575  0.00  0.00    +0.000 C 
ATOM     16  C   UNL     1       8.237   7.412  18.527  0.00  0.00    +0.000 C 
ENDBRANCH  14  16
ENDBRANCH  12  14
ENDBRANCH   1  12
BRANCH   3  17
ATOM     17  C   UNL     1       2.744   7.279  17.488  0.00  0.00    +0.000 C 
BRANCH  17  18
ATOM     18  C   UNL     1       2.152   8.302  18.450  0.00  0.00    +0.000 A 
ATOM     19  C   UNL     1       1.839   7.939  19.770  0.00  0.00    +0.000 A 
ATOM     20  C   UNL     1       1.083   8.790  20.580  0.00  0.00    +0.000 A 
ATOM     21  C   UNL     1       0.673  10.040  20.103  0.00  0.00    +0.000 A 
ATOM     22  C   UNL     1       1.101  10.463  18.839  0.00  0.00    +0.000 A 
ATOM     23  C   UNL     1       1.836   9.599  18.021  0.00  0.00    +0.000 A 
BRANCH  21  24
ATOM     24  C   UNL     1      -0.259  10.837  20.944  0.00  0.00    +0.000 C 
ATOM     25  O   UNL     1      -1.231  11.425  20.496  0.00  0.00    +0.000 OA
BRANCH  24  26
ATOM     26  O   UNL     1       0.147  10.848  22.238  0.00  0.00    +0.000 OA
ATOM     27  C   UNL     1      -0.865  10.443  23.161  0.00  0.00    +0.000 C 
ENDBRANCH  24  26
ENDBRANCH  21  24
ENDBRANCH  17  18
ENDBRANCH   3  17
TORSDOF 7
ENDMDL
MODEL 7
REMARK VINA RESULT:      -8.0      0.789      1.035
REMARK  Name = 
REMARK  9 active torsions:
REMARK  status: ('A' for Active; 'I' for Inactive)
REMARK    1  A    between atoms: C_1  and  C_2
REMARK    2  A    between atoms: C_2  and  O_3
REMARK    3  A    between atoms: O_3  and  C_4
REMARK    4  A    between atoms: C_4  and  C_6
REMARK    5  A    between atoms: N_8  and  C_9
REMARK    6  A    between atoms: C_9  and  C_10
REMARK    7  A    between atoms: C_13  and  C_14
REMARK    8  A    between atoms: C_14  and  O_16
REMARK    9  A    between atoms: O_16  and  C_17
REMARK                            x       y       z     vdW  Elec       q    Type
REMARK                         _______ _______ _______ _____ _____    ______ ____
ROOT
ATOM      1  C   UNL     1       2.667   4.337  18.346  0.00  0.00    +0.000 A 
ATOM      2  C   UNL     1       2.475   5.604  17.932  0.00  0.00    +0.000 A 
ATOM      3  N   UNL     1       3.461   6.516  17.557  0.00  0.00    +0.000 N 
ATOM      4  C   UNL     1       4.817   6.112  17.659  0.00  0.00    +0.000 A 
ATOM      5  C   UNL     1       5.912   6.959  17.417  0.00  0.00    +0.000 A 
ATOM      6  C   UNL     1       7.233   6.518  17.555  0.00  0.00    +0.000 A 
ATOM      7  C   UNL     1       7.507   5.203  17.912  0.00  0.00    +0.000 A 
ATOM      8  C   UNL     1       6.454   4.330  18.135  0.00  0.00    +0.000 A 
ATOM      9  C   UNL     1       5.129   4.784  18.022  0.00  0.00    +0.000 A 
ATOM     10  C   UNL     1       4.051   3.819  18.311  0.00  0.00    +0.000 A 
ATOM     11  O   UNL     1       4.322   2.643  18.513  0.00  0.00    +0.000 OA
ENDROOT
BRANCH   1  12
ATOM     12  C   UNL     1       1.532   3.591  18.934  0.00  0.00    +0.000 C 
ATOM     13  O   UNL     1       0.936   2.688  18.351  0.00  0.00    +0.000 OA
BRANCH  12  14
ATOM     14  O   UNL     1       1.132   4.181  20.085  0.00  0.00    +0.000 OA
BRANCH  14  16
ATOM     15  C   UNL     1       1.813   2.692  21.811  0.00  0.00    +0.000 C 
ATOM     16  C   UNL     1       2.016   4.069  21.206  0.00  0.00    +0.000 C 
ENDBRANCH  14  16
ENDBRANCH  12  14
ENDBRANCH   1  12
BRANCH   3  17
ATOM     17  C   UNL     1       3.149   7.947  17.294  0.00  0.00    +0.000 C 
BRANCH  17  18
ATOM     18  C   UNL     1       2.106   8.488  18.264  0.00  0.00    +0.000 A 
ATOM     19  C   UNL     1       1.213   9.494  17.862  0.00  0.00    +0.000 A 
ATOM     20  C   UNL     1       0.422  10.159  18.802  0.00  0.00    +0.000 A 
ATOM     21  C   UNL     1       0.470   9.793  20.151  0.00  0.00    +0.000 A 
ATOM     22  C   UNL     1       1.254   8.699  20.535  0.00  0.00    +0.000 A 
ATOM     23  C   UNL     1       2.064   8.052  19.597  0.00  0.00    +0.000 A 
BRANCH  21  24
ATOM     24  C   UNL     1      -0.270  10.634  21.129  0.00  0.00    +0.000 C 
ATOM     25  O   UNL     1      -1.188  11.377  20.817  0.00  0.00    +0.000 OA
BRANCH  24  26
ATOM     26  O   UNL     1       0.244  10.491  22.376  0.00  0.00    +0.000 OA
ATOM     27  C   UNL     1      -0.692   9.986  23.328  0.00  0.00    +0.000 C 
ENDBRANCH  24  26
ENDBRANCH  21  24
ENDBRANCH  17  18
ENDBRANCH   3  17
TORSDOF 7
ENDMDL
MODEL 8
REMARK VINA RESULT:      -8.0      2.357      4.525
REMARK  Name = 
REMARK  9 active torsions:
REMARK  status: ('A' for Active; 'I' for Inactive)
REMARK    1  A    between atoms: C_1  and  C_2
REMARK    2  A    between atoms: C_2  and  O_3
REMARK    3  A    between atoms: O_3  and  C_4
REMARK    4  A    between atoms: C_4  and  C_6
REMARK    5  A    between atoms: N_8  and  C_9
REMARK    6  A    between atoms: C_9  and  C_10
REMARK    7  A    between atoms: C_13  and  C_14
REMARK    8  A    between atoms: C_14  and  O_16
REMARK    9  A    between atoms: O_16  and  C_17
REMARK                            x       y       z     vdW  Elec       q    Type
REMARK                         _______ _______ _______ _____ _____    ______ ____
ROOT
ATOM      1  C   UNL     1       5.710   6.223  17.672  0.00  0.00    +0.000 A 
ATOM      2  C   UNL     1       4.530   6.859  17.537  0.00  0.00    +0.000 A 
ATOM      3  N   UNL     1       3.300   6.452  18.052  0.00  0.00    +0.000 N 
ATOM      4  C   UNL     1       3.246   5.220  18.755  0.00  0.00    +0.000 A 
ATOM      5  C   UNL     1       2.060   4.639  19.234  0.00  0.00    +0.000 A 
ATOM      6  C   UNL     1       2.056   3.409  19.901  0.00  0.00    +0.000 A 
ATOM      7  C   UNL     1       3.245   2.729  20.138  0.00  0.00    +0.000 A 
ATOM      8  C   UNL     1       4.439   3.282  19.702  0.00  0.00    +0.000 A 
ATOM      9  C   UNL     1       4.435   4.504  19.010  0.00  0.00    +0.000 A 
ATOM     10  C   UNL     1       5.732   5.022  18.534  0.00  0.00    +0.000 A 
ATOM     11  O   UNL     1       6.769   4.458  18.856  0.00  0.00    +0.000 OA
ENDROOT
BRANCH   1  12
ATOM     12  C   UNL     1       6.865   6.665  16.859  0.00  0.00    +0.000 C 
ATOM     13  O   UNL     1       7.518   5.913  16.140  0.00  0.00    +0.000 OA
BRANCH  12  14
ATOM     14  O   UNL     1       7.207   7.933  17.186  0.00  0.00    +0.000 OA
BRANCH  14  16
ATOM     15  C   UNL     1       8.549   9.567  18.280  0.00  0.00    +0.000 C 
ATOM     16  C   UNL     1       8.213   8.088  18.194  0.00  0.00    +0.000 C 
ENDBRANCH  14  16
ENDBRANCH  12  14
ENDBRANCH   1  12
BRANCH   3  17
ATOM     17  C   UNL     1       2.030   7.134  17.685  0.00  0.00    +0.000 C 
BRANCH  17  18
ATOM     18  C   UNL     1       1.785   8.374  18.536  0.00  0.00    +0.000 A 
ATOM     19  C   UNL     1       1.513   8.253  19.908  0.00  0.00    +0.000 A 
ATOM     20  C   UNL     1       1.055   9.351  20.641  0.00  0.00    +0.000 A 
ATOM     21  C   UNL     1       0.913  10.600  20.027  0.00  0.00    +0.000 A 
ATOM     22  C   UNL     1       1.315  10.757  18.696  0.00  0.00    +0.000 A 
ATOM     23  C   UNL     1       1.748   9.651  17.958  0.00  0.00    +0.000 A 
BRANCH  21  24
ATOM     24  C   UNL     1       0.274  11.692  20.808  0.00  0.00    +0.000 C 
ATOM     25  O   UNL     1       0.319  11.763  22.026  0.00  0.00    +0.000 OA
BRANCH  24  26
ATOM     26  O   UNL     1      -0.387  12.549  19.989  0.00  0.00    +0.000 OA
ATOM     27  C   UNL     1      -1.803  12.367  19.990  0.00  0.00    +0.000 C 
ENDBRANCH  24  26
ENDBRANCH  21  24
ENDBRANCH  17  18
ENDBRANCH   3  17
TORSDOF 7
ENDMDL
MODEL 9
REMARK VINA RESULT:      -7.9      2.330      4.625
REMARK  Name = 
REMARK  9 active torsions:
REMARK  status: ('A' for Active; 'I' for Inactive)
REMARK    1  A    between atoms: C_1  and  C_2
REMARK    2  A    between atoms: C_2  and  O_3
REMARK    3  A    between atoms: O_3  and  C_4
REMARK    4  A    between atoms: C_4  and  C_6
REMARK    5  A    between atoms: N_8  and  C_9
REMARK    6  A    between atoms: C_9  and  C_10
REMARK    7  A    between atoms: C_13  and  C_14
REMARK    8  A    between atoms: C_14  and  O_16
REMARK    9  A    between atoms: O_16  and  C_17
REMARK                            x       y       z     vdW  Elec       q    Type
REMARK                         _______ _______ _______ _____ _____    ______ ____
ROOT
ATOM      1  C   UNL     1       4.511   5.715  17.451  0.00  0.00    +0.000 A 
ATOM      2  C   UNL     1       4.071   6.409  18.518  0.00  0.00    +0.000 A 
ATOM      3  N   UNL     1       3.082   6.014  19.418  0.00  0.00    +0.000 N 
ATOM      4  C   UNL     1       2.419   4.782  19.183  0.00  0.00    +0.000 A 
ATOM      5  C   UNL     1       1.336   4.312  19.944  0.00  0.00    +0.000 A 
ATOM      6  C   UNL     1       0.701   3.099  19.657  0.00  0.00    +0.000 A 
ATOM      7  C   UNL     1       1.146   2.296  18.613  0.00  0.00    +0.000 A 
ATOM      8  C   UNL     1       2.228   2.713  17.854  0.00  0.00    +0.000 A 
ATOM      9  C   UNL     1       2.846   3.945  18.129  0.00  0.00    +0.000 A 
ATOM     10  C   UNL     1       3.966   4.354  17.261  0.00  0.00    +0.000 A 
ATOM     11  O   UNL     1       4.406   3.576  16.425  0.00  0.00    +0.000 OA
ENDROOT
BRANCH   1  12
ATOM     12  C   UNL     1       5.390   6.385  16.467  0.00  0.00    +0.000 C 
ATOM     13  O   UNL     1       4.974   6.963  15.465  0.00  0.00    +0.000 OA
BRANCH  12  14
ATOM     14  O   UNL     1       6.686   6.090  16.723  0.00  0.00    +0.000 OA
BRANCH  14  16
ATOM     15  C   UNL     1       7.900   6.430  18.742  0.00  0.00    +0.000 C 
ATOM     16  C   UNL     1       7.439   7.072  17.445  0.00  0.00    +0.000 C 
ENDBRANCH  14  16
ENDBRANCH  12  14
ENDBRANCH   1  12
BRANCH   3  17
ATOM     17  C   UNL     1       2.545   6.940  20.451  0.00  0.00    +0.000 C 
BRANCH  17  18
ATOM     18  C   UNL     1       1.782   8.103  19.830  0.00  0.00    +0.000 A 
ATOM     19  C   UNL     1       0.900   8.873  20.606  0.00  0.00    +0.000 A 
ATOM     20  C   UNL     1       0.026   9.778  20.000  0.00  0.00    +0.000 A 
ATOM     21  C   UNL     1       0.054   9.969  18.615  0.00  0.00    +0.000 A 
ATOM     22  C   UNL     1       1.025   9.308  17.854  0.00  0.00    +0.000 A 
ATOM     23  C   UNL     1       1.883   8.383  18.459  0.00  0.00    +0.000 A 
BRANCH  21  24
ATOM     24  C   UNL     1      -1.001  10.822  18.006  0.00  0.00    +0.000 C 
ATOM     25  O   UNL     1      -1.210  11.976  18.344  0.00  0.00    +0.000 OA
BRANCH  24  26
ATOM     26  O   UNL     1      -1.706  10.128  17.076  0.00  0.00    +0.000 OA
ATOM     27  C   UNL     1      -3.080   9.947  17.417  0.00  0.00    +0.000 C 
ENDBRANCH  24  26
ENDBRANCH  21  24
ENDBRANCH  17  18
ENDBRANCH   3  17
TORSDOF 7
ENDMDL
