MODEL 1
REMARK VINA RESULT:      -7.4      0.000      0.000
REMARK  Name = 
REMARK  6 active torsions:
REMARK  status: ('A' for Active; 'I' for Inactive)
REMARK    1  A    between atoms: C_1  and  C_2
REMARK    2  A    between atoms: C_2  and  C_3
REMARK    3  A    between atoms: C_3  and  N_4
REMARK    4  A    between atoms: C_6  and  C_7
REMARK    5  A    between atoms: C_9  and  C_10
REMARK    6  A    between atoms: C_13  and  N_14
REMARK                            x       y       z     vdW  Elec       q    Type
REMARK                         _______ _______ _______ _____ _____    ______ ____
ROOT
ATOM      1  C   UNL     1       3.792   5.565  17.822  0.00  0.00    +0.000 A 
ATOM      2  C   UNL     1       4.419   6.625  17.150  0.00  0.00    +0.000 A 
ATOM      3  C   UNL     1       5.224   6.397  16.032  0.00  0.00    +0.000 A 
ATOM      4  C   UNL     1       5.414   5.092  15.565  0.00  0.00    +0.000 A 
ATOM      5  C   UNL     1       4.787   4.027  16.225  0.00  0.00    +0.000 A 
ATOM      6  C   UNL     1       3.966   4.267  17.330  0.00  0.00    +0.000 A 
ENDROOT
BRANCH   1  12
ATOM      7  N   UNL     1       2.508   5.018  19.960  0.00  0.00    +0.000 N 
ATOM      8  N   UNL     1       1.768   5.677  20.881  0.00  0.00    +0.000 NA
ATOM      9  C   UNL     1       1.830   6.934  20.434  0.00  0.00    +0.000 A 
ATOM     10  C   UNL     1       1.163   8.075  21.087  0.00  0.00    +0.000 C 
ATOM     11  N   UNL     1       2.565   7.098  19.298  0.00  0.00    +0.000 NA
ATOM     12  C   UNL     1       2.960   5.878  18.982  0.00  0.00    +0.000 A 
BRANCH   7  13
ATOM     13  C   UNL     1       2.708   3.590  20.110  0.00  0.00    +0.000 C 
BRANCH  13  15
ATOM     14  C   UNL     1       0.803   2.561  18.817  0.00  0.00    +0.000 C 
ATOM     15  C   UNL     1       1.412   2.781  20.193  0.00  0.00    +0.000 C 
ENDBRANCH  13  15
ENDBRANCH   7  13
ENDBRANCH   1  12
BRANCH   4  16
ATOM     16  N   UNL     1       6.198   4.830  14.414  0.00  0.00    +0.000 N 
ATOM     17  C   UNL     1       5.947   3.927  13.404  0.00  0.00    +0.000 A 
ATOM     18  C   UNL     1       7.016   3.973  12.545  0.00  0.00    +0.000 A 
ATOM     19  C   UNL     1       7.865   4.945  13.093  0.00  0.00    +0.000 A 
ATOM     20  N   UNL     1       7.375   5.483  14.206  0.00  0.00    +0.000 NA
ENDBRANCH   4  16
TORSDOF 4
ENDMDL
MODEL 2
REMARK VINA RESULT:      -7.3      2.719      7.160
REMARK  Name = 
REMARK  6 active torsions:
REMARK  status: ('A' for Active; 'I' for Inactive)
REMARK    1  A    between atoms: C_1  and  C_2
REMARK    2  A    between atoms: C_2  and  C_3
REMARK    3  A    between atoms: C_3  and  N_4
REMARK    4  A    between atoms: C_6  and  C_7
REMARK    5  A    between atoms: C_9  and  C_10
REMARK    6  A    between atoms: C_13  and  N_14
REMARK                            x       y       z     vdW  Elec       q    Type
REMARK                         _______ _______ _______ _____ _____    ______ ____
ROOT
ATOM      1  C   UNL     1       2.546   7.117  18.644  0.00  0.00    +0.000 A 
ATOM      2  C   UNL     1       2.196   8.204  17.829  0.00  0.00    +0.000 A 
ATOM      3  C   UNL     1       1.479   9.288  18.338  0.00  0.00    +0.000 A 
ATOM      4  C   UNL     1       1.099   9.301  19.685  0.00  0.00    +0.000 A 
ATOM      5  C   UNL     1       1.450   8.225  20.509  0.00  0.00    +0.000 A 
ATOM      6  C   UNL     1       2.186   7.154  19.995  0.00  0.00    +0.000 A 
ENDROOT
BRANCH   1  12
ATOM      7  N   UNL     1       2.835   4.781  17.655  0.00  0.00    +0.000 N 
ATOM      8  N   UNL     1       3.832   4.031  17.131  0.00  0.00    +0.000 NA
ATOM      9  C   UNL     1       4.869   4.870  17.195  0.00  0.00    +0.000 A 
ATOM     10  C   UNL     1       6.232   4.529  16.749  0.00  0.00    +0.000 C 
ATOM     11  N   UNL     1       4.579   6.093  17.721  0.00  0.00    +0.000 NA
ATOM     12  C   UNL     1       3.301   6.019  18.044  0.00  0.00    +0.000 A 
BRANCH   7  13
ATOM     13  C   UNL     1       1.501   4.219  17.740  0.00  0.00    +0.000 C 
BRANCH  13  15
ATOM     14  C   UNL     1       0.936   3.707  20.143  0.00  0.00    +0.000 C 
ATOM     15  C   UNL     1       1.348   3.127  18.800  0.00  0.00    +0.000 C 
ENDBRANCH  13  15
ENDBRANCH   7  13
ENDBRANCH   1  12
BRANCH   4  16
ATOM     16  N   UNL     1       0.399  10.401  20.241  0.00  0.00    +0.000 N 
ATOM     17  C   UNL     1      -0.706  11.049  19.732  0.00  0.00    +0.000 A 
ATOM     18  C   UNL     1      -0.986  12.094  20.575  0.00  0.00    +0.000 A 
ATOM     19  C   UNL     1      -0.017  12.001  21.585  0.00  0.00    +0.000 A 
ATOM     20  N   UNL     1       0.809  10.974  21.406  0.00  0.00    +0.000 NA
ENDBRANCH   4  16
TORSDOF 4
ENDMDL
MODEL 3
REMARK VINA RESULT:      -7.3      2.712      7.184
REMARK  Name = 
REMARK  6 active torsions:
REMARK  status: ('A' for Active; 'I' for Inactive)
REMARK    1  A    between atoms: C_1  and  C_2
REMARK    2  A    between atoms: C_2  and  C_3
REMARK    3  A    between atoms: C_3  and  N_4
REMARK    4  A    between atoms: C_6  and  C_7
REMARK    5  A    between atoms: C_9  and  C_10
REMARK    6  A    between atoms: C_13  and  N_14
REMARK                            x       y       z     vdW  Elec       q    Type
REMARK                         _______ _______ _______ _____ _____    ______ ____
ROOT
ATOM      1  C   UNL     1       2.629   7.178  18.467  0.00  0.00    +0.000 A 
ATOM      2  C   UNL     1       2.272   7.121  19.822  0.00  0.00    +0.000 A 
ATOM      3  C   UNL     1       1.561   8.160  20.427  0.00  0.00    +0.000 A 
ATOM      4  C   UNL     1       1.192   9.281  19.675  0.00  0.00    +0.000 A 
ATOM      5  C   UNL     1       1.537   9.344  18.320  0.00  0.00    +0.000 A 
ATOM      6  C   UNL     1       2.230   8.290  17.718  0.00  0.00    +0.000 A 
ENDROOT
BRANCH   1  12
ATOM      7  N   UNL     1       2.899   4.791  17.602  0.00  0.00    +0.000 N 
ATOM      8  N   UNL     1       3.881   4.019  17.080  0.00  0.00    +0.000 NA
ATOM      9  C   UNL     1       4.912   4.868  17.053  0.00  0.00    +0.000 A 
ATOM     10  C   UNL     1       6.259   4.512  16.572  0.00  0.00    +0.000 C 
ATOM     11  N   UNL     1       4.632   6.117  17.520  0.00  0.00    +0.000 NA
ATOM     12  C   UNL     1       3.369   6.053  17.900  0.00  0.00    +0.000 A 
BRANCH   7  13
ATOM     13  C   UNL     1       1.576   4.225  17.773  0.00  0.00    +0.000 C 
BRANCH  13  15
ATOM     14  C   UNL     1       0.913   3.713  20.151  0.00  0.00    +0.000 C 
ATOM     15  C   UNL     1       1.489   3.153  18.861  0.00  0.00    +0.000 C 
ENDBRANCH  13  15
ENDBRANCH   7  13
ENDBRANCH   1  12
BRANCH   4  16
ATOM     16  N   UNL     1       0.442  10.337  20.250  0.00  0.00    +0.000 N 
ATOM     17  C   UNL     1      -0.803  10.795  19.876  0.00  0.00    +0.000 A 
ATOM     18  C   UNL     1      -1.092  11.875  20.672  0.00  0.00    +0.000 A 
ATOM     19  C   UNL     1       0.019  11.996  21.518  0.00  0.00    +0.000 A 
ATOM     20  N   UNL     1       0.939  11.064  21.289  0.00  0.00    +0.000 NA
ENDBRANCH   4  16
TORSDOF 4
ENDMDL
MODEL 4
REMARK VINA RESULT:      -7.2      1.983      7.146
REMARK  Name = 
REMARK  6 active torsions:
REMARK  status: ('A' for Active; 'I' for Inactive)
REMARK    1  A    between atoms: C_1  and  C_2
REMARK    2  A    between atoms: C_2  and  C_3
REMARK    3  A    between atoms: C_3  and  N_4
REMARK    4  A    between atoms: C_6  and  C_7
REMARK    5  A    between atoms: C_9  and  C_10
REMARK    6  A    between atoms: C_13  and  N_14
REMARK                            x       y       z     vdW  Elec       q    Type
REMARK                         _______ _______ _______ _____ _____    ______ ____
ROOT
ATOM      1  C   UNL     1       4.446   6.002  17.427  0.00  0.00    +0.000 A 
ATOM      2  C   UNL     1       3.996   7.285  17.081  0.00  0.00    +0.000 A 
ATOM      3  C   UNL     1       3.078   7.969  17.879  0.00  0.00    +0.000 A 
ATOM      4  C   UNL     1       2.593   7.374  19.049  0.00  0.00    +0.000 A 
ATOM      5  C   UNL     1       3.041   6.097  19.407  0.00  0.00    +0.000 A 
ATOM      6  C   UNL     1       3.977   5.428  18.613  0.00  0.00    +0.000 A 
ENDROOT
BRANCH   1  12
ATOM      7  N   UNL     1       6.703   4.963  16.837  0.00  0.00    +0.000 N 
ATOM      8  N   UNL     1       7.287   4.376  15.767  0.00  0.00    +0.000 NA
ATOM      9  C   UNL     1       6.300   4.400  14.868  0.00  0.00    +0.000 A 
ATOM     10  C   UNL     1       6.424   3.880  13.495  0.00  0.00    +0.000 C 
ATOM     11  N   UNL     1       5.139   4.959  15.313  0.00  0.00    +0.000 NA
ATOM     12  C   UNL     1       5.411   5.347  16.546  0.00  0.00    +0.000 A 
BRANCH   7  13
ATOM     13  C   UNL     1       7.464   5.107  18.063  0.00  0.00    +0.000 C 
BRANCH  13  15
ATOM     14  C   UNL     1       7.778   7.519  17.399  0.00  0.00    +0.000 C 
ATOM     15  C   UNL     1       7.592   6.550  18.555  0.00  0.00    +0.000 C 
ENDBRANCH  13  15
ENDBRANCH   7  13
ENDBRANCH   1  12
BRANCH   4  16
ATOM     16  N   UNL     1       1.686   8.055  19.898  0.00  0.00    +0.000 N 
ATOM     17  C   UNL     1       1.219   7.659  21.133  0.00  0.00    +0.000 A 
ATOM     18  C   UNL     1       0.309   8.600  21.542  0.00  0.00    +0.000 A 
ATOM     19  C   UNL     1       0.294   9.548  20.509  0.00  0.00    +0.000 A 
ATOM     20  N   UNL     1       1.134   9.242  19.524  0.00  0.00    +0.000 NA
ENDBRANCH   4  16
TORSDOF 4
ENDMDL
MODEL 5
REMARK VINA RESULT:      -7.1      0.127      1.086
REMARK  Name = 
REMARK  6 active torsions:
REMARK  status: ('A' for Active; 'I' for Inactive)
REMARK    1  A    between atoms: C_1  and  C_2
REMARK    2  A    between atoms: C_2  and  C_3
REMARK    3  A    between atoms: C_3  and  N_4
REMARK    4  A    between atoms: C_6  and  C_7
REMARK    5  A    between atoms: C_9  and  C_10
REMARK    6  A    between atoms: C_13  and  N_14
REMARK                            x       y       z     vdW  Elec       q    Type
REMARK                         _______ _______ _______ _____ _____    ______ ____
ROOT
ATOM      1  C   UNL     1       3.807   5.631  17.779  0.00  0.00    +0.000 A 
ATOM      2  C   UNL     1       3.963   4.314  17.321  0.00  0.00    +0.000 A 
ATOM      3  C   UNL     1       4.736   4.027  16.194  0.00  0.00    +0.000 A 
ATOM      4  C   UNL     1       5.371   5.065  15.503  0.00  0.00    +0.000 A 
ATOM      5  C   UNL     1       5.228   6.382  15.957  0.00  0.00    +0.000 A 
ATOM      6  C   UNL     1       4.470   6.656  17.098  0.00  0.00    +0.000 A 
ENDROOT
BRANCH   1  12
ATOM      7  N   UNL     1       2.615   4.940  19.929  0.00  0.00    +0.000 N 
ATOM      8  N   UNL     1       1.859   5.523  20.888  0.00  0.00    +0.000 NA
ATOM      9  C   UNL     1       1.832   6.794  20.480  0.00  0.00    +0.000 A 
ATOM     10  C   UNL     1       1.113   7.870  21.185  0.00  0.00    +0.000 C 
ATOM     11  N   UNL     1       2.526   7.038  19.332  0.00  0.00    +0.000 NA
ATOM     12  C   UNL     1       2.988   5.856  18.968  0.00  0.00    +0.000 A 
BRANCH   7  13
ATOM     13  C   UNL     1       2.906   3.523  20.027  0.00  0.00    +0.000 C 
BRANCH  13  15
ATOM     14  C   UNL     1       0.888   2.579  18.847  0.00  0.00    +0.000 C 
ATOM     15  C   UNL     1       1.666   2.635  20.152  0.00  0.00    +0.000 C 
ENDBRANCH  13  15
ENDBRANCH   7  13
ENDBRANCH   1  12
BRANCH   4  16
ATOM     16  N   UNL     1       6.189   4.804  14.375  0.00  0.00    +0.000 N 
ATOM     17  C   UNL     1       5.982   3.883  13.371  0.00  0.00    +0.000 A 
ATOM     18  C   UNL     1       7.070   3.941  12.539  0.00  0.00    +0.000 A 
ATOM     19  C   UNL     1       7.886   4.937  13.094  0.00  0.00    +0.000 A 
ATOM     20  N   UNL     1       7.357   5.479  14.187  0.00  0.00    +0.000 NA
ENDBRANCH   4  16
TORSDOF 4
ENDMDL
MODEL 6
REMARK VINA RESULT:      -7.1      2.200      7.531
REMARK  Name = 
REMARK  6 active torsions:
REMARK  status: ('A' for Active; 'I' for Inactive)
REMARK    1  A    between atoms: C_1  and  C_2
REMARK    2  A    between atoms: C_2  and  C_3
REMARK    3  A    between atoms: C_3  and  N_4
REMARK    4  A    between atoms: C_6  and  C_7
REMARK    5  A    between atoms: C_9  and  C_10
REMARK    6  A    between atoms: C_13  and  N_14
REMARK                            x       y       z     vdW  Elec       q    Type
REMARK                         _______ _______ _______ _____ _____    ______ ____
ROOT
ATOM      1  C   UNL     1       4.271   6.639  17.517  0.00  0.00    +0.000 A 
ATOM      2  C   UNL     1       3.858   5.965  18.676  0.00  0.00    +0.000 A 
ATOM      3  C   UNL     1       2.895   6.512  19.527  0.00  0.00    +0.000 A 
ATOM      4  C   UNL     1       2.324   7.753  19.225  0.00  0.00    +0.000 A 
ATOM      5  C   UNL     1       2.723   8.430  18.066  0.00  0.00    +0.000 A 
ATOM      6  C   UNL     1       3.672   7.865  17.210  0.00  0.00    +0.000 A 
ENDROOT
BRANCH   1  12
ATOM      7  N   UNL     1       6.652   6.077  16.787  0.00  0.00    +0.000 N 
ATOM      8  N   UNL     1       7.258   5.347  15.822  0.00  0.00    +0.000 NA
ATOM      9  C   UNL     1       6.213   4.830  15.171  0.00  0.00    +0.000 A 
ATOM     10  C   UNL     1       6.329   3.946  13.998  0.00  0.00    +0.000 C 
ATOM     11  N   UNL     1       4.997   5.187  15.674  0.00  0.00    +0.000 NA
ATOM     12  C   UNL     1       5.280   6.005  16.671  0.00  0.00    +0.000 A 
BRANCH   7  13
ATOM     13  C   UNL     1       7.469   6.796  17.744  0.00  0.00    +0.000 C 
BRANCH  13  15
ATOM     14  C   UNL     1       8.538   8.968  18.449  0.00  0.00    +0.000 C 
ATOM     15  C   UNL     1       7.632   8.285  17.436  0.00  0.00    +0.000 C 
ENDBRANCH  13  15
ENDBRANCH   7  13
ENDBRANCH   1  12
BRANCH   4  16
ATOM     16  N   UNL     1       1.320   8.320  20.049  0.00  0.00    +0.000 N 
ATOM     17  C   UNL     1       0.855   7.856  21.261  0.00  0.00    +0.000 A 
ATOM     18  C   UNL     1      -0.163   8.690  21.649  0.00  0.00    +0.000 A 
ATOM     19  C   UNL     1      -0.242   9.648  20.629  0.00  0.00    +0.000 A 
ATOM     20  N   UNL     1       0.659   9.449  19.671  0.00  0.00    +0.000 NA
ENDBRANCH   4  16
TORSDOF 4
ENDMDL
MODEL 7
REMARK VINA RESULT:      -7.1      2.271      7.281
REMARK  Name = 
REMARK  6 active torsions:
REMARK  status: ('A' for Active; 'I' for Inactive)
REMARK    1  A    between atoms: C_1  and  C_2
REMARK    2  A    between atoms: C_2  and  C_3
REMARK    3  A    between atoms: C_3  and  N_4
REMARK    4  A    between atoms: C_6  and  C_7
REMARK    5  A    between atoms: C_9  and  C_10
REMARK    6  A    between atoms: C_13  and  N_14
REMARK                            x       y       z     vdW  Elec       q    Type
REMARK                         _______ _______ _______ _____ _____    ______ ____
ROOT
ATOM      1  C   UNL     1       4.015   6.340  17.916  0.00  0.00    +0.000 A 
ATOM      2  C   UNL     1       3.609   7.591  17.427  0.00  0.00    +0.000 A 
ATOM      3  C   UNL     1       2.650   8.353  18.098  0.00  0.00    +0.000 A 
ATOM      4  C   UNL     1       2.079   7.869  19.280  0.00  0.00    +0.000 A 
ATOM      5  C   UNL     1       2.482   6.625  19.780  0.00  0.00    +0.000 A 
ATOM      6  C   UNL     1       3.459   5.880  19.113  0.00  0.00    +0.000 A 
ENDROOT
BRANCH   1  12
ATOM      7  N   UNL     1       6.311   5.284  17.552  0.00  0.00    +0.000 N 
ATOM      8  N   UNL     1       6.949   4.580  16.589  0.00  0.00    +0.000 NA
ATOM      9  C   UNL     1       6.000   4.469  15.656  0.00  0.00    +0.000 A 
ATOM     10  C   UNL     1       6.190   3.783  14.366  0.00  0.00    +0.000 C 
ATOM     11  N   UNL     1       4.813   5.055  15.980  0.00  0.00    +0.000 NA
ATOM     12  C   UNL     1       5.026   5.600  17.164  0.00  0.00    +0.000 A 
BRANCH   7  13
ATOM     13  C   UNL     1       7.017   5.598  18.779  0.00  0.00    +0.000 C 
BRANCH  13  15
ATOM     14  C   UNL     1       7.639   7.775  17.670  0.00  0.00    +0.000 C 
ATOM     15  C   UNL     1       8.085   6.682  18.627  0.00  0.00    +0.000 C 
ENDBRANCH  13  15
ENDBRANCH   7  13
ENDBRANCH   1  12
BRANCH   4  16
ATOM     16  N   UNL     1       1.127   8.632  20.002  0.00  0.00    +0.000 N 
ATOM     17  C   UNL     1       0.490   9.788  19.607  0.00  0.00    +0.000 A 
ATOM     18  C   UNL     1      -0.285  10.203  20.660  0.00  0.00    +0.000 A 
ATOM     19  C   UNL     1      -0.080   9.233  21.652  0.00  0.00    +0.000 A 
ATOM     20  N   UNL     1       0.751   8.271  21.261  0.00  0.00    +0.000 NA
ENDBRANCH   4  16
TORSDOF 4
ENDMDL
MODEL 8
REMARK VINA RESULT:      -6.9      1.957      6.834
REMARK  Name = 
REMARK  6 active torsions:
REMARK  status: ('A' for Active; 'I' for Inactive)
REMARK    1  A    between atoms: C_1  and  C_2
REMARK    2  A    between atoms: C_2  and  C_3
REMARK    3  A    between atoms: C_3  and  N_4
REMARK    4  A    between atoms: C_6  and  C_7
REMARK    5  A    between atoms: C_9  and  C_10
REMARK    6  A    between atoms: C_13  and  N_14
REMARK                            x       y       z     vdW  Elec       q    Type
REMARK                         _______ _______ _______ _____ _____    ______ ____
ROOT
ATOM      1  C   UNL     1       3.528   6.278  18.017  0.00  0.00    +0.000 A 
ATOM      2  C   UNL     1       3.107   7.526  17.532  0.00  0.00    +0.000 A 
ATOM      3  C   UNL     1       2.306   8.369  18.305  0.00  0.00    +0.000 A 
ATOM      4  C   UNL     1       1.913   7.973  19.587  0.00  0.00    +0.000 A 
ATOM      5  C   UNL     1       2.334   6.733  20.084  0.00  0.00    +0.000 A 
ATOM      6  C   UNL     1       3.153   5.905  19.311  0.00  0.00    +0.000 A 
ENDROOT
BRANCH   1  12
ATOM      7  N   UNL     1       4.477   4.076  17.141  0.00  0.00    +0.000 N 
ATOM      8  N   UNL     1       5.352   3.668  16.193  0.00  0.00    +0.000 NA
ATOM      9  C   UNL     1       5.719   4.827  15.642  0.00  0.00    +0.000 A 
ATOM     10  C   UNL     1       6.692   4.944  14.541  0.00  0.00    +0.000 C 
ATOM     11  N   UNL     1       5.124   5.928  16.183  0.00  0.00    +0.000 NA
ATOM     12  C   UNL     1       4.368   5.450  17.154  0.00  0.00    +0.000 A 
BRANCH   7  13
ATOM     13  C   UNL     1       3.819   3.081  17.966  0.00  0.00    +0.000 C 
BRANCH  13  15
ATOM     14  C   UNL     1       1.473   2.492  18.679  0.00  0.00    +0.000 C 
ATOM     15  C   UNL     1       2.408   2.715  17.501  0.00  0.00    +0.000 C 
ENDBRANCH  13  15
ENDBRANCH   7  13
ENDBRANCH   1  12
BRANCH   4  16
ATOM     16  N   UNL     1       1.128   8.820  20.410  0.00  0.00    +0.000 N 
ATOM     17  C   UNL     1       1.024   8.809  21.784  0.00  0.00    +0.000 A 
ATOM     18  C   UNL     1       0.095   9.758  22.126  0.00  0.00    +0.000 A 
ATOM     19  C   UNL     1      -0.304  10.318  20.904  0.00  0.00    +0.000 A 
ATOM     20  N   UNL     1       0.326   9.776  19.865  0.00  0.00    +0.000 NA
ENDBRANCH   4  16
TORSDOF 4
ENDMDL
MODEL 9
REMARK VINA RESULT:      -6.9      2.448      7.095
REMARK  Name = 
REMARK  6 active torsions:
REMARK  status: ('A' for Active; 'I' for Inactive)
REMARK    1  A    between atoms: C_1  and  C_2
REMARK    2  A    between atoms: C_2  and  C_3
REMARK    3  A    between atoms: C_3  and  N_4
REMARK    4  A    between atoms: C_6  and  C_7
REMARK    5  A    between atoms: C_9  and  C_10
REMARK    6  A    between atoms: C_13  and  N_14
REMARK                            x       y       z     vdW  Elec       q    Type
REMARK                         _______ _______ _______ _____ _____    ______ ____
ROOT
ATOM      1  C   UNL     1       2.954   6.783  18.478  0.00  0.00    +0.000 A 
ATOM      2  C   UNL     1       2.503   6.581  19.791  0.00  0.00    +0.000 A 
ATOM      3  C   UNL     1       1.719   7.535  20.442  0.00  0.00    +0.000 A 
ATOM      4  C   UNL     1       1.370   8.718  19.781  0.00  0.00    +0.000 A 
ATOM      5  C   UNL     1       1.809   8.926  18.468  0.00  0.00    +0.000 A 
ATOM      6  C   UNL     1       2.575   7.956  17.817  0.00  0.00    +0.000 A 
ENDROOT
BRANCH   1  12
ATOM      7  N   UNL     1       3.367   4.491  17.433  0.00  0.00    +0.000 N 
ATOM      8  N   UNL     1       4.404   3.804  16.900  0.00  0.00    +0.000 NA
ATOM      9  C   UNL     1       5.398   4.691  16.996  0.00  0.00    +0.000 A 
ATOM     10  C   UNL     1       6.780   4.429  16.556  0.00  0.00    +0.000 C 
ATOM     11  N   UNL     1       5.043   5.885  17.550  0.00  0.00    +0.000 NA
ATOM     12  C   UNL     1       3.767   5.739  17.858  0.00  0.00    +0.000 A 
BRANCH   7  13
ATOM     13  C   UNL     1       2.061   3.862  17.490  0.00  0.00    +0.000 C 
BRANCH  13  15
ATOM     14  C   UNL     1       1.805   2.714  19.720  0.00  0.00    +0.000 C 
ATOM     15  C   UNL     1       2.042   2.524  18.230  0.00  0.00    +0.000 C 
ENDBRANCH  13  15
ENDBRANCH   7  13
ENDBRANCH   1  12
BRANCH   4  16
ATOM     16  N   UNL     1       0.548   9.691  20.401  0.00  0.00    +0.000 N 
ATOM     17  C   UNL     1       0.268   9.836  21.743  0.00  0.00    +0.000 A 
ATOM     18  C   UNL     1      -0.628  10.868  21.860  0.00  0.00    +0.000 A 
ATOM     19  C   UNL     1      -0.826  11.313  20.546  0.00  0.00    +0.000 A 
ATOM     20  N   UNL     1      -0.108  10.627  19.661  0.00  0.00    +0.000 NA
ENDBRANCH   4  16
TORSDOF 4
ENDMDL
