MODEL 1
REMARK VINA RESULT:      -7.3      0.000      0.000
REMARK  Name = 
REMARK  5 active torsions:
REMARK  status: ('A' for Active; 'I' for Inactive)
REMARK    1  A    between atoms: C_1  and  N_2
REMARK    2  A    between atoms: N_2  and  C_3
REMARK    3  A    between atoms: N_2  and  C_4
REMARK    4  A    between atoms: C_4  and  C_5
REMARK    5  A    between atoms: C_5  and  N_6
REMARK                            x       y       z     vdW  Elec       q    Type
REMARK                         _______ _______ _______ _____ _____    ______ ____
ROOT
ATOM      1  N   UNL     1       5.514   4.275  15.355  0.00  0.00    +0.000 N 
ATOM      2  C   UNL     1       6.534   4.641  16.182  0.00  0.00    +0.000 C 
ATOM      3  O   UNL     1       7.591   5.127  15.793  0.00  0.00    +0.000 OA
ATOM      4  N   UNL     1       6.359   4.340  17.514  0.00  0.00    +0.000 N 
ATOM      5  C   UNL     1       5.218   3.880  18.126  0.00  0.00    +0.000 A 
ATOM      6  N   UNL     1       4.060   4.015  17.550  0.00  0.00    +0.000 NA
ATOM      7  C   UNL     1       3.061   3.432  18.233  0.00  0.00    +0.000 A 
ATOM      8  N   UNL     1       1.756   3.397  17.841  0.00  0.00    +0.000 N 
ATOM      9  C   UNL     1       1.089   2.641  18.771  0.00  0.00    +0.000 A 
ATOM     10  N   UNL     1       1.887   2.216  19.734  0.00  0.00    +0.000 NA
ATOM     11  C   UNL     1       3.124   2.714  19.401  0.00  0.00    +0.000 A 
ATOM     12  C   UNL     1       4.424   2.563  20.025  0.00  0.00    +0.000 A 
ATOM     13  O   UNL     1       4.668   1.887  21.018  0.00  0.00    +0.000 OA
ATOM     14  N   UNL     1       5.425   3.243  19.336  0.00  0.00    +0.000 N 
ATOM     15  H   UNL     1       4.590   4.249  15.786  0.00  0.00    +0.000 HD
ATOM     16  H   UNL     1       7.169   4.556  18.072  0.00  0.00    +0.000 HD
ATOM     17  H   UNL     1       1.379   3.822  17.009  0.00  0.00    +0.000 HD
ATOM     18  H   UNL     1       6.354   3.068  19.680  0.00  0.00    +0.000 HD
ENDROOT
BRANCH   1  19
ATOM     19  C   UNL     1       5.556   4.468  13.924  0.00  0.00    +0.000 C 
BRANCH  19  20
ATOM     20  C   UNL     1       6.247   3.297  13.195  0.00  0.00    +0.000 C 
BRANCH  20  22
ATOM     21  C   UNL     1       6.035   1.674  11.388  0.00  0.00    +0.000 C 
ATOM     22  N   UNL     1       5.788   3.059  11.803  0.00  0.00    +0.000 NA
ATOM     23  C   UNL     1       4.351   3.341  11.706  0.00  0.00    +0.000 C 
ENDBRANCH  20  22
ENDBRANCH  19  20
ENDBRANCH   1  19
TORSDOF 3
ENDMDL
MODEL 2
REMARK VINA RESULT:      -7.1      0.953      1.153
REMARK  Name = 
REMARK  5 active torsions:
REMARK  status: ('A' for Active; 'I' for Inactive)
REMARK    1  A    between atoms: C_1  and  N_2
REMARK    2  A    between atoms: N_2  and  C_3
REMARK    3  A    between atoms: N_2  and  C_4
REMARK    4  A    between atoms: C_4  and  C_5
REMARK    5  A    between atoms: C_5  and  N_6
REMARK                            x       y       z     vdW  Elec       q    Type
REMARK                         _______ _______ _______ _____ _____    ______ ____
ROOT
ATOM      1  N   UNL     1       6.143   4.027  16.149  0.00  0.00    +0.000 N 
ATOM      2  C   UNL     1       6.975   4.308  17.191  0.00  0.00    +0.000 C 
ATOM      3  O   UNL     1       8.149   4.643  17.061  0.00  0.00    +0.000 OA
ATOM      4  N   UNL     1       6.451   4.095  18.446  0.00  0.00    +0.000 N 
ATOM      5  C   UNL     1       5.148   3.807  18.772  0.00  0.00    +0.000 A 
ATOM      6  N   UNL     1       4.188   4.052  17.931  0.00  0.00    +0.000 NA
ATOM      7  C   UNL     1       2.988   3.628  18.363  0.00  0.00    +0.000 A 
ATOM      8  N   UNL     1       1.821   3.732  17.667  0.00  0.00    +0.000 N 
ATOM      9  C   UNL     1       0.860   3.108  18.421  0.00  0.00    +0.000 A 
ATOM     10  N   UNL     1       1.345   2.638  19.557  0.00  0.00    +0.000 NA
ATOM     11  C   UNL     1       2.678   2.966  19.524  0.00  0.00    +0.000 A 
ATOM     12  C   UNL     1       3.762   2.690  20.447  0.00  0.00    +0.000 A 
ATOM     13  O   UNL     1       3.674   2.039  21.482  0.00  0.00    +0.000 OA
ATOM     14  N   UNL     1       4.978   3.210  20.008  0.00  0.00    +0.000 N 
ATOM     15  H   UNL     1       5.148   4.135  16.344  0.00  0.00    +0.000 HD
ATOM     16  H   UNL     1       7.127   4.240  19.180  0.00  0.00    +0.000 HD
ATOM     17  H   UNL     1       1.710   4.158  16.761  0.00  0.00    +0.000 HD
ATOM     18  H   UNL     1       5.768   2.941  20.569  0.00  0.00    +0.000 HD
ENDROOT
BRANCH   1  19
ATOM     19  C   UNL     1       6.548   4.143  14.767  0.00  0.00    +0.000 C 
BRANCH  19  20
ATOM     20  C   UNL     1       5.366   3.966  13.792  0.00  0.00    +0.000 C 
BRANCH  20  22
ATOM     21  C   UNL     1       4.558   3.255  11.605  0.00  0.00    +0.000 C 
ATOM     22  N   UNL     1       5.674   3.204  12.556  0.00  0.00    +0.000 NA
ATOM     23  C   UNL     1       6.873   3.763  11.921  0.00  0.00    +0.000 C 
ENDBRANCH  20  22
ENDBRANCH  19  20
ENDBRANCH   1  19
TORSDOF 3
ENDMDL
MODEL 3
REMARK VINA RESULT:      -6.9      1.722      6.340
REMARK  Name = 
REMARK  5 active torsions:
REMARK  status: ('A' for Active; 'I' for Inactive)
REMARK    1  A    between atoms: C_1  and  N_2
REMARK    2  A    between atoms: N_2  and  C_3
REMARK    3  A    between atoms: N_2  and  C_4
REMARK    4  A    between atoms: C_4  and  C_5
REMARK    5  A    between atoms: C_5  and  N_6
REMARK                            x       y       z     vdW  Elec       q    Type
REMARK                         _______ _______ _______ _____ _____    ______ ____
ROOT
ATOM      1  N   UNL     1       3.733   2.758  18.451  0.00  0.00    +0.000 N 
ATOM      2  C   UNL     1       4.531   3.124  19.494  0.00  0.00    +0.000 C 
ATOM      3  O   UNL     1       4.292   2.856  20.668  0.00  0.00    +0.000 OA
ATOM      4  N   UNL     1       5.606   3.921  19.171  0.00  0.00    +0.000 N 
ATOM      5  C   UNL     1       6.064   4.242  17.917  0.00  0.00    +0.000 A 
ATOM      6  N   UNL     1       5.723   3.525  16.887  0.00  0.00    +0.000 NA
ATOM      7  C   UNL     1       6.178   4.024  15.725  0.00  0.00    +0.000 A 
ATOM      8  N   UNL     1       5.942   3.489  14.494  0.00  0.00    +0.000 N 
ATOM      9  C   UNL     1       6.507   4.343  13.581  0.00  0.00    +0.000 A 
ATOM     10  N   UNL     1       7.101   5.370  14.161  0.00  0.00    +0.000 NA
ATOM     11  C   UNL     1       6.899   5.171  15.505  0.00  0.00    +0.000 A 
ATOM     12  C   UNL     1       7.261   5.965  16.663  0.00  0.00    +0.000 A 
ATOM     13  O   UNL     1       7.827   7.053  16.638  0.00  0.00    +0.000 OA
ATOM     14  N   UNL     1       6.845   5.382  17.858  0.00  0.00    +0.000 N 
ATOM     15  H   UNL     1       4.199   2.697  17.546  0.00  0.00    +0.000 HD
ATOM     16  H   UNL     1       6.119   4.231  19.982  0.00  0.00    +0.000 HD
ATOM     17  H   UNL     1       5.423   2.645  14.307  0.00  0.00    +0.000 HD
ATOM     18  H   UNL     1       6.982   5.961  18.669  0.00  0.00    +0.000 HD
ENDROOT
BRANCH   1  19
ATOM     19  C   UNL     1       2.535   1.968  18.618  0.00  0.00    +0.000 C 
BRANCH  19  20
ATOM     20  C   UNL     1       1.255   2.829  18.583  0.00  0.00    +0.000 C 
BRANCH  20  22
ATOM     21  C   UNL     1       1.252   2.446  20.990  0.00  0.00    +0.000 C 
ATOM     22  N   UNL     1       0.782   3.312  19.904  0.00  0.00    +0.000 NA
ATOM     23  C   UNL     1       1.271   4.677  20.131  0.00  0.00    +0.000 C 
ENDBRANCH  20  22
ENDBRANCH  19  20
ENDBRANCH   1  19
TORSDOF 3
ENDMDL
MODEL 4
REMARK VINA RESULT:      -6.7      3.342      6.500
REMARK  Name = 
REMARK  5 active torsions:
REMARK  status: ('A' for Active; 'I' for Inactive)
REMARK    1  A    between atoms: C_1  and  N_2
REMARK    2  A    between atoms: N_2  and  C_3
REMARK    3  A    between atoms: N_2  and  C_4
REMARK    4  A    between atoms: C_4  and  C_5
REMARK    5  A    between atoms: C_5  and  N_6
REMARK                            x       y       z     vdW  Elec       q    Type
REMARK                         _______ _______ _______ _____ _____    ______ ____
ROOT
ATOM      1  N   UNL     1       2.817   4.901  20.418  0.00  0.00    +0.000 N 
ATOM      2  C   UNL     1       2.297   6.124  20.119  0.00  0.00    +0.000 C 
ATOM      3  O   UNL     1       1.306   6.601  20.664  0.00  0.00    +0.000 OA
ATOM      4  N   UNL     1       2.896   6.786  19.071  0.00  0.00    +0.000 N 
ATOM      5  C   UNL     1       4.053   6.443  18.414  0.00  0.00    +0.000 A 
ATOM      6  N   UNL     1       4.902   5.623  18.959  0.00  0.00    +0.000 NA
ATOM      7  C   UNL     1       5.932   5.319  18.151  0.00  0.00    +0.000 A 
ATOM      8  N   UNL     1       6.946   4.463  18.460  0.00  0.00    +0.000 N 
ATOM      9  C   UNL     1       7.734   4.370  17.341  0.00  0.00    +0.000 A 
ATOM     10  N   UNL     1       7.291   5.129  16.355  0.00  0.00    +0.000 NA
ATOM     11  C   UNL     1       6.163   5.728  16.862  0.00  0.00    +0.000 A 
ATOM     12  C   UNL     1       5.200   6.632  16.265  0.00  0.00    +0.000 A 
ATOM     13  O   UNL     1       5.210   7.025  15.103  0.00  0.00    +0.000 OA
ATOM     14  N   UNL     1       4.187   6.991  17.152  0.00  0.00    +0.000 N 
ATOM     15  H   UNL     1       3.806   4.780  20.197  0.00  0.00    +0.000 HD
ATOM     16  H   UNL     1       2.428   7.648  18.836  0.00  0.00    +0.000 HD
ATOM     17  H   UNL     1       7.062   3.976  19.335  0.00  0.00    +0.000 HD
ATOM     18  H   UNL     1       3.446   7.528  16.735  0.00  0.00    +0.000 HD
ENDROOT
BRANCH   1  19
ATOM     19  C   UNL     1       2.277   4.049  21.453  0.00  0.00    +0.000 C 
BRANCH  19  20
ATOM     20  C   UNL     1       1.690   2.739  20.887  0.00  0.00    +0.000 C 
BRANCH  20  22
ATOM     21  C   UNL     1       2.902   1.605  19.102  0.00  0.00    +0.000 C 
ATOM     22  N   UNL     1       1.838   2.562  19.420  0.00  0.00    +0.000 NA
ATOM     23  C   UNL     1       0.572   2.080  18.854  0.00  0.00    +0.000 C 
ENDBRANCH  20  22
ENDBRANCH  19  20
ENDBRANCH   1  19
TORSDOF 3
ENDMDL
MODEL 5
REMARK VINA RESULT:      -6.7      2.880      4.426
REMARK  Name = 
REMARK  5 active torsions:
REMARK  status: ('A' for Active; 'I' for Inactive)
REMARK    1  A    between atoms: C_1  and  N_2
REMARK    2  A    between atoms: N_2  and  C_3
REMARK    3  A    between atoms: N_2  and  C_4
REMARK    4  A    between atoms: C_4  and  C_5
REMARK    5  A    between atoms: C_5  and  N_6
REMARK                            x       y       z     vdW  Elec       q    Type
REMARK                         _______ _______ _______ _____ _____    ______ ____
ROOT
ATOM      1  N   UNL     1       6.520   4.296  18.047  0.00  0.00    +0.000 N 
ATOM      2  C   UNL     1       6.129   3.940  16.791  0.00  0.00    +0.000 C 
ATOM      3  O   UNL     1       6.826   4.076  15.791  0.00  0.00    +0.000 OA
ATOM      4  N   UNL     1       4.831   3.495  16.675  0.00  0.00    +0.000 N 
ATOM      5  C   UNL     1       3.951   3.203  17.689  0.00  0.00    +0.000 A 
ATOM      6  N   UNL     1       4.384   2.987  18.896  0.00  0.00    +0.000 NA
ATOM      7  C   UNL     1       3.393   2.808  19.786  0.00  0.00    +0.000 A 
ATOM      8  N   UNL     1       3.565   2.594  21.121  0.00  0.00    +0.000 N 
ATOM      9  C   UNL     1       2.311   2.549  21.674  0.00  0.00    +0.000 A 
ATOM     10  N   UNL     1       1.361   2.700  20.769  0.00  0.00    +0.000 NA
ATOM     11  C   UNL     1       2.037   2.860  19.584  0.00  0.00    +0.000 A 
ATOM     12  C   UNL     1       1.571   3.114  18.235  0.00  0.00    +0.000 A 
ATOM     13  O   UNL     1       0.403   3.274  17.898  0.00  0.00    +0.000 OA
ATOM     14  N   UNL     1       2.618   3.216  17.322  0.00  0.00    +0.000 N 
ATOM     15  H   UNL     1       6.046   3.808  18.807  0.00  0.00    +0.000 HD
ATOM     16  H   UNL     1       4.563   3.319  15.719  0.00  0.00    +0.000 HD
ATOM     17  H   UNL     1       4.451   2.518  21.597  0.00  0.00    +0.000 HD
ATOM     18  H   UNL     1       2.335   3.501  16.400  0.00  0.00    +0.000 HD
ENDROOT
BRANCH   1  19
ATOM     19  C   UNL     1       7.829   4.833  18.339  0.00  0.00    +0.000 C 
BRANCH  19  20
ATOM     20  C   UNL     1       7.780   6.329  18.711  0.00  0.00    +0.000 C 
BRANCH  20  22
ATOM     21  C   UNL     1       6.188   7.419  17.220  0.00  0.00    +0.000 C 
ATOM     22  N   UNL     1       7.604   7.259  17.567  0.00  0.00    +0.000 NA
ATOM     23  C   UNL     1       8.165   8.571  17.911  0.00  0.00    +0.000 C 
ENDBRANCH  20  22
ENDBRANCH  19  20
ENDBRANCH   1  19
TORSDOF 3
ENDMDL
MODEL 6
REMARK VINA RESULT:      -6.6      2.827      4.429
REMARK  Name = 
REMARK  5 active torsions:
REMARK  status: ('A' for Active; 'I' for Inactive)
REMARK    1  A    between atoms: C_1  and  N_2
REMARK    2  A    between atoms: N_2  and  C_3
REMARK    3  A    between atoms: N_2  and  C_4
REMARK    4  A    between atoms: C_4  and  C_5
REMARK    5  A    between atoms: C_5  and  N_6
REMARK                            x       y       z     vdW  Elec       q    Type
REMARK                         _______ _______ _______ _____ _____    ______ ____
ROOT
ATOM      1  N   UNL     1       5.344   5.154  16.570  0.00  0.00    +0.000 N 
ATOM      2  C   UNL     1       5.414   3.855  16.164  0.00  0.00    +0.000 C 
ATOM      3  O   UNL     1       6.197   3.443  15.314  0.00  0.00    +0.000 OA
ATOM      4  N   UNL     1       4.465   3.012  16.698  0.00  0.00    +0.000 N 
ATOM      5  C   UNL     1       3.580   3.283  17.713  0.00  0.00    +0.000 A 
ATOM      6  N   UNL     1       3.789   4.279  18.523  0.00  0.00    +0.000 NA
ATOM      7  C   UNL     1       2.787   4.465  19.398  0.00  0.00    +0.000 A 
ATOM      8  N   UNL     1       2.736   5.453  20.336  0.00  0.00    +0.000 N 
ATOM      9  C   UNL     1       1.519   5.339  20.958  0.00  0.00    +0.000 A 
ATOM     10  N   UNL     1       0.810   4.329  20.485  0.00  0.00    +0.000 NA
ATOM     11  C   UNL     1       1.604   3.778  19.509  0.00  0.00    +0.000 A 
ATOM     12  C   UNL     1       1.381   2.678  18.592  0.00  0.00    +0.000 A 
ATOM     13  O   UNL     1       0.351   2.018  18.500  0.00  0.00    +0.000 OA
ATOM     14  N   UNL     1       2.469   2.460  17.750  0.00  0.00    +0.000 N 
ATOM     15  H   UNL     1       4.955   5.301  17.501  0.00  0.00    +0.000 HD
ATOM     16  H   UNL     1       4.506   2.083  16.309  0.00  0.00    +0.000 HD
ATOM     17  H   UNL     1       3.450   6.144  20.503  0.00  0.00    +0.000 HD
ATOM     18  H   UNL     1       2.303   1.777  17.030  0.00  0.00    +0.000 HD
ENDROOT
BRANCH   1  19
ATOM     19  C   UNL     1       6.229   6.182  16.069  0.00  0.00    +0.000 C 
BRANCH  19  20
ATOM     20  C   UNL     1       6.456   7.310  17.096  0.00  0.00    +0.000 C 
BRANCH  20  22
ATOM     21  C   UNL     1       8.161   8.788  18.020  0.00  0.00    +0.000 C 
ATOM     22  N   UNL     1       7.838   7.412  17.628  0.00  0.00    +0.000 NA
ATOM     23  C   UNL     1       7.980   6.534  18.796  0.00  0.00    +0.000 C 
ENDBRANCH  20  22
ENDBRANCH  19  20
ENDBRANCH   1  19
TORSDOF 3
ENDMDL
MODEL 7
REMARK VINA RESULT:      -6.5      1.772      6.279
REMARK  Name = 
REMARK  5 active torsions:
REMARK  status: ('A' for Active; 'I' for Inactive)
REMARK    1  A    between atoms: C_1  and  N_2
REMARK    2  A    between atoms: N_2  and  C_3
REMARK    3  A    between atoms: N_2  and  C_4
REMARK    4  A    between atoms: C_4  and  C_5
REMARK    5  A    between atoms: C_5  and  N_6
REMARK                            x       y       z     vdW  Elec       q    Type
REMARK                         _______ _______ _______ _____ _____    ______ ____
ROOT
ATOM      1  N   UNL     1       4.154   4.735  17.205  0.00  0.00    +0.000 N 
ATOM      2  C   UNL     1       5.268   5.150  17.871  0.00  0.00    +0.000 C 
ATOM      3  O   UNL     1       5.277   5.485  19.051  0.00  0.00    +0.000 OA
ATOM      4  N   UNL     1       6.407   5.275  17.107  0.00  0.00    +0.000 N 
ATOM      5  C   UNL     1       6.595   4.868  15.809  0.00  0.00    +0.000 A 
ATOM      6  N   UNL     1       5.800   3.990  15.272  0.00  0.00    +0.000 NA
ATOM      7  C   UNL     1       6.060   3.770  13.972  0.00  0.00    +0.000 A 
ATOM      8  N   UNL     1       5.363   2.923  13.163  0.00  0.00    +0.000 N 
ATOM      9  C   UNL     1       5.896   3.056  11.906  0.00  0.00    +0.000 A 
ATOM     10  N   UNL     1       6.898   3.916  11.878  0.00  0.00    +0.000 NA
ATOM     11  C   UNL     1       7.005   4.363  13.173  0.00  0.00    +0.000 A 
ATOM     12  C   UNL     1       7.876   5.348  13.784  0.00  0.00    +0.000 A 
ATOM     13  O   UNL     1       8.711   6.029  13.198  0.00  0.00    +0.000 OA
ATOM     14  N   UNL     1       7.634   5.497  15.148  0.00  0.00    +0.000 N 
ATOM     15  H   UNL     1       4.327   4.145  16.390  0.00  0.00    +0.000 HD
ATOM     16  H   UNL     1       7.183   5.660  17.624  0.00  0.00    +0.000 HD
ATOM     17  H   UNL     1       4.588   2.344  13.444  0.00  0.00    +0.000 HD
ATOM     18  H   UNL     1       8.144   6.250  15.577  0.00  0.00    +0.000 HD
ENDROOT
BRANCH   1  19
ATOM     19  C   UNL     1       2.864   4.600  17.840  0.00  0.00    +0.000 C 
BRANCH  19  20
ATOM     20  C   UNL     1       2.211   3.231  17.557  0.00  0.00    +0.000 C 
BRANCH  20  22
ATOM     21  C   UNL     1       3.602   1.458  18.487  0.00  0.00    +0.000 C 
ATOM     22  N   UNL     1       2.360   2.223  18.637  0.00  0.00    +0.000 NA
ATOM     23  C   UNL     1       2.367   2.898  19.940  0.00  0.00    +0.000 C 
ENDBRANCH  20  22
ENDBRANCH  19  20
ENDBRANCH   1  19
TORSDOF 3
ENDMDL
MODEL 8
REMARK VINA RESULT:      -6.5      4.251      6.883
REMARK  Name = 
REMARK  5 active torsions:
REMARK  status: ('A' for Active; 'I' for Inactive)
REMARK    1  A    between atoms: C_1  and  N_2
REMARK    2  A    between atoms: N_2  and  C_3
REMARK    3  A    between atoms: N_2  and  C_4
REMARK    4  A    between atoms: C_4  and  C_5
REMARK    5  A    between atoms: C_5  and  N_6
REMARK                            x       y       z     vdW  Elec       q    Type
REMARK                         _______ _______ _______ _____ _____    ______ ____
ROOT
ATOM      1  N   UNL     1       2.593   7.416  18.159  0.00  0.00    +0.000 N 
ATOM      2  C   UNL     1       2.677   6.797  19.371  0.00  0.00    +0.000 C 
ATOM      3  O   UNL     1       1.897   6.996  20.298  0.00  0.00    +0.000 OA
ATOM      4  N   UNL     1       3.772   5.983  19.550  0.00  0.00    +0.000 N 
ATOM      5  C   UNL     1       4.685   5.585  18.604  0.00  0.00    +0.000 A 
ATOM      6  N   UNL     1       4.399   5.666  17.338  0.00  0.00    +0.000 NA
ATOM      7  C   UNL     1       5.429   5.327  16.544  0.00  0.00    +0.000 A 
ATOM      8  N   UNL     1       5.412   5.351  15.181  0.00  0.00    +0.000 N 
ATOM      9  C   UNL     1       6.676   5.018  14.768  0.00  0.00    +0.000 A 
ATOM     10  N   UNL     1       7.482   4.764  15.784  0.00  0.00    +0.000 NA
ATOM     11  C   UNL     1       6.701   4.955  16.899  0.00  0.00    +0.000 A 
ATOM     12  C   UNL     1       7.007   4.881  18.314  0.00  0.00    +0.000 A 
ATOM     13  O   UNL     1       8.109   4.648  18.799  0.00  0.00    +0.000 OA
ATOM     14  N   UNL     1       5.899   5.161  19.111  0.00  0.00    +0.000 N 
ATOM     15  H   UNL     1       3.028   6.916  17.383  0.00  0.00    +0.000 HD
ATOM     16  H   UNL     1       3.833   5.612  20.486  0.00  0.00    +0.000 HD
ATOM     17  H   UNL     1       4.623   5.600  14.606  0.00  0.00    +0.000 HD
ATOM     18  H   UNL     1       6.104   5.226  20.094  0.00  0.00    +0.000 HD
ENDROOT
BRANCH   1  19
ATOM     19  C   UNL     1       1.538   8.344  17.822  0.00  0.00    +0.000 C 
BRANCH  19  20
ATOM     20  C   UNL     1       1.932   9.808  18.110  0.00  0.00    +0.000 C 
BRANCH  20  22
ATOM     21  C   UNL     1      -0.466  10.237  18.190  0.00  0.00    +0.000 C 
ATOM     22  N   UNL     1       0.852  10.653  18.679  0.00  0.00    +0.000 NA
ATOM     23  C   UNL     1       0.874  10.556  20.143  0.00  0.00    +0.000 C 
ENDBRANCH  20  22
ENDBRANCH  19  20
ENDBRANCH   1  19
TORSDOF 3
ENDMDL
MODEL 9
REMARK VINA RESULT:      -6.5      2.453      6.580
REMARK  Name = 
REMARK  5 active torsions:
REMARK  status: ('A' for Active; 'I' for Inactive)
REMARK    1  A    between atoms: C_1  and  N_2
REMARK    2  A    between atoms: N_2  and  C_3
REMARK    3  A    between atoms: N_2  and  C_4
REMARK    4  A    between atoms: C_4  and  C_5
REMARK    5  A    between atoms: C_5  and  N_6
REMARK                            x       y       z     vdW  Elec       q    Type
REMARK                         _______ _______ _______ _____ _____    ______ ____
ROOT
ATOM      1  N   UNL     1       4.512   2.733  19.215  0.00  0.00    +0.000 N 
ATOM      2  C   UNL     1       3.934   2.296  18.062  0.00  0.00    +0.000 C 
ATOM      3  O   UNL     1       3.133   1.367  18.005  0.00  0.00    +0.000 OA
ATOM      4  N   UNL     1       4.377   2.899  16.907  0.00  0.00    +0.000 N 
ATOM      5  C   UNL     1       5.193   3.998  16.795  0.00  0.00    +0.000 A 
ATOM      6  N   UNL     1       5.354   4.805  17.802  0.00  0.00    +0.000 NA
ATOM      7  C   UNL     1       6.253   5.774  17.562  0.00  0.00    +0.000 A 
ATOM      8  N   UNL     1       6.632   6.733  18.453  0.00  0.00    +0.000 N 
ATOM      9  C   UNL     1       7.620   7.464  17.844  0.00  0.00    +0.000 A 
ATOM     10  N   UNL     1       7.870   7.040  16.618  0.00  0.00    +0.000 NA
ATOM     11  C   UNL     1       7.012   5.982  16.438  0.00  0.00    +0.000 A 
ATOM     12  C   UNL     1       6.829   5.068  15.328  0.00  0.00    +0.000 A 
ATOM     13  O   UNL     1       7.482   5.060  14.290  0.00  0.00    +0.000 OA
ATOM     14  N   UNL     1       5.836   4.123  15.577  0.00  0.00    +0.000 N 
ATOM     15  H   UNL     1       4.838   3.700  19.202  0.00  0.00    +0.000 HD
ATOM     16  H   UNL     1       3.980   2.489  16.075  0.00  0.00    +0.000 HD
ATOM     17  H   UNL     1       6.270   6.847  19.387  0.00  0.00    +0.000 HD
ATOM     18  H   UNL     1       5.762   3.407  14.874  0.00  0.00    +0.000 HD
ENDROOT
BRANCH   1  19
ATOM     19  C   UNL     1       4.203   2.172  20.511  0.00  0.00    +0.000 C 
BRANCH  19  20
ATOM     20  C   UNL     1       2.930   2.789  21.127  0.00  0.00    +0.000 C 
BRANCH  20  22
ATOM     21  C   UNL     1       0.840   3.284  19.975  0.00  0.00    +0.000 C 
ATOM     22  N   UNL     1       2.204   3.745  20.255  0.00  0.00    +0.000 NA
ATOM     23  C   UNL     1       2.143   5.057  20.909  0.00  0.00    +0.000 C 
ENDBRANCH  20  22
ENDBRANCH  19  20
ENDBRANCH   1  19
TORSDOF 3
ENDMDL
