MODEL 1
REMARK VINA RESULT:      -7.2      0.000      0.000
REMARK  Name = 
REMARK  3 active torsions:
REMARK  status: ('A' for Active; 'I' for Inactive)
REMARK    1  A    between atoms: C_2  and  C_3
REMARK    2  A    between atoms: C_4  and  N_5
REMARK    3  A    between atoms: C_6  and  C_8
REMARK                            x       y       z     vdW  Elec       q    Type
REMARK                         _______ _______ _______ _____ _____    ______ ____
ROOT
ATOM      1  N   UNL     1       3.582   6.916  17.237  0.00  0.00    +0.000 N 
ATOM      2  C   UNL     1       4.830   6.344  17.515  0.00  0.00    +0.000 C 
ATOM      3  O   UNL     1       5.366   6.293  18.617  0.00  0.00    +0.000 OA
ATOM      4  H   UNL     1       3.212   6.731  16.307  0.00  0.00    +0.000 HD
ENDROOT
BRANCH   1   6
ATOM      5  C   UNL     1       2.278   7.054  19.394  0.00  0.00    +0.000 A 
ATOM      6  C   UNL     1       2.765   7.533  18.187  0.00  0.00    +0.000 A 
ATOM      7  S   UNL     1       2.172   9.098  17.879  0.00  0.00    +0.000 S 
ATOM      8  C   UNL     1       1.392   9.221  19.383  0.00  0.00    +0.000 A 
ATOM      9  C   UNL     1       1.517   8.058  20.128  0.00  0.00    +0.000 A 
ATOM     10  C   UNL     1       0.945   7.875  21.517  0.00  0.00    +0.000 C 
ATOM     11  C   UNL     1       1.098   9.120  22.395  0.00  0.00    +0.000 C 
ATOM     12  C   UNL     1       0.034  10.197  22.160  0.00  0.00    +0.000 C 
ATOM     13  C   UNL     1      -0.424  10.391  20.713  0.00  0.00    +0.000 C 
ATOM     14  C   UNL     1       0.723  10.529  19.719  0.00  0.00    +0.000 C 
BRANCH   5  16
ATOM     15  N   UNL     1       2.769   4.696  20.364  0.00  0.00    +0.000 NA
ATOM     16  C   UNL     1       2.550   5.736  19.906  0.00  0.00    +0.000 C 
ENDBRANCH   5  16
ENDBRANCH   1   6
BRANCH   2  17
ATOM     17  C   UNL     1       5.469   5.698  16.348  0.00  0.00    +0.000 A 
ATOM     18  N   UNL     1       6.630   6.155  15.755  0.00  0.00    +0.000 NA
ATOM     19  C   UNL     1       6.793   5.349  14.725  0.00  0.00    +0.000 A 
ATOM     20  N   UNL     1       7.786   5.315  13.784  0.00  0.00    +0.000 NA
ATOM     21  C   UNL     1       7.585   4.515  12.779  0.00  0.00    +0.000 A 
ATOM     22  C   UNL     1       6.384   3.659  12.550  0.00  0.00    +0.000 A 
ATOM     23  C   UNL     1       5.502   3.650  13.558  0.00  0.00    +0.000 A 
ATOM     24  N   UNL     1       5.703   4.474  14.656  0.00  0.00    +0.000 N 
ATOM     25  N   UNL     1       4.919   4.636  15.732  0.00  0.00    +0.000 NA
ENDBRANCH   2  17
TORSDOF 3
ENDMDL
MODEL 2
REMARK VINA RESULT:      -7.2      3.031      8.584
REMARK  Name = 
REMARK  3 active torsions:
REMARK  status: ('A' for Active; 'I' for Inactive)
REMARK    1  A    between atoms: C_2  and  C_3
REMARK    2  A    between atoms: C_4  and  N_5
REMARK    3  A    between atoms: C_6  and  C_8
REMARK                            x       y       z     vdW  Elec       q    Type
REMARK                         _______ _______ _______ _____ _____    ______ ____
ROOT
ATOM      1  N   UNL     1       2.564   7.491  19.006  0.00  0.00    +0.000 N 
ATOM      2  C   UNL     1       1.955   8.670  18.559  0.00  0.00    +0.000 C 
ATOM      3  O   UNL     1       2.102   9.180  17.454  0.00  0.00    +0.000 OA
ATOM      4  H   UNL     1       2.211   7.120  19.885  0.00  0.00    +0.000 HD
ENDROOT
BRANCH   1   6
ATOM      5  C   UNL     1       3.292   5.468  17.683  0.00  0.00    +0.000 A 
ATOM      6  C   UNL     1       3.452   6.723  18.248  0.00  0.00    +0.000 A 
ATOM      7  S   UNL     1       5.026   7.310  17.970  0.00  0.00    +0.000 S 
ATOM      8  C   UNL     1       5.464   5.995  16.988  0.00  0.00    +0.000 A 
ATOM      9  C   UNL     1       4.448   5.057  16.895  0.00  0.00    +0.000 A 
ATOM     10  C   UNL     1       4.536   3.788  16.075  0.00  0.00    +0.000 C 
ATOM     11  C   UNL     1       5.230   3.996  14.725  0.00  0.00    +0.000 C 
ATOM     12  C   UNL     1       6.760   3.995  14.791  0.00  0.00    +0.000 C 
ATOM     13  C   UNL     1       7.385   4.646  16.026  0.00  0.00    +0.000 C 
ATOM     14  C   UNL     1       6.825   6.028  16.343  0.00  0.00    +0.000 C 
BRANCH   5  16
ATOM     15  N   UNL     1       1.144   4.018  17.854  0.00  0.00    +0.000 NA
ATOM     16  C   UNL     1       2.090   4.681  17.796  0.00  0.00    +0.000 C 
ENDBRANCH   5  16
ENDBRANCH   1   6
BRANCH   2  17
ATOM     17  C   UNL     1       1.007   9.261  19.529  0.00  0.00    +0.000 A 
ATOM     18  N   UNL     1       0.278  10.410  19.290  0.00  0.00    +0.000 NA
ATOM     19  C   UNL     1      -0.362  10.615  20.425  0.00  0.00    +0.000 A 
ATOM     20  N   UNL     1      -1.245  11.601  20.769  0.00  0.00    +0.000 NA
ATOM     21  C   UNL     1      -1.580  11.647  22.025  0.00  0.00    +0.000 A 
ATOM     22  C   UNL     1      -1.082  10.752  23.111  0.00  0.00    +0.000 A 
ATOM     23  C   UNL     1      -0.311   9.740  22.693  0.00  0.00    +0.000 A 
ATOM     24  N   UNL     1       0.042   9.649  21.355  0.00  0.00    +0.000 N 
ATOM     25  N   UNL     1       0.833   8.745  20.759  0.00  0.00    +0.000 NA
ENDBRANCH   2  17
TORSDOF 3
ENDMDL
MODEL 3
REMARK VINA RESULT:      -7.1      2.910      4.722
REMARK  Name = 
REMARK  3 active torsions:
REMARK  status: ('A' for Active; 'I' for Inactive)
REMARK    1  A    between atoms: C_2  and  C_3
REMARK    2  A    between atoms: C_4  and  N_5
REMARK    3  A    between atoms: C_6  and  C_8
REMARK                            x       y       z     vdW  Elec       q    Type
REMARK                         _______ _______ _______ _____ _____    ______ ____
ROOT
ATOM      1  N   UNL     1       1.057   8.803  19.384  0.00  0.00    +0.000 N 
ATOM      2  C   UNL     1       1.958   8.831  18.312  0.00  0.00    +0.000 C 
ATOM      3  O   UNL     1       2.218   9.808  17.618  0.00  0.00    +0.000 OA
ATOM      4  H   UNL     1       1.078   7.961  19.954  0.00  0.00    +0.000 HD
ENDROOT
BRANCH   1   6
ATOM      5  C   UNL     1      -0.772  10.535  19.214  0.00  0.00    +0.000 A 
ATOM      6  C   UNL     1       0.304   9.899  19.813  0.00  0.00    +0.000 A 
ATOM      7  S   UNL     1       0.735  10.685  21.259  0.00  0.00    +0.000 S 
ATOM      8  C   UNL     1      -0.568  11.773  21.190  0.00  0.00    +0.000 A 
ATOM      9  C   UNL     1      -1.325  11.600  20.041  0.00  0.00    +0.000 A 
ATOM     10  C   UNL     1      -2.561  12.408  19.711  0.00  0.00    +0.000 C 
ATOM     11  C   UNL     1      -3.449  12.669  20.932  0.00  0.00    +0.000 C 
ATOM     12  C   UNL     1      -2.989  13.835  21.813  0.00  0.00    +0.000 C 
ATOM     13  C   UNL     1      -1.478  14.006  21.975  0.00  0.00    +0.000 C 
ATOM     14  C   UNL     1      -0.750  12.720  22.347  0.00  0.00    +0.000 C 
BRANCH   5  16
ATOM     15  N   UNL     1      -1.832   9.842  16.945  0.00  0.00    +0.000 NA
ATOM     16  C   UNL     1      -1.335  10.144  17.947  0.00  0.00    +0.000 C 
ENDBRANCH   5  16
ENDBRANCH   1   6
BRANCH   2  17
ATOM     17  C   UNL     1       2.678   7.557  18.099  0.00  0.00    +0.000 A 
ATOM     18  N   UNL     1       3.842   7.443  17.364  0.00  0.00    +0.000 NA
ATOM     19  C   UNL     1       4.088   6.148  17.367  0.00  0.00    +0.000 A 
ATOM     20  N   UNL     1       5.122   5.449  16.807  0.00  0.00    +0.000 NA
ATOM     21  C   UNL     1       5.004   4.154  16.824  0.00  0.00    +0.000 A 
ATOM     22  C   UNL     1       3.856   3.374  17.370  0.00  0.00    +0.000 A 
ATOM     23  C   UNL     1       2.931   4.106  18.004  0.00  0.00    +0.000 A 
ATOM     24  N   UNL     1       3.044   5.489  18.026  0.00  0.00    +0.000 N 
ATOM     25  N   UNL     1       2.206   6.386  18.565  0.00  0.00    +0.000 NA
ENDBRANCH   2  17
TORSDOF 3
ENDMDL
MODEL 4
REMARK VINA RESULT:      -7.1      4.372      9.633
REMARK  Name = 
REMARK  3 active torsions:
REMARK  status: ('A' for Active; 'I' for Inactive)
REMARK    1  A    between atoms: C_2  and  C_3
REMARK    2  A    between atoms: C_4  and  N_5
REMARK    3  A    between atoms: C_6  and  C_8
REMARK                            x       y       z     vdW  Elec       q    Type
REMARK                         _______ _______ _______ _____ _____    ______ ____
ROOT
ATOM      1  N   UNL     1       0.643   8.913  20.734  0.00  0.00    +0.000 N 
ATOM      2  C   UNL     1       0.940   9.549  21.946  0.00  0.00    +0.000 C 
ATOM      3  O   UNL     1       1.940   9.359  22.630  0.00  0.00    +0.000 OA
ATOM      4  H   UNL     1      -0.142   9.301  20.216  0.00  0.00    +0.000 HD
ENDROOT
BRANCH   1   6
ATOM      5  C   UNL     1       2.170   7.995  18.946  0.00  0.00    +0.000 A 
ATOM      6  C   UNL     1       1.451   7.947  20.130  0.00  0.00    +0.000 A 
ATOM      7  S   UNL     1       1.588   6.412  20.853  0.00  0.00    +0.000 S 
ATOM      8  C   UNL     1       2.704   5.845  19.703  0.00  0.00    +0.000 A 
ATOM      9  C   UNL     1       2.953   6.787  18.716  0.00  0.00    +0.000 A 
ATOM     10  C   UNL     1       3.917   6.577  17.569  0.00  0.00    +0.000 C 
ATOM     11  C   UNL     1       5.201   5.856  17.991  0.00  0.00    +0.000 C 
ATOM     12  C   UNL     1       5.070   4.333  18.086  0.00  0.00    +0.000 C 
ATOM     13  C   UNL     1       3.740   3.800  18.620  0.00  0.00    +0.000 C 
ATOM     14  C   UNL     1       3.282   4.469  19.910  0.00  0.00    +0.000 C 
BRANCH   5  16
ATOM     15  N   UNL     1       2.195  10.077  17.393  0.00  0.00    +0.000 NA
ATOM     16  C   UNL     1       2.205   9.139  18.071  0.00  0.00    +0.000 C 
ENDBRANCH   5  16
ENDBRANCH   1   6
BRANCH   2  17
ATOM     17  C   UNL     1      -0.044  10.580  22.341  0.00  0.00    +0.000 A 
ATOM     18  N   UNL     1      -1.190  10.313  23.064  0.00  0.00    +0.000 NA
ATOM     19  C   UNL     1      -1.802  11.480  23.122  0.00  0.00    +0.000 A 
ATOM     20  N   UNL     1      -2.979  11.825  23.727  0.00  0.00    +0.000 NA
ATOM     21  C   UNL     1      -3.422  13.019  23.462  0.00  0.00    +0.000 A 
ATOM     22  C   UNL     1      -2.786  14.022  22.559  0.00  0.00    +0.000 A 
ATOM     23  C   UNL     1      -1.584  13.670  22.087  0.00  0.00    +0.000 A 
ATOM     24  N   UNL     1      -1.073  12.412  22.374  0.00  0.00    +0.000 N 
ATOM     25  N   UNL     1       0.080  11.865  21.962  0.00  0.00    +0.000 NA
ENDBRANCH   2  17
TORSDOF 3
ENDMDL
MODEL 5
REMARK VINA RESULT:      -7.0      7.301      8.492
REMARK  Name = 
REMARK  3 active torsions:
REMARK  status: ('A' for Active; 'I' for Inactive)
REMARK    1  A    between atoms: C_2  and  C_3
REMARK    2  A    between atoms: C_4  and  N_5
REMARK    3  A    between atoms: C_6  and  C_8
REMARK                            x       y       z     vdW  Elec       q    Type
REMARK                         _______ _______ _______ _____ _____    ______ ____
ROOT
ATOM      1  N   UNL     1       8.539  11.043  17.631  0.00  0.00    +0.000 N 
ATOM      2  C   UNL     1       8.749  10.056  18.602  0.00  0.00    +0.000 C 
ATOM      3  O   UNL     1       9.221  10.236  19.719  0.00  0.00    +0.000 OA
ATOM      4  H   UNL     1       7.991  10.755  16.823  0.00  0.00    +0.000 HD
ENDROOT
BRANCH   1   6
ATOM      5  C   UNL     1      10.084  13.008  17.984  0.00  0.00    +0.000 A 
ATOM      6  C   UNL     1       8.856  12.394  17.795  0.00  0.00    +0.000 A 
ATOM      7  S   UNL     1       7.598  13.539  17.846  0.00  0.00    +0.000 S 
ATOM      8  C   UNL     1       8.656  14.863  17.970  0.00  0.00    +0.000 A 
ATOM      9  C   UNL     1       9.981  14.462  18.032  0.00  0.00    +0.000 A 
ATOM     10  C   UNL     1      11.153  15.416  18.124  0.00  0.00    +0.000 C 
ATOM     11  C   UNL     1      10.985  16.656  17.243  0.00  0.00    +0.000 C 
ATOM     12  C   UNL     1      10.112  17.756  17.855  0.00  0.00    +0.000 C 
ATOM     13  C   UNL     1       8.906  17.287  18.671  0.00  0.00    +0.000 C 
ATOM     14  C   UNL     1       8.052  16.243  17.962  0.00  0.00    +0.000 C 
BRANCH   5  16
ATOM     15  N   UNL     1      12.326  11.706  18.147  0.00  0.00    +0.000 NA
ATOM     16  C   UNL     1      11.336  12.300  18.053  0.00  0.00    +0.000 C 
ENDBRANCH   5  16
ENDBRANCH   1   6
BRANCH   2  17
ATOM     17  C   UNL     1       8.270   8.713  18.206  0.00  0.00    +0.000 A 
ATOM     18  N   UNL     1       7.430   8.481  17.135  0.00  0.00    +0.000 NA
ATOM     19  C   UNL     1       7.200   7.183  17.194  0.00  0.00    +0.000 A 
ATOM     20  N   UNL     1       6.447   6.386  16.376  0.00  0.00    +0.000 NA
ATOM     21  C   UNL     1       6.262   5.167  16.789  0.00  0.00    +0.000 A 
ATOM     22  C   UNL     1       6.769   4.573  18.060  0.00  0.00    +0.000 A 
ATOM     23  C   UNL     1       7.591   5.365  18.760  0.00  0.00    +0.000 A 
ATOM     24  N   UNL     1       7.828   6.662  18.331  0.00  0.00    +0.000 N 
ATOM     25  N   UNL     1       8.576   7.611  18.913  0.00  0.00    +0.000 NA
ENDBRANCH   2  17
TORSDOF 3
ENDMDL
MODEL 6
REMARK VINA RESULT:      -6.9      3.594      8.773
REMARK  Name = 
REMARK  3 active torsions:
REMARK  status: ('A' for Active; 'I' for Inactive)
REMARK    1  A    between atoms: C_2  and  C_3
REMARK    2  A    between atoms: C_4  and  N_5
REMARK    3  A    between atoms: C_6  and  C_8
REMARK                            x       y       z     vdW  Elec       q    Type
REMARK                         _______ _______ _______ _____ _____    ______ ____
ROOT
ATOM      1  N   UNL     1       1.785   8.172  19.543  0.00  0.00    +0.000 N 
ATOM      2  C   UNL     1       1.156   9.280  18.962  0.00  0.00    +0.000 C 
ATOM      3  O   UNL     1       1.283   9.650  17.799  0.00  0.00    +0.000 OA
ATOM      4  H   UNL     1       1.448   7.909  20.466  0.00  0.00    +0.000 HD
ENDROOT
BRANCH   1   6
ATOM      5  C   UNL     1       3.029   6.012  19.140  0.00  0.00    +0.000 A 
ATOM      6  C   UNL     1       2.672   7.325  18.873  0.00  0.00    +0.000 A 
ATOM      7  S   UNL     1       3.547   7.926  17.543  0.00  0.00    +0.000 S 
ATOM      8  C   UNL     1       4.292   6.434  17.214  0.00  0.00    +0.000 A 
ATOM      9  C   UNL     1       3.937   5.464  18.139  0.00  0.00    +0.000 A 
ATOM     10  C   UNL     1       4.425   4.032  18.096  0.00  0.00    +0.000 C 
ATOM     11  C   UNL     1       4.473   3.460  16.676  0.00  0.00    +0.000 C 
ATOM     12  C   UNL     1       5.721   3.851  15.877  0.00  0.00    +0.000 C 
ATOM     13  C   UNL     1       6.248   5.270  16.097  0.00  0.00    +0.000 C 
ATOM     14  C   UNL     1       5.175   6.347  15.997  0.00  0.00    +0.000 C 
BRANCH   5  16
ATOM     15  N   UNL     1       2.070   4.594  21.094  0.00  0.00    +0.000 NA
ATOM     16  C   UNL     1       2.508   5.244  20.242  0.00  0.00    +0.000 C 
ENDBRANCH   5  16
ENDBRANCH   1   6
BRANCH   2  17
ATOM     17  C   UNL     1       0.214   9.977  19.864  0.00  0.00    +0.000 A 
ATOM     18  N   UNL     1      -0.554  11.061  19.486  0.00  0.00    +0.000 NA
ATOM     19  C   UNL     1      -1.173  11.408  20.598  0.00  0.00    +0.000 A 
ATOM     20  N   UNL     1      -2.077  12.410  20.824  0.00  0.00    +0.000 NA
ATOM     21  C   UNL     1      -2.383  12.624  22.070  0.00  0.00    +0.000 A 
ATOM     22  C   UNL     1      -1.835  11.904  23.256  0.00  0.00    +0.000 A 
ATOM     23  C   UNL     1      -1.044  10.863  22.964  0.00  0.00    +0.000 A 
ATOM     24  N   UNL     1      -0.720  10.594  21.642  0.00  0.00    +0.000 N 
ATOM     25  N   UNL     1       0.083   9.635  21.158  0.00  0.00    +0.000 NA
ENDBRANCH   2  17
TORSDOF 3
ENDMDL
MODEL 7
REMARK VINA RESULT:      -6.9      2.985      4.960
REMARK  Name = 
REMARK  3 active torsions:
REMARK  status: ('A' for Active; 'I' for Inactive)
REMARK    1  A    between atoms: C_2  and  C_3
REMARK    2  A    between atoms: C_4  and  N_5
REMARK    3  A    between atoms: C_6  and  C_8
REMARK                            x       y       z     vdW  Elec       q    Type
REMARK                         _______ _______ _______ _____ _____    ______ ____
ROOT
ATOM      1  N   UNL     1       1.079   8.908  19.416  0.00  0.00    +0.000 N 
ATOM      2  C   UNL     1       1.933   8.898  18.307  0.00  0.00    +0.000 C 
ATOM      3  O   UNL     1       2.141   9.842  17.552  0.00  0.00    +0.000 OA
ATOM      4  H   UNL     1       1.144   8.097  20.028  0.00  0.00    +0.000 HD
ENDROOT
BRANCH   1   6
ATOM      5  C   UNL     1      -0.788  10.597  19.226  0.00  0.00    +0.000 A 
ATOM      6  C   UNL     1       0.318  10.008  19.819  0.00  0.00    +0.000 A 
ATOM      7  S   UNL     1       0.778  10.866  21.215  0.00  0.00    +0.000 S 
ATOM      8  C   UNL     1      -0.548  11.926  21.138  0.00  0.00    +0.000 A 
ATOM      9  C   UNL     1      -1.336  11.688  20.022  0.00  0.00    +0.000 A 
ATOM     10  C   UNL     1      -2.597  12.458  19.695  0.00  0.00    +0.000 C 
ATOM     11  C   UNL     1      -3.452  12.758  20.929  0.00  0.00    +0.000 C 
ATOM     12  C   UNL     1      -2.988  13.971  21.743  0.00  0.00    +0.000 C 
ATOM     13  C   UNL     1      -1.476  14.176  21.850  0.00  0.00    +0.000 C 
ATOM     14  C   UNL     1      -0.713  12.921  22.257  0.00  0.00    +0.000 C 
BRANCH   5  16
ATOM     15  N   UNL     1      -1.856   9.819  16.989  0.00  0.00    +0.000 NA
ATOM     16  C   UNL     1      -1.381  10.140  17.995  0.00  0.00    +0.000 C 
ENDBRANCH   5  16
ENDBRANCH   1   6
BRANCH   2  17
ATOM     17  C   UNL     1       2.674   7.630  18.130  0.00  0.00    +0.000 A 
ATOM     18  N   UNL     1       2.369   6.461  18.799  0.00  0.00    +0.000 NA
ATOM     19  C   UNL     1       3.310   5.623  18.409  0.00  0.00    +0.000 A 
ATOM     20  N   UNL     1       3.507   4.310  18.736  0.00  0.00    +0.000 NA
ATOM     21  C   UNL     1       4.629   3.789  18.334  0.00  0.00    +0.000 A 
ATOM     22  C   UNL     1       5.711   4.485  17.578  0.00  0.00    +0.000 A 
ATOM     23  C   UNL     1       5.411   5.731  17.190  0.00  0.00    +0.000 A 
ATOM     24  N   UNL     1       4.211   6.305  17.583  0.00  0.00    +0.000 N 
ATOM     25  N   UNL     1       3.756   7.542  17.335  0.00  0.00    +0.000 NA
ENDBRANCH   2  17
TORSDOF 3
ENDMDL
MODEL 8
REMARK VINA RESULT:      -6.9      3.634      8.832
REMARK  Name = 
REMARK  3 active torsions:
REMARK  status: ('A' for Active; 'I' for Inactive)
REMARK    1  A    between atoms: C_2  and  C_3
REMARK    2  A    between atoms: C_4  and  N_5
REMARK    3  A    between atoms: C_6  and  C_8
REMARK                            x       y       z     vdW  Elec       q    Type
REMARK                         _______ _______ _______ _____ _____    ______ ____
ROOT
ATOM      1  N   UNL     1       1.864   8.376  19.649  0.00  0.00    +0.000 N 
ATOM      2  C   UNL     1       1.013   9.313  19.049  0.00  0.00    +0.000 C 
ATOM      3  O   UNL     1       0.845   9.462  17.844  0.00  0.00    +0.000 OA
ATOM      4  H   UNL     1       1.765   8.274  20.657  0.00  0.00    +0.000 HD
ENDROOT
BRANCH   1   6
ATOM      5  C   UNL     1       2.903   6.126  19.171  0.00  0.00    +0.000 A 
ATOM      6  C   UNL     1       2.666   7.473  18.947  0.00  0.00    +0.000 A 
ATOM      7  S   UNL     1       3.584   8.032  17.628  0.00  0.00    +0.000 S 
ATOM      8  C   UNL     1       4.188   6.490  17.248  0.00  0.00    +0.000 A 
ATOM      9  C   UNL     1       3.751   5.529  18.147  0.00  0.00    +0.000 A 
ATOM     10  C   UNL     1       4.106   4.060  18.056  0.00  0.00    +0.000 C 
ATOM     11  C   UNL     1       4.095   3.530  16.620  0.00  0.00    +0.000 C 
ATOM     12  C   UNL     1       5.368   3.830  15.822  0.00  0.00    +0.000 C 
ATOM     13  C   UNL     1       6.024   5.187  16.081  0.00  0.00    +0.000 C 
ATOM     14  C   UNL     1       5.053   6.360  16.022  0.00  0.00    +0.000 C 
BRANCH   5  16
ATOM     15  N   UNL     1       1.898   4.754  21.135  0.00  0.00    +0.000 NA
ATOM     16  C   UNL     1       2.321   5.375  20.254  0.00  0.00    +0.000 C 
ENDBRANCH   5  16
ENDBRANCH   1   6
BRANCH   2  17
ATOM     17  C   UNL     1       0.223  10.111  20.013  0.00  0.00    +0.000 A 
ATOM     18  N   UNL     1       0.110   9.805  21.355  0.00  0.00    +0.000 NA
ATOM     19  C   UNL     1      -0.731  10.712  21.812  0.00  0.00    +0.000 A 
ATOM     20  N   UNL     1      -1.205  10.910  23.080  0.00  0.00    +0.000 NA
ATOM     21  C   UNL     1      -2.166  11.779  23.194  0.00  0.00    +0.000 A 
ATOM     22  C   UNL     1      -2.802  12.551  22.088  0.00  0.00    +0.000 A 
ATOM     23  C   UNL     1      -2.221  12.398  20.891  0.00  0.00    +0.000 A 
ATOM     24  N   UNL     1      -1.176  11.498  20.743  0.00  0.00    +0.000 N 
ATOM     25  N   UNL     1      -0.503  11.176  19.629  0.00  0.00    +0.000 NA
ENDBRANCH   2  17
TORSDOF 3
ENDMDL
MODEL 9
REMARK VINA RESULT:      -6.8      2.520      4.050
REMARK  Name = 
REMARK  3 active torsions:
REMARK  status: ('A' for Active; 'I' for Inactive)
REMARK    1  A    between atoms: C_2  and  C_3
REMARK    2  A    between atoms: C_4  and  N_5
REMARK    3  A    between atoms: C_6  and  C_8
REMARK                            x       y       z     vdW  Elec       q    Type
REMARK                         _______ _______ _______ _____ _____    ______ ____
ROOT
ATOM      1  N   UNL     1       2.000   8.640  18.969  0.00  0.00    +0.000 N 
ATOM      2  C   UNL     1       2.193   7.346  19.469  0.00  0.00    +0.000 C 
ATOM      3  O   UNL     1       1.458   6.767  20.261  0.00  0.00    +0.000 OA
ATOM      4  H   UNL     1       2.610   8.909  18.200  0.00  0.00    +0.000 HD
ENDROOT
BRANCH   1   6
ATOM      5  C   UNL     1       0.539   9.949  20.558  0.00  0.00    +0.000 A 
ATOM      6  C   UNL     1       0.934   9.473  19.317  0.00  0.00    +0.000 A 
ATOM      7  S   UNL     1      -0.144   9.989  18.106  0.00  0.00    +0.000 S 
ATOM      8  C   UNL     1      -1.052  10.956  19.167  0.00  0.00    +0.000 A 
ATOM      9  C   UNL     1      -0.592  10.865  20.472  0.00  0.00    +0.000 A 
ATOM     10  C   UNL     1      -1.187  11.627  21.637  0.00  0.00    +0.000 C 
ATOM     11  C   UNL     1      -1.566  13.066  21.277  0.00  0.00    +0.000 C 
ATOM     12  C   UNL     1      -2.916  13.208  20.567  0.00  0.00    +0.000 C 
ATOM     13  C   UNL     1      -3.278  12.102  19.575  0.00  0.00    +0.000 C 
ATOM     14  C   UNL     1      -2.168  11.781  18.581  0.00  0.00    +0.000 C 
BRANCH   5  16
ATOM     15  N   UNL     1       1.726   9.418  22.807  0.00  0.00    +0.000 NA
ATOM     16  C   UNL     1       1.212   9.636  21.792  0.00  0.00    +0.000 C 
ENDBRANCH   5  16
ENDBRANCH   1   6
BRANCH   2  17
ATOM     17  C   UNL     1       3.364   6.649  18.895  0.00  0.00    +0.000 A 
ATOM     18  N   UNL     1       4.087   5.680  19.564  0.00  0.00    +0.000 NA
ATOM     19  C   UNL     1       5.068   5.392  18.731  0.00  0.00    +0.000 A 
ATOM     20  N   UNL     1       6.088   4.489  18.854  0.00  0.00    +0.000 NA
ATOM     21  C   UNL     1       7.013   4.553  17.942  0.00  0.00    +0.000 A 
ATOM     22  C   UNL     1       7.074   5.517  16.804  0.00  0.00    +0.000 A 
ATOM     23  C   UNL     1       5.995   6.298  16.673  0.00  0.00    +0.000 A 
ATOM     24  N   UNL     1       4.979   6.234  17.616  0.00  0.00    +0.000 N 
ATOM     25  N   UNL     1       3.853   6.958  17.680  0.00  0.00    +0.000 NA
ENDBRANCH   2  17
TORSDOF 3
ENDMDL
