MODEL 1
REMARK VINA RESULT:      -6.9      0.000      0.000
REMARK  Name = 
REMARK  7 active torsions:
REMARK  status: ('A' for Active; 'I' for Inactive)
REMARK    1  A    between atoms: C_1  and  C_2
REMARK    2  A    between atoms: C_2  and  O_3
REMARK    3  A    between atoms: O_3  and  C_4
REMARK    4  A    between atoms: C_4  and  C_6
REMARK    5  A    between atoms: C_13  and  O_14
REMARK    6  A    between atoms: O_14  and  C_15
REMARK    7  A    between atoms: C_32  and  C_33
REMARK                            x       y       z     vdW  Elec       q    Type
REMARK                         _______ _______ _______ _____ _____    ______ ____
ROOT
ATOM      1  C   UNL     1      -1.370  13.129  22.854  0.00  0.00    +0.000 C 
ATOM      2  C   UNL     1      -0.576  11.805  22.788  0.00  0.00    +0.000 C 
ATOM      3  C   UNL     1      -1.082  10.487  23.319  0.00  0.00    +0.000 C 
ATOM      4  O   UNL     1      -0.070   9.469  23.146  0.00  0.00    +0.000 OA
ATOM      5  C   UNL     1       0.471   9.390  21.883  0.00  0.00    +0.000 A 
ATOM      6  C   UNL     1       1.063   8.177  21.530  0.00  0.00    +0.000 A 
ATOM      7  C   UNL     1       1.539   7.969  20.227  0.00  0.00    +0.000 A 
ATOM      8  C   UNL     1       1.422   8.979  19.274  0.00  0.00    +0.000 A 
ATOM      9  C   UNL     1       0.860  10.201  19.645  0.00  0.00    +0.000 A 
ATOM     10  C   UNL     1       0.428  10.439  20.958  0.00  0.00    +0.000 A 
ATOM     11  C   UNL     1      -0.303  11.682  21.312  0.00  0.00    +0.000 C 
ATOM     12  N   UNL     1       0.146  13.046  21.055  0.00  0.00    +0.000 N 
ATOM     13  C   UNL     1       1.243  13.447  20.349  0.00  0.00    +0.000 C 
ATOM     14  O   UNL     1       2.245  12.785  20.130  0.00  0.00    +0.000 OA
ATOM     15  C   UNL     1       1.174  14.816  19.816  0.00  0.00    +0.000 A 
ATOM     16  C   UNL     1       2.215  15.702  20.119  0.00  0.00    +0.000 A 
ATOM     17  C   UNL     1       2.140  17.012  19.659  0.00  0.00    +0.000 A 
ATOM     18  C   UNL     1       1.111  17.373  18.790  0.00  0.00    +0.000 A 
ATOM     19  F   UNL     1       1.054  18.630  18.334  0.00  0.00    +0.000 F 
ATOM     20  C   UNL     1       0.087  16.487  18.460  0.00  0.00    +0.000 A 
ATOM     21  C   UNL     1       0.047  15.245  19.092  0.00  0.00    +0.000 A 
ATOM     22  N   UNL     1      -1.218  14.611  19.167  0.00  0.00    +0.000 N 
ATOM     23  C   UNL     1      -1.787  14.091  20.331  0.00  0.00    +0.000 C 
ATOM     24  O   UNL     1      -2.979  13.791  20.319  0.00  0.00    +0.000 OA
ATOM     25  C   UNL     1      -0.885  13.950  21.606  0.00  0.00    +0.000 C 
ATOM     26  C   UNL     1      -0.463  15.335  22.145  0.00  0.00    +0.000 C 
ATOM     27  H   UNL     1      -1.912  14.826  18.458  0.00  0.00    +0.000 HD
ENDROOT
BRANCH   1  28
ATOM     28  C   UNL     1      -2.862  13.076  23.005  0.00  0.00    +0.000 C 
ATOM     29  O   UNL     1      -3.554  12.089  22.852  0.00  0.00    +0.000 OA
BRANCH  28  30
ATOM     30  O   UNL     1      -3.287  14.273  23.506  0.00  0.00    +0.000 OA
BRANCH  30  32
ATOM     31  C   UNL     1      -2.591  15.522  25.445  0.00  0.00    +0.000 C 
ATOM     32  C   UNL     1      -3.397  14.345  24.930  0.00  0.00    +0.000 C 
ENDBRANCH  30  32
ENDBRANCH  28  30
ENDBRANCH   1  28
BRANCH   8  33
ATOM     33  O   UNL     1       1.790   8.909  17.959  0.00  0.00    +0.000 OA
ATOM     34  C   UNL     1       2.832   8.006  17.622  0.00  0.00    +0.000 C 
ENDBRANCH   8  33
TORSDOF 4
ENDMDL
MODEL 2
REMARK VINA RESULT:      -6.9      3.174      6.426
REMARK  Name = 
REMARK  7 active torsions:
REMARK  status: ('A' for Active; 'I' for Inactive)
REMARK    1  A    between atoms: C_1  and  C_2
REMARK    2  A    between atoms: C_2  and  O_3
REMARK    3  A    between atoms: O_3  and  C_4
REMARK    4  A    between atoms: C_4  and  C_6
REMARK    5  A    between atoms: C_13  and  O_14
REMARK    6  A    between atoms: O_14  and  C_15
REMARK    7  A    between atoms: C_32  and  C_33
REMARK                            x       y       z     vdW  Elec       q    Type
REMARK                         _______ _______ _______ _____ _____    ______ ____
ROOT
ATOM      1  C   UNL     1      -2.890  11.643  18.007  0.00  0.00    +0.000 C 
ATOM      2  C   UNL     1      -4.046  12.163  18.890  0.00  0.00    +0.000 C 
ATOM      3  C   UNL     1      -5.395  11.498  18.998  0.00  0.00    +0.000 C 
ATOM      4  O   UNL     1      -6.256  12.273  19.863  0.00  0.00    +0.000 OA
ATOM      5  C   UNL     1      -5.706  12.618  21.077  0.00  0.00    +0.000 A 
ATOM      6  C   UNL     1      -6.601  12.926  22.103  0.00  0.00    +0.000 A 
ATOM      7  C   UNL     1      -6.134  13.180  23.401  0.00  0.00    +0.000 A 
ATOM      8  C   UNL     1      -4.768  13.126  23.673  0.00  0.00    +0.000 A 
ATOM      9  C   UNL     1      -3.879  12.852  22.633  0.00  0.00    +0.000 A 
ATOM     10  C   UNL     1      -4.329  12.648  21.320  0.00  0.00    +0.000 A 
ATOM     11  C   UNL     1      -3.399  12.213  20.249  0.00  0.00    +0.000 C 
ATOM     12  N   UNL     1      -2.150  12.867  19.876  0.00  0.00    +0.000 N 
ATOM     13  C   UNL     1      -1.537  13.917  20.497  0.00  0.00    +0.000 C 
ATOM     14  O   UNL     1      -2.071  14.742  21.222  0.00  0.00    +0.000 OA
ATOM     15  C   UNL     1      -0.092  14.032  20.246  0.00  0.00    +0.000 A 
ATOM     16  C   UNL     1       0.405  15.249  19.765  0.00  0.00    +0.000 A 
ATOM     17  C   UNL     1       1.762  15.357  19.481  0.00  0.00    +0.000 A 
ATOM     18  C   UNL     1       2.616  14.307  19.816  0.00  0.00    +0.000 A 
ATOM     19  F   UNL     1       3.924  14.423  19.560  0.00  0.00    +0.000 F 
ATOM     20  C   UNL     1       2.131  13.102  20.323  0.00  0.00    +0.000 A 
ATOM     21  C   UNL     1       0.752  12.918  20.405  0.00  0.00    +0.000 A 
ATOM     22  N   UNL     1       0.288  11.578  20.397  0.00  0.00    +0.000 N 
ATOM     23  C   UNL     1      -0.712  11.082  19.559  0.00  0.00    +0.000 C 
ATOM     24  O   UNL     1      -0.854   9.864  19.472  0.00  0.00    +0.000 OA
ATOM     25  C   UNL     1      -1.583  12.102  18.746  0.00  0.00    +0.000 C 
ATOM     26  C   UNL     1      -0.731  12.840  17.688  0.00  0.00    +0.000 C 
ATOM     27  H   UNL     1       0.905  10.850  20.740  0.00  0.00    +0.000 HD
ENDROOT
BRANCH   1  28
ATOM     28  C   UNL     1      -2.881  10.199  17.596  0.00  0.00    +0.000 C 
ATOM     29  O   UNL     1      -3.438   9.294  18.183  0.00  0.00    +0.000 OA
BRANCH  28  30
ATOM     30  O   UNL     1      -2.290  10.105  16.369  0.00  0.00    +0.000 OA
BRANCH  30  32
ATOM     31  C   UNL     1      -3.076   9.938  14.098  0.00  0.00    +0.000 C 
ATOM     32  C   UNL     1      -2.929  10.831  15.315  0.00  0.00    +0.000 C 
ENDBRANCH  30  32
ENDBRANCH  28  30
ENDBRANCH   1  28
BRANCH   8  33
ATOM     33  O   UNL     1      -4.169  13.298  24.890  0.00  0.00    +0.000 OA
ATOM     34  C   UNL     1      -3.234  14.359  25.011  0.00  0.00    +0.000 C 
ENDBRANCH   8  33
TORSDOF 4
ENDMDL
MODEL 3
REMARK VINA RESULT:      -6.8      3.122      5.354
REMARK  Name = 
REMARK  7 active torsions:
REMARK  status: ('A' for Active; 'I' for Inactive)
REMARK    1  A    between atoms: C_1  and  C_2
REMARK    2  A    between atoms: C_2  and  O_3
REMARK    3  A    between atoms: O_3  and  C_4
REMARK    4  A    between atoms: C_4  and  C_6
REMARK    5  A    between atoms: C_13  and  O_14
REMARK    6  A    between atoms: O_14  and  C_15
REMARK    7  A    between atoms: C_32  and  C_33
REMARK                            x       y       z     vdW  Elec       q    Type
REMARK                         _______ _______ _______ _____ _____    ______ ____
ROOT
ATOM      1  C   UNL     1      -2.381  13.343  22.948  0.00  0.00    +0.000 C 
ATOM      2  C   UNL     1      -3.728  12.717  22.524  0.00  0.00    +0.000 C 
ATOM      3  C   UNL     1      -5.046  13.007  23.198  0.00  0.00    +0.000 C 
ATOM      4  O   UNL     1      -6.092  12.216  22.590  0.00  0.00    +0.000 OA
ATOM      5  C   UNL     1      -6.145  12.272  21.216  0.00  0.00    +0.000 A 
ATOM      6  C   UNL     1      -7.365  11.945  20.622  0.00  0.00    +0.000 A 
ATOM      7  C   UNL     1      -7.542  12.082  19.238  0.00  0.00    +0.000 A 
ATOM      8  C   UNL     1      -6.495  12.549  18.445  0.00  0.00    +0.000 A 
ATOM      9  C   UNL     1      -5.269  12.841  19.042  0.00  0.00    +0.000 A 
ATOM     10  C   UNL     1      -5.063  12.658  20.417  0.00  0.00    +0.000 A 
ATOM     11  C   UNL     1      -3.808  13.107  21.072  0.00  0.00    +0.000 C 
ATOM     12  N   UNL     1      -2.453  12.748  20.671  0.00  0.00    +0.000 N 
ATOM     13  C   UNL     1      -2.065  12.042  19.569  0.00  0.00    +0.000 C 
ATOM     14  O   UNL     1      -2.754  11.262  18.930  0.00  0.00    +0.000 OA
ATOM     15  C   UNL     1      -0.676  12.268  19.141  0.00  0.00    +0.000 A 
ATOM     16  C   UNL     1       0.161  11.157  18.984  0.00  0.00    +0.000 A 
ATOM     17  C   UNL     1       1.489  11.361  18.623  0.00  0.00    +0.000 A 
ATOM     18  C   UNL     1       1.916  12.644  18.286  0.00  0.00    +0.000 A 
ATOM     19  F   UNL     1       3.189  12.832  17.920  0.00  0.00    +0.000 F 
ATOM     20  C   UNL     1       1.079  13.752  18.412  0.00  0.00    +0.000 A 
ATOM     21  C   UNL     1      -0.182  13.575  18.979  0.00  0.00    +0.000 A 
ATOM     22  N   UNL     1      -0.775  14.715  19.578  0.00  0.00    +0.000 N 
ATOM     23  C   UNL     1      -1.315  14.754  20.864  0.00  0.00    +0.000 C 
ATOM     24  O   UNL     1      -1.574  15.849  21.360  0.00  0.00    +0.000 OA
ATOM     25  C   UNL     1      -1.534  13.401  21.626  0.00  0.00    +0.000 C 
ATOM     26  C   UNL     1      -0.183  12.724  21.956  0.00  0.00    +0.000 C 
ATOM     27  H   UNL     1      -0.510  15.634  19.239  0.00  0.00    +0.000 HD
ENDROOT
BRANCH   1  28
ATOM     28  C   UNL     1      -2.387  14.628  23.723  0.00  0.00    +0.000 C 
ATOM     29  O   UNL     1      -3.295  15.434  23.748  0.00  0.00    +0.000 OA
BRANCH  28  30
ATOM     30  O   UNL     1      -1.281  14.653  24.523  0.00  0.00    +0.000 OA
BRANCH  30  32
ATOM     31  C   UNL     1      -0.790  16.011  26.451  0.00  0.00    +0.000 C 
ATOM     32  C   UNL     1      -0.844  15.951  24.937  0.00  0.00    +0.000 C 
ENDBRANCH  30  32
ENDBRANCH  28  30
ENDBRANCH   1  28
BRANCH   8  33
ATOM     33  O   UNL     1      -6.531  12.783  17.098  0.00  0.00    +0.000 OA
ATOM     34  C   UNL     1      -6.796  14.112  16.675  0.00  0.00    +0.000 C 
ENDBRANCH   8  33
TORSDOF 4
ENDMDL
MODEL 4
REMARK VINA RESULT:      -6.8      2.752      6.629
REMARK  Name = 
REMARK  7 active torsions:
REMARK  status: ('A' for Active; 'I' for Inactive)
REMARK    1  A    between atoms: C_1  and  C_2
REMARK    2  A    between atoms: C_2  and  O_3
REMARK    3  A    between atoms: O_3  and  C_4
REMARK    4  A    between atoms: C_4  and  C_6
REMARK    5  A    between atoms: C_13  and  O_14
REMARK    6  A    between atoms: O_14  and  C_15
REMARK    7  A    between atoms: C_32  and  C_33
REMARK                            x       y       z     vdW  Elec       q    Type
REMARK                         _______ _______ _______ _____ _____    ______ ____
ROOT
ATOM      1  C   UNL     1       0.250  11.820  20.433  0.00  0.00    +0.000 C 
ATOM      2  C   UNL     1       1.059  13.075  20.034  0.00  0.00    +0.000 C 
ATOM      3  C   UNL     1       2.229  13.061  19.082  0.00  0.00    +0.000 C 
ATOM      4  O   UNL     1       2.788  14.389  18.973  0.00  0.00    +0.000 OA
ATOM      5  C   UNL     1       1.876  15.388  18.720  0.00  0.00    +0.000 A 
ATOM      6  C   UNL     1       2.374  16.559  18.145  0.00  0.00    +0.000 A 
ATOM      7  C   UNL     1       1.502  17.584  17.750  0.00  0.00    +0.000 A 
ATOM      8  C   UNL     1       0.128  17.438  17.931  0.00  0.00    +0.000 A 
ATOM      9  C   UNL     1      -0.357  16.280  18.538  0.00  0.00    +0.000 A 
ATOM     10  C   UNL     1       0.508  15.270  18.985  0.00  0.00    +0.000 A 
ATOM     11  C   UNL     1      -0.018  13.978  19.494  0.00  0.00    +0.000 C 
ATOM     12  N   UNL     1      -1.002  13.810  20.557  0.00  0.00    +0.000 N 
ATOM     13  C   UNL     1      -1.711  14.781  21.203  0.00  0.00    +0.000 C 
ATOM     14  O   UNL     1      -1.403  15.958  21.301  0.00  0.00    +0.000 OA
ATOM     15  C   UNL     1      -2.963  14.326  21.829  0.00  0.00    +0.000 A 
ATOM     16  C   UNL     1      -3.164  14.597  23.187  0.00  0.00    +0.000 A 
ATOM     17  C   UNL     1      -4.322  14.133  23.802  0.00  0.00    +0.000 A 
ATOM     18  C   UNL     1      -5.317  13.541  23.026  0.00  0.00    +0.000 A 
ATOM     19  F   UNL     1      -6.439  13.115  23.618  0.00  0.00    +0.000 F 
ATOM     20  C   UNL     1      -5.136  13.295  21.666  0.00  0.00    +0.000 A 
ATOM     21  C   UNL     1      -3.892  13.564  21.098  0.00  0.00    +0.000 A 
ATOM     22  N   UNL     1      -3.559  12.841  19.925  0.00  0.00    +0.000 N 
ATOM     23  C   UNL     1      -2.370  12.138  19.727  0.00  0.00    +0.000 C 
ATOM     24  O   UNL     1      -2.300  11.356  18.781  0.00  0.00    +0.000 OA
ATOM     25  C   UNL     1      -1.193  12.356  20.740  0.00  0.00    +0.000 C 
ATOM     26  C   UNL     1      -1.560  11.814  22.141  0.00  0.00    +0.000 C 
ATOM     27  H   UNL     1      -4.311  12.508  19.331  0.00  0.00    +0.000 HD
ENDROOT
BRANCH   1  28
ATOM     28  C   UNL     1       0.275  10.621  19.532  0.00  0.00    +0.000 C 
ATOM     29  O   UNL     1       0.646  10.613  18.375  0.00  0.00    +0.000 OA
BRANCH  28  30
ATOM     30  O   UNL     1      -0.023   9.516  20.277  0.00  0.00    +0.000 OA
BRANCH  30  32
ATOM     31  C   UNL     1       1.527   7.772  20.873  0.00  0.00    +0.000 C 
ATOM     32  C   UNL     1       0.964   9.131  21.238  0.00  0.00    +0.000 C 
ENDBRANCH  30  32
ENDBRANCH  28  30
ENDBRANCH   1  28
BRANCH   8  33
ATOM     33  O   UNL     1      -0.845  18.321  17.554  0.00  0.00    +0.000 OA
ATOM     34  C   UNL     1      -1.971  18.454  18.408  0.00  0.00    +0.000 C 
ENDBRANCH   8  33
TORSDOF 4
ENDMDL
MODEL 5
REMARK VINA RESULT:      -6.7      3.022      4.690
REMARK  Name = 
REMARK  7 active torsions:
REMARK  status: ('A' for Active; 'I' for Inactive)
REMARK    1  A    between atoms: C_1  and  C_2
REMARK    2  A    between atoms: C_2  and  O_3
REMARK    3  A    between atoms: O_3  and  C_4
REMARK    4  A    between atoms: C_4  and  C_6
REMARK    5  A    between atoms: C_13  and  O_14
REMARK    6  A    between atoms: O_14  and  C_15
REMARK    7  A    between atoms: C_32  and  C_33
REMARK                            x       y       z     vdW  Elec       q    Type
REMARK                         _______ _______ _______ _____ _____    ______ ____
ROOT
ATOM      1  C   UNL     1      -3.284  14.371  22.804  0.00  0.00    +0.000 C 
ATOM      2  C   UNL     1      -4.258  13.282  22.300  0.00  0.00    +0.000 C 
ATOM      3  C   UNL     1      -5.739  13.271  22.588  0.00  0.00    +0.000 C 
ATOM      4  O   UNL     1      -6.340  12.088  22.016  0.00  0.00    +0.000 OA
ATOM      5  C   UNL     1      -6.028  11.852  20.697  0.00  0.00    +0.000 A 
ATOM      6  C   UNL     1      -6.914  11.048  19.978  0.00  0.00    +0.000 A 
ATOM      7  C   UNL     1      -6.735  10.846  18.602  0.00  0.00    +0.000 A 
ATOM      8  C   UNL     1      -5.667  11.451  17.942  0.00  0.00    +0.000 A 
ATOM      9  C   UNL     1      -4.767  12.225  18.675  0.00  0.00    +0.000 A 
ATOM     10  C   UNL     1      -4.905  12.392  20.061  0.00  0.00    +0.000 A 
ATOM     11  C   UNL     1      -4.035  13.333  20.811  0.00  0.00    +0.000 C 
ATOM     12  N   UNL     1      -2.577  13.345  20.806  0.00  0.00    +0.000 N 
ATOM     13  C   UNL     1      -1.736  12.593  20.038  0.00  0.00    +0.000 C 
ATOM     14  O   UNL     1      -2.001  11.527  19.506  0.00  0.00    +0.000 OA
ATOM     15  C   UNL     1      -0.388  13.155  19.856  0.00  0.00    +0.000 A 
ATOM     16  C   UNL     1       0.715  12.355  20.177  0.00  0.00    +0.000 A 
ATOM     17  C   UNL     1       1.993  12.890  20.053  0.00  0.00    +0.000 A 
ATOM     18  C   UNL     1       2.154  14.149  19.477  0.00  0.00    +0.000 A 
ATOM     19  F   UNL     1       3.386  14.651  19.340  0.00  0.00    +0.000 F 
ATOM     20  C   UNL     1       1.060  14.940  19.127  0.00  0.00    +0.000 A 
ATOM     21  C   UNL     1      -0.220  14.491  19.452  0.00  0.00    +0.000 A 
ATOM     22  N   UNL     1      -1.224  15.482  19.588  0.00  0.00    +0.000 N 
ATOM     23  C   UNL     1      -2.087  15.603  20.679  0.00  0.00    +0.000 C 
ATOM     24  O   UNL     1      -2.742  16.637  20.798  0.00  0.00    +0.000 OA
ATOM     25  C   UNL     1      -2.152  14.429  21.716  0.00  0.00    +0.000 C 
ATOM     26  C   UNL     1      -0.817  14.290  22.483  0.00  0.00    +0.000 C 
ATOM     27  H   UNL     1      -1.121  16.352  19.076  0.00  0.00    +0.000 HD
ENDROOT
BRANCH   1  28
ATOM     28  C   UNL     1      -3.829  15.715  23.186  0.00  0.00    +0.000 C 
ATOM     29  O   UNL     1      -4.850  16.213  22.755  0.00  0.00    +0.000 OA
BRANCH  28  30
ATOM     30  O   UNL     1      -3.084  16.204  24.220  0.00  0.00    +0.000 OA
BRANCH  30  32
ATOM     31  C   UNL     1      -1.562  15.551  25.970  0.00  0.00    +0.000 C 
ATOM     32  C   UNL     1      -2.921  15.326  25.338  0.00  0.00    +0.000 C 
ENDBRANCH  30  32
ENDBRANCH  28  30
ENDBRANCH   1  28
BRANCH   8  33
ATOM     33  O   UNL     1      -5.392  11.391  16.604  0.00  0.00    +0.000 OA
ATOM     34  C   UNL     1      -4.050  11.127  16.226  0.00  0.00    +0.000 C 
ENDBRANCH   8  33
TORSDOF 4
ENDMDL
MODEL 6
REMARK VINA RESULT:      -6.7      2.655      6.101
REMARK  Name = 
REMARK  7 active torsions:
REMARK  status: ('A' for Active; 'I' for Inactive)
REMARK    1  A    between atoms: C_1  and  C_2
REMARK    2  A    between atoms: C_2  and  O_3
REMARK    3  A    between atoms: O_3  and  C_4
REMARK    4  A    between atoms: C_4  and  C_6
REMARK    5  A    between atoms: C_13  and  O_14
REMARK    6  A    between atoms: O_14  and  C_15
REMARK    7  A    between atoms: C_32  and  C_33
REMARK                            x       y       z     vdW  Elec       q    Type
REMARK                         _______ _______ _______ _____ _____    ______ ____
ROOT
ATOM      1  C   UNL     1       0.394  11.845  20.362  0.00  0.00    +0.000 C 
ATOM      2  C   UNL     1       1.514  12.710  19.741  0.00  0.00    +0.000 C 
ATOM      3  C   UNL     1       2.336  12.300  18.544  0.00  0.00    +0.000 C 
ATOM      4  O   UNL     1       3.327  13.312  18.260  0.00  0.00    +0.000 OA
ATOM      5  C   UNL     1       2.844  14.599  18.189  0.00  0.00    +0.000 A 
ATOM      6  C   UNL     1       3.613  15.517  17.472  0.00  0.00    +0.000 A 
ATOM      7  C   UNL     1       3.144  16.821  17.253  0.00  0.00    +0.000 A 
ATOM      8  C   UNL     1       1.902  17.207  17.753  0.00  0.00    +0.000 A 
ATOM      9  C   UNL     1       1.156  16.294  18.498  0.00  0.00    +0.000 A 
ATOM     10  C   UNL     1       1.637  15.004  18.769  0.00  0.00    +0.000 A 
ATOM     11  C   UNL     1       0.781  13.989  19.433  0.00  0.00    +0.000 C 
ATOM     12  N   UNL     1       0.080  14.153  20.701  0.00  0.00    +0.000 N 
ATOM     13  C   UNL     1      -0.029  15.284  21.458  0.00  0.00    +0.000 C 
ATOM     14  O   UNL     1       0.727  16.243  21.439  0.00  0.00    +0.000 OA
ATOM     15  C   UNL     1      -1.180  15.313  22.373  0.00  0.00    +0.000 A 
ATOM     16  C   UNL     1      -0.944  15.562  23.730  0.00  0.00    +0.000 A 
ATOM     17  C   UNL     1      -2.019  15.547  24.614  0.00  0.00    +0.000 A 
ATOM     18  C   UNL     1      -3.314  15.432  24.112  0.00  0.00    +0.000 A 
ATOM     19  F   UNL     1      -4.346  15.440  24.963  0.00  0.00    +0.000 F 
ATOM     20  C   UNL     1      -3.558  15.214  22.757  0.00  0.00    +0.000 A 
ATOM     21  C   UNL     1      -2.472  15.013  21.906  0.00  0.00    +0.000 A 
ATOM     22  N   UNL     1      -2.724  14.287  20.715  0.00  0.00    +0.000 N 
ATOM     23  C   UNL     1      -1.981  13.192  20.272  0.00  0.00    +0.000 C 
ATOM     24  O   UNL     1      -2.439  12.499  19.365  0.00  0.00    +0.000 OA
ATOM     25  C   UNL     1      -0.616  12.879  20.977  0.00  0.00    +0.000 C 
ATOM     26  C   UNL     1      -0.834  12.441  22.443  0.00  0.00    +0.000 C 
ATOM     27  H   UNL     1      -3.660  14.306  20.325  0.00  0.00    +0.000 HD
ENDROOT
BRANCH   1  28
ATOM     28  C   UNL     1      -0.256  10.783  19.525  0.00  0.00    +0.000 C 
ATOM     29  O   UNL     1      -0.394  10.821  18.318  0.00  0.00    +0.000 OA
BRANCH  28  30
ATOM     30  O   UNL     1      -0.507   9.702  20.319  0.00  0.00    +0.000 OA
BRANCH  30  32
ATOM     31  C   UNL     1       1.374   8.231  20.631  0.00  0.00    +0.000 C 
ATOM     32  C   UNL     1       0.537   9.344  21.229  0.00  0.00    +0.000 C 
ENDBRANCH  30  32
ENDBRANCH  28  30
ENDBRANCH   1  28
BRANCH   8  33
ATOM     33  O   UNL     1       1.291  18.418  17.580  0.00  0.00    +0.000 OA
ATOM     34  C   UNL     1       0.592  18.627  16.363  0.00  0.00    +0.000 C 
ENDBRANCH   8  33
TORSDOF 4
ENDMDL
MODEL 7
REMARK VINA RESULT:      -6.6      2.668      6.657
REMARK  Name = 
REMARK  7 active torsions:
REMARK  status: ('A' for Active; 'I' for Inactive)
REMARK    1  A    between atoms: C_1  and  C_2
REMARK    2  A    between atoms: C_2  and  O_3
REMARK    3  A    between atoms: O_3  and  C_4
REMARK    4  A    between atoms: C_4  and  C_6
REMARK    5  A    between atoms: C_13  and  O_14
REMARK    6  A    between atoms: O_14  and  C_15
REMARK    7  A    between atoms: C_32  and  C_33
REMARK                            x       y       z     vdW  Elec       q    Type
REMARK                         _______ _______ _______ _____ _____    ______ ____
ROOT
ATOM      1  C   UNL     1       1.734  15.563  20.951  0.00  0.00    +0.000 C 
ATOM      2  C   UNL     1       1.185  15.671  22.392  0.00  0.00    +0.000 C 
ATOM      3  C   UNL     1       1.049  16.967  23.151  0.00  0.00    +0.000 C 
ATOM      4  O   UNL     1       0.556  16.704  24.484  0.00  0.00    +0.000 OA
ATOM      5  C   UNL     1      -0.561  15.902  24.547  0.00  0.00    +0.000 A 
ATOM      6  C   UNL     1      -1.340  16.003  25.701  0.00  0.00    +0.000 A 
ATOM      7  C   UNL     1      -2.553  15.307  25.803  0.00  0.00    +0.000 A 
ATOM      8  C   UNL     1      -2.989  14.508  24.748  0.00  0.00    +0.000 A 
ATOM      9  C   UNL     1      -2.187  14.386  23.613  0.00  0.00    +0.000 A 
ATOM     10  C   UNL     1      -0.947  15.035  23.519  0.00  0.00    +0.000 A 
ATOM     11  C   UNL     1      -0.167  15.023  22.256  0.00  0.00    +0.000 C 
ATOM     12  N   UNL     1       0.229  13.839  21.502  0.00  0.00    +0.000 N 
ATOM     13  C   UNL     1      -0.128  12.542  21.732  0.00  0.00    +0.000 C 
ATOM     14  O   UNL     1      -0.512  12.073  22.792  0.00  0.00    +0.000 OA
ATOM     15  C   UNL     1      -0.028  11.652  20.564  0.00  0.00    +0.000 A 
ATOM     16  C   UNL     1       0.724  10.478  20.686  0.00  0.00    +0.000 A 
ATOM     17  C   UNL     1       0.865   9.650  19.576  0.00  0.00    +0.000 A 
ATOM     18  C   UNL     1       0.139   9.931  18.419  0.00  0.00    +0.000 A 
ATOM     19  F   UNL     1       0.261   9.121  17.361  0.00  0.00    +0.000 F 
ATOM     20  C   UNL     1      -0.636  11.084  18.302  0.00  0.00    +0.000 A 
ATOM     21  C   UNL     1      -0.603  12.019  19.335  0.00  0.00    +0.000 A 
ATOM     22  N   UNL     1      -0.930  13.355  18.992  0.00  0.00    +0.000 N 
ATOM     23  C   UNL     1      -0.161  14.475  19.312  0.00  0.00    +0.000 C 
ATOM     24  O   UNL     1      -0.416  15.541  18.754  0.00  0.00    +0.000 OA
ATOM     25  C   UNL     1       1.011  14.311  20.340  0.00  0.00    +0.000 C 
ATOM     26  C   UNL     1       2.129  13.409  19.768  0.00  0.00    +0.000 C 
ATOM     27  H   UNL     1      -1.542  13.517  18.199  0.00  0.00    +0.000 HD
ENDROOT
BRANCH   1  28
ATOM     28  C   UNL     1       1.703  16.775  20.067  0.00  0.00    +0.000 C 
ATOM     29  O   UNL     1       0.877  17.665  20.116  0.00  0.00    +0.000 OA
BRANCH  28  30
ATOM     30  O   UNL     1       2.847  16.795  19.323  0.00  0.00    +0.000 OA
BRANCH  30  32
ATOM     31  C   UNL     1       3.550  15.702  17.294  0.00  0.00    +0.000 C 
ATOM     32  C   UNL     1       2.664  16.771  17.904  0.00  0.00    +0.000 C 
ENDBRANCH  30  32
ENDBRANCH  28  30
ENDBRANCH   1  28
BRANCH   8  33
ATOM     33  O   UNL     1      -4.165  13.815  24.679  0.00  0.00    +0.000 OA
ATOM     34  C   UNL     1      -4.089  12.434  24.359  0.00  0.00    +0.000 C 
ENDBRANCH   8  33
TORSDOF 4
ENDMDL
MODEL 8
REMARK VINA RESULT:      -6.6      2.596      6.537
REMARK  Name = 
REMARK  7 active torsions:
REMARK  status: ('A' for Active; 'I' for Inactive)
REMARK    1  A    between atoms: C_1  and  C_2
REMARK    2  A    between atoms: C_2  and  O_3
REMARK    3  A    between atoms: O_3  and  C_4
REMARK    4  A    between atoms: C_4  and  C_6
REMARK    5  A    between atoms: C_13  and  O_14
REMARK    6  A    between atoms: O_14  and  C_15
REMARK    7  A    between atoms: C_32  and  C_33
REMARK                            x       y       z     vdW  Elec       q    Type
REMARK                         _______ _______ _______ _____ _____    ______ ____
ROOT
ATOM      1  C   UNL     1       1.358  14.893  21.127  0.00  0.00    +0.000 C 
ATOM      2  C   UNL     1       0.552  14.923  22.445  0.00  0.00    +0.000 C 
ATOM      3  C   UNL     1       0.118  16.187  23.144  0.00  0.00    +0.000 C 
ATOM      4  O   UNL     1      -0.567  15.857  24.373  0.00  0.00    +0.000 OA
ATOM      5  C   UNL     1      -1.565  14.917  24.252  0.00  0.00    +0.000 A 
ATOM      6  C   UNL     1      -2.544  14.912  25.247  0.00  0.00    +0.000 A 
ATOM      7  C   UNL     1      -3.657  14.065  25.145  0.00  0.00    +0.000 A 
ATOM      8  C   UNL     1      -3.793  13.221  24.044  0.00  0.00    +0.000 A 
ATOM      9  C   UNL     1      -2.792  13.209  23.072  0.00  0.00    +0.000 A 
ATOM     10  C   UNL     1      -1.648  14.012  23.188  0.00  0.00    +0.000 A 
ATOM     11  C   UNL     1      -0.661  14.106  22.084  0.00  0.00    +0.000 C 
ATOM     12  N   UNL     1       0.011  12.987  21.434  0.00  0.00    +0.000 N 
ATOM     13  C   UNL     1      -0.213  11.653  21.620  0.00  0.00    +0.000 C 
ATOM     14  O   UNL     1      -0.716  11.135  22.604  0.00  0.00    +0.000 OA
ATOM     15  C   UNL     1       0.207  10.789  20.506  0.00  0.00    +0.000 A 
ATOM     16  C   UNL     1       1.069   9.721  20.780  0.00  0.00    +0.000 A 
ATOM     17  C   UNL     1       1.509   8.924  19.729  0.00  0.00    +0.000 A 
ATOM     18  C   UNL     1       0.971   9.114  18.457  0.00  0.00    +0.000 A 
ATOM     19  F   UNL     1       1.382   8.331  17.452  0.00  0.00    +0.000 F 
ATOM     20  C   UNL     1       0.089  10.158  18.182  0.00  0.00    +0.000 A 
ATOM     21  C   UNL     1      -0.182  11.085  19.187  0.00  0.00    +0.000 A 
ATOM     22  N   UNL     1      -0.611  12.369  18.767  0.00  0.00    +0.000 N 
ATOM     23  C   UNL     1      -0.060  13.578  19.198  0.00  0.00    +0.000 C 
ATOM     24  O   UNL     1      -0.346  14.604  18.584  0.00  0.00    +0.000 OA
ATOM     25  C   UNL     1       0.921  13.561  20.420  0.00  0.00    +0.000 C 
ATOM     26  C   UNL     1       2.229  12.814  20.073  0.00  0.00    +0.000 C 
ATOM     27  H   UNL     1      -1.086  12.454  17.875  0.00  0.00    +0.000 HD
ENDROOT
BRANCH   1  28
ATOM     28  C   UNL     1       1.330  16.095  20.229  0.00  0.00    +0.000 C 
ATOM     29  O   UNL     1       0.462  16.945  20.212  0.00  0.00    +0.000 OA
BRANCH  28  30
ATOM     30  O   UNL     1       2.520  16.162  19.563  0.00  0.00    +0.000 OA
BRANCH  30  32
ATOM     31  C   UNL     1       3.418  15.858  17.349  0.00  0.00    +0.000 C 
ATOM     32  C   UNL     1       2.451  16.639  18.216  0.00  0.00    +0.000 C 
ENDBRANCH  30  32
ENDBRANCH  28  30
ENDBRANCH   1  28
BRANCH   8  33
ATOM     33  O   UNL     1      -4.839  12.382  23.781  0.00  0.00    +0.000 OA
ATOM     34  C   UNL     1      -6.147  12.872  24.035  0.00  0.00    +0.000 C 
ENDBRANCH   8  33
TORSDOF 4
ENDMDL
MODEL 9
REMARK VINA RESULT:      -6.6      2.646      6.412
REMARK  Name = 
REMARK  7 active torsions:
REMARK  status: ('A' for Active; 'I' for Inactive)
REMARK    1  A    between atoms: C_1  and  C_2
REMARK    2  A    between atoms: C_2  and  O_3
REMARK    3  A    between atoms: O_3  and  C_4
REMARK    4  A    between atoms: C_4  and  C_6
REMARK    5  A    between atoms: C_13  and  O_14
REMARK    6  A    between atoms: O_14  and  C_15
REMARK    7  A    between atoms: C_32  and  C_33
REMARK                            x       y       z     vdW  Elec       q    Type
REMARK                         _______ _______ _______ _____ _____    ______ ____
ROOT
ATOM      1  C   UNL     1       0.901  14.800  21.122  0.00  0.00    +0.000 C 
ATOM      2  C   UNL     1      -0.179  14.810  22.227  0.00  0.00    +0.000 C 
ATOM      3  C   UNL     1      -0.786  16.062  22.807  0.00  0.00    +0.000 C 
ATOM      4  O   UNL     1      -1.721  15.715  23.854  0.00  0.00    +0.000 OA
ATOM      5  C   UNL     1      -2.646  14.753  23.516  0.00  0.00    +0.000 A 
ATOM      6  C   UNL     1      -3.821  14.724  24.268  0.00  0.00    +0.000 A 
ATOM      7  C   UNL     1      -4.865  13.853  23.923  0.00  0.00    +0.000 A 
ATOM      8  C   UNL     1      -4.733  13.009  22.822  0.00  0.00    +0.000 A 
ATOM      9  C   UNL     1      -3.541  13.020  22.097  0.00  0.00    +0.000 A 
ATOM     10  C   UNL     1      -2.469  13.849  22.463  0.00  0.00    +0.000 A 
ATOM     11  C   UNL     1      -1.263  13.967  21.606  0.00  0.00    +0.000 C 
ATOM     12  N   UNL     1      -0.438  12.864  21.127  0.00  0.00    +0.000 N 
ATOM     13  C   UNL     1      -0.668  11.525  21.263  0.00  0.00    +0.000 C 
ATOM     14  O   UNL     1      -1.367  10.994  22.111  0.00  0.00    +0.000 OA
ATOM     15  C   UNL     1       0.008  10.673  20.273  0.00  0.00    +0.000 A 
ATOM     16  C   UNL     1       0.811   9.624  20.736  0.00  0.00    +0.000 A 
ATOM     17  C   UNL     1       1.492   8.838  19.812  0.00  0.00    +0.000 A 
ATOM     18  C   UNL     1       1.248   9.018  18.451  0.00  0.00    +0.000 A 
ATOM     19  F   UNL     1       1.890   8.247  17.566  0.00  0.00    +0.000 F 
ATOM     20  C   UNL     1       0.426  10.043  17.984  0.00  0.00    +0.000 A 
ATOM     21  C   UNL     1      -0.083  10.962  18.899  0.00  0.00    +0.000 A 
ATOM     22  N   UNL     1      -0.435  12.237  18.390  0.00  0.00    +0.000 N 
ATOM     23  C   UNL     1      -0.022  13.457  18.929  0.00  0.00    +0.000 C 
ATOM     24  O   UNL     1      -0.185  14.478  18.264  0.00  0.00    +0.000 OA
ATOM     25  C   UNL     1       0.662  13.459  20.340  0.00  0.00    +0.000 C 
ATOM     26  C   UNL     1       2.031  12.742  20.295  0.00  0.00    +0.000 C 
ATOM     27  H   UNL     1      -0.702  12.313  17.415  0.00  0.00    +0.000 HD
ENDROOT
BRANCH   1  28
ATOM     28  C   UNL     1       1.048  16.003  20.237  0.00  0.00    +0.000 C 
ATOM     29  O   UNL     1       0.175  16.811  19.992  0.00  0.00    +0.000 OA
BRANCH  28  30
ATOM     30  O   UNL     1       2.364  16.128  19.895  0.00  0.00    +0.000 OA
BRANCH  30  32
ATOM     31  C   UNL     1       3.260  15.314  17.813  0.00  0.00    +0.000 C 
ATOM     32  C   UNL     1       2.620  16.484  18.534  0.00  0.00    +0.000 C 
ENDBRANCH  30  32
ENDBRANCH  28  30
ENDBRANCH   1  28
BRANCH   8  33
ATOM     33  O   UNL     1      -5.675  12.147  22.334  0.00  0.00    +0.000 OA
ATOM     34  C   UNL     1      -5.986  12.235  20.952  0.00  0.00    +0.000 C 
ENDBRANCH   8  33
TORSDOF 4
ENDMDL
