MODEL 1
REMARK VINA RESULT:      -7.7      0.000      0.000
REMARK  Name = 
REMARK  7 active torsions:
REMARK  status: ('A' for Active; 'I' for Inactive)
REMARK    1  A    between atoms: C_1  and  O_2
REMARK    2  A    between atoms: O_2  and  C_3
REMARK    3  A    between atoms: C_6  and  C_7
REMARK    4  A    between atoms: N_9  and  C_10
REMARK    5  A    between atoms: C_15  and  N_16
REMARK    6  A    between atoms: C_22  and  O_23
REMARK    7  A    between atoms: O_23  and  C_24
REMARK                            x       y       z     vdW  Elec       q    Type
REMARK                         _______ _______ _______ _____ _____    ______ ____
ROOT
ATOM      1  C   UNL     1       4.091   5.098  16.935  0.00  0.00    +0.000 C 
ATOM      2  O   UNL     1       4.123   6.309  16.727  0.00  0.00    +0.000 OA
ATOM      3  N   UNL     1       4.810   4.156  16.223  0.00  0.00    +0.000 N 
ATOM      4  H   UNL     1       4.589   3.165  16.342  0.00  0.00    +0.000 HD
ENDROOT
BRANCH   1   8
ATOM      5  C   UNL     1       1.509   3.521  20.013  0.00  0.00    +0.000 A 
ATOM      6  C   UNL     1       1.952   2.738  18.942  0.00  0.00    +0.000 A 
ATOM      7  C   UNL     1       2.789   3.275  17.968  0.00  0.00    +0.000 A 
ATOM      8  C   UNL     1       3.165   4.625  18.008  0.00  0.00    +0.000 A 
ATOM      9  C   UNL     1       2.645   5.431  19.022  0.00  0.00    +0.000 A 
ATOM     10  C   UNL     1       1.818   4.893  20.028  0.00  0.00    +0.000 A 
BRANCH   5  12
ATOM     11  C   UNL     1       1.488   2.442  22.125  0.00  0.00    +0.000 C 
ATOM     12  O   UNL     1       0.758   2.973  21.018  0.00  0.00    +0.000 OA
ENDBRANCH   5  12
BRANCH  10  13
ATOM     13  O   UNL     1       1.437   5.846  20.937  0.00  0.00    +0.000 OA
ATOM     14  C   UNL     1       1.687   7.213  20.651  0.00  0.00    +0.000 C 
ENDBRANCH  10  13
ENDBRANCH   1   8
BRANCH   3  15
ATOM     15  C   UNL     1       5.759   4.415  15.188  0.00  0.00    +0.000 A 
ATOM     16  C   UNL     1       5.531   3.995  13.872  0.00  0.00    +0.000 A 
ATOM     17  C   UNL     1       6.471   4.223  12.873  0.00  0.00    +0.000 A 
ATOM     18  C   UNL     1       7.628   4.896  13.202  0.00  0.00    +0.000 A 
ATOM     19  N   UNL     1       7.895   5.344  14.446  0.00  0.00    +0.000 NA
ATOM     20  C   UNL     1       6.965   5.101  15.424  0.00  0.00    +0.000 A 
BRANCH  20  21
ATOM     21  N   UNL     1       7.316   5.567  16.736  0.00  0.00    +0.000 N 
ATOM     22  C   UNL     1       7.456   6.892  17.108  0.00  0.00    +0.000 A 
ATOM     23  C   UNL     1       7.846   6.911  18.423  0.00  0.00    +0.000 A 
ATOM     24  C   UNL     1       7.899   5.558  18.792  0.00  0.00    +0.000 A 
ATOM     25  N   UNL     1       7.569   4.732  17.795  0.00  0.00    +0.000 NA
ENDBRANCH  20  21
ENDBRANCH   3  15
TORSDOF 5
ENDMDL
MODEL 2
REMARK VINA RESULT:      -7.4      3.405      5.949
REMARK  Name = 
REMARK  7 active torsions:
REMARK  status: ('A' for Active; 'I' for Inactive)
REMARK    1  A    between atoms: C_1  and  O_2
REMARK    2  A    between atoms: O_2  and  C_3
REMARK    3  A    between atoms: C_6  and  C_7
REMARK    4  A    between atoms: N_9  and  C_10
REMARK    5  A    between atoms: C_15  and  N_16
REMARK    6  A    between atoms: C_22  and  O_23
REMARK    7  A    between atoms: O_23  and  C_24
REMARK                            x       y       z     vdW  Elec       q    Type
REMARK                         _______ _______ _______ _____ _____    ______ ____
ROOT
ATOM      1  C   UNL     1       2.154   8.240  18.499  0.00  0.00    +0.000 C 
ATOM      2  O   UNL     1       2.013   8.671  17.356  0.00  0.00    +0.000 OA
ATOM      3  N   UNL     1       2.837   7.085  18.828  0.00  0.00    +0.000 N 
ATOM      4  H   UNL     1       2.752   6.708  19.774  0.00  0.00    +0.000 HD
ENDROOT
BRANCH   1   8
ATOM      5  C   UNL     1       0.362  10.348  21.812  0.00  0.00    +0.000 A 
ATOM      6  C   UNL     1       0.812   9.029  21.927  0.00  0.00    +0.000 A 
ATOM      7  C   UNL     1       1.390   8.378  20.840  0.00  0.00    +0.000 A 
ATOM      8  C   UNL     1       1.488   9.010  19.593  0.00  0.00    +0.000 A 
ATOM      9  C   UNL     1       0.951  10.291  19.451  0.00  0.00    +0.000 A 
ATOM     10  C   UNL     1       0.387  10.970  20.550  0.00  0.00    +0.000 A 
BRANCH   5  12
ATOM     11  C   UNL     1      -1.549  11.149  22.966  0.00  0.00    +0.000 C 
ATOM     12  O   UNL     1      -0.127  11.019  22.901  0.00  0.00    +0.000 OA
ENDBRANCH   5  12
BRANCH  10  13
ATOM     13  O   UNL     1      -0.058  12.218  20.202  0.00  0.00    +0.000 OA
ATOM     14  C   UNL     1      -1.163  12.337  19.320  0.00  0.00    +0.000 C 
ENDBRANCH  10  13
ENDBRANCH   1   8
BRANCH   3  15
ATOM     15  C   UNL     1       3.555   6.237  17.931  0.00  0.00    +0.000 A 
ATOM     16  C   UNL     1       4.512   6.756  17.050  0.00  0.00    +0.000 A 
ATOM     17  C   UNL     1       5.188   5.932  16.157  0.00  0.00    +0.000 A 
ATOM     18  C   UNL     1       4.912   4.581  16.174  0.00  0.00    +0.000 A 
ATOM     19  N   UNL     1       4.019   4.019  17.014  0.00  0.00    +0.000 NA
ATOM     20  C   UNL     1       3.350   4.846  17.880  0.00  0.00    +0.000 A 
BRANCH  20  21
ATOM     21  N   UNL     1       2.386   4.201  18.725  0.00  0.00    +0.000 N 
ATOM     22  C   UNL     1       1.479   3.237  18.322  0.00  0.00    +0.000 A 
ATOM     23  C   UNL     1       0.708   2.916  19.410  0.00  0.00    +0.000 A 
ATOM     24  C   UNL     1       1.220   3.710  20.448  0.00  0.00    +0.000 A 
ATOM     25  N   UNL     1       2.240   4.480  20.061  0.00  0.00    +0.000 NA
ENDBRANCH  20  21
ENDBRANCH   3  15
TORSDOF 5
ENDMDL
MODEL 3
REMARK VINA RESULT:      -7.2      2.865      5.250
REMARK  Name = 
REMARK  7 active torsions:
REMARK  status: ('A' for Active; 'I' for Inactive)
REMARK    1  A    between atoms: C_1  and  O_2
REMARK    2  A    between atoms: O_2  and  C_3
REMARK    3  A    between atoms: C_6  and  C_7
REMARK    4  A    between atoms: N_9  and  C_10
REMARK    5  A    between atoms: C_15  and  N_16
REMARK    6  A    between atoms: C_22  and  O_23
REMARK    7  A    between atoms: O_23  and  C_24
REMARK                            x       y       z     vdW  Elec       q    Type
REMARK                         _______ _______ _______ _____ _____    ______ ____
ROOT
ATOM      1  C   UNL     1       2.737   7.741  17.975  0.00  0.00    +0.000 C 
ATOM      2  O   UNL     1       2.918   8.341  16.917  0.00  0.00    +0.000 OA
ATOM      3  N   UNL     1       3.251   6.493  18.272  0.00  0.00    +0.000 N 
ATOM      4  H   UNL     1       2.905   5.994  19.095  0.00  0.00    +0.000 HD
ENDROOT
BRANCH   1   8
ATOM      5  C   UNL     1       0.321   9.574  21.046  0.00  0.00    +0.000 A 
ATOM      6  C   UNL     1       0.991   8.363  21.252  0.00  0.00    +0.000 A 
ATOM      7  C   UNL     1       1.767   7.801  20.242  0.00  0.00    +0.000 A 
ATOM      8  C   UNL     1       1.853   8.405  18.980  0.00  0.00    +0.000 A 
ATOM      9  C   UNL     1       1.106   9.560  18.743  0.00  0.00    +0.000 A 
ATOM     10  C   UNL     1       0.338  10.154  19.765  0.00  0.00    +0.000 A 
BRANCH   5  12
ATOM     11  C   UNL     1      -0.184   9.608  23.363  0.00  0.00    +0.000 C 
ATOM     12  O   UNL     1      -0.372  10.172  22.064  0.00  0.00    +0.000 OA
ENDBRANCH   5  12
BRANCH  10  13
ATOM     13  O   UNL     1      -0.296  11.289  19.330  0.00  0.00    +0.000 OA
ATOM     14  C   UNL     1      -1.620  11.192  18.829  0.00  0.00    +0.000 C 
ENDBRANCH  10  13
ENDBRANCH   1   8
BRANCH   3  15
ATOM     15  C   UNL     1       4.130   5.720  17.456  0.00  0.00    +0.000 A 
ATOM     16  C   UNL     1       5.172   6.320  16.738  0.00  0.00    +0.000 A 
ATOM     17  C   UNL     1       6.008   5.567  15.921  0.00  0.00    +0.000 A 
ATOM     18  C   UNL     1       5.804   4.206  15.849  0.00  0.00    +0.000 A 
ATOM     19  N   UNL     1       4.833   3.568  16.533  0.00  0.00    +0.000 NA
ATOM     20  C   UNL     1       4.007   4.324  17.325  0.00  0.00    +0.000 A 
BRANCH  20  21
ATOM     21  N   UNL     1       2.969   3.598  18.001  0.00  0.00    +0.000 N 
ATOM     22  C   UNL     1       3.161   2.663  19.001  0.00  0.00    +0.000 A 
ATOM     23  C   UNL     1       1.928   2.167  19.344  0.00  0.00    +0.000 A 
ATOM     24  C   UNL     1       1.030   2.867  18.524  0.00  0.00    +0.000 A 
ATOM     25  N   UNL     1       1.634   3.744  17.718  0.00  0.00    +0.000 NA
ENDBRANCH  20  21
ENDBRANCH   3  15
TORSDOF 5
ENDMDL
MODEL 4
REMARK VINA RESULT:      -7.2      2.945      5.518
REMARK  Name = 
REMARK  7 active torsions:
REMARK  status: ('A' for Active; 'I' for Inactive)
REMARK    1  A    between atoms: C_1  and  O_2
REMARK    2  A    between atoms: O_2  and  C_3
REMARK    3  A    between atoms: C_6  and  C_7
REMARK    4  A    between atoms: N_9  and  C_10
REMARK    5  A    between atoms: C_15  and  N_16
REMARK    6  A    between atoms: C_22  and  O_23
REMARK    7  A    between atoms: O_23  and  C_24
REMARK                            x       y       z     vdW  Elec       q    Type
REMARK                         _______ _______ _______ _____ _____    ______ ____
ROOT
ATOM      1  C   UNL     1       1.994   6.639  19.717  0.00  0.00    +0.000 C 
ATOM      2  O   UNL     1       2.047   6.054  20.797  0.00  0.00    +0.000 OA
ATOM      3  N   UNL     1       2.266   6.062  18.492  0.00  0.00    +0.000 N 
ATOM      4  H   UNL     1       2.373   6.661  17.670  0.00  0.00    +0.000 HD
ENDROOT
BRANCH   1   8
ATOM      5  C   UNL     1       0.949  10.826  19.614  0.00  0.00    +0.000 A 
ATOM      6  C   UNL     1       1.436  10.154  18.488  0.00  0.00    +0.000 A 
ATOM      7  C   UNL     1       1.759   8.801  18.553  0.00  0.00    +0.000 A 
ATOM      8  C   UNL     1       1.654   8.094  19.758  0.00  0.00    +0.000 A 
ATOM      9  C   UNL     1       1.262   8.787  20.905  0.00  0.00    +0.000 A 
ATOM     10  C   UNL     1       0.907  10.150  20.847  0.00  0.00    +0.000 A 
BRANCH   5  12
ATOM     11  C   UNL     1      -0.752  12.354  18.985  0.00  0.00    +0.000 C 
ATOM     12  O   UNL     1       0.550  12.133  19.531  0.00  0.00    +0.000 OA
ENDBRANCH   5  12
BRANCH  10  13
ATOM     13  O   UNL     1       0.531  10.630  22.074  0.00  0.00    +0.000 OA
ATOM     14  C   UNL     1      -0.306   9.837  22.900  0.00  0.00    +0.000 C 
ENDBRANCH  10  13
ENDBRANCH   1   8
BRANCH   3  15
ATOM     15  C   UNL     1       2.580   4.690  18.250  0.00  0.00    +0.000 A 
ATOM     16  C   UNL     1       1.606   3.690  18.366  0.00  0.00    +0.000 A 
ATOM     17  C   UNL     1       1.921   2.352  18.158  0.00  0.00    +0.000 A 
ATOM     18  C   UNL     1       3.216   2.030  17.812  0.00  0.00    +0.000 A 
ATOM     19  N   UNL     1       4.192   2.948  17.663  0.00  0.00    +0.000 NA
ATOM     20  C   UNL     1       3.870   4.263  17.884  0.00  0.00    +0.000 A 
BRANCH  20  21
ATOM     21  N   UNL     1       4.955   5.194  17.748  0.00  0.00    +0.000 N 
ATOM     22  C   UNL     1       6.178   5.102  18.385  0.00  0.00    +0.000 A 
ATOM     23  C   UNL     1       6.911   6.207  18.031  0.00  0.00    +0.000 A 
ATOM     24  C   UNL     1       6.075   6.915  17.155  0.00  0.00    +0.000 A 
ATOM     25  N   UNL     1       4.898   6.315  16.959  0.00  0.00    +0.000 NA
ENDBRANCH  20  21
ENDBRANCH   3  15
TORSDOF 5
ENDMDL
MODEL 5
REMARK VINA RESULT:      -7.1      2.021      3.035
REMARK  Name = 
REMARK  7 active torsions:
REMARK  status: ('A' for Active; 'I' for Inactive)
REMARK    1  A    between atoms: C_1  and  O_2
REMARK    2  A    between atoms: O_2  and  C_3
REMARK    3  A    between atoms: C_6  and  C_7
REMARK    4  A    between atoms: N_9  and  C_10
REMARK    5  A    between atoms: C_15  and  N_16
REMARK    6  A    between atoms: C_22  and  O_23
REMARK    7  A    between atoms: O_23  and  C_24
REMARK                            x       y       z     vdW  Elec       q    Type
REMARK                         _______ _______ _______ _____ _____    ______ ____
ROOT
ATOM      1  C   UNL     1       3.873   5.588  17.903  0.00  0.00    +0.000 C 
ATOM      2  O   UNL     1       4.101   4.441  18.285  0.00  0.00    +0.000 OA
ATOM      3  N   UNL     1       4.445   6.177  16.792  0.00  0.00    +0.000 N 
ATOM      4  H   UNL     1       4.339   7.184  16.651  0.00  0.00    +0.000 HD
ENDROOT
BRANCH   1   8
ATOM      5  C   UNL     1       1.260   7.821  20.513  0.00  0.00    +0.000 A 
ATOM      6  C   UNL     1       1.583   6.482  20.754  0.00  0.00    +0.000 A 
ATOM      7  C   UNL     1       2.433   5.791  19.895  0.00  0.00    +0.000 A 
ATOM      8  C   UNL     1       2.944   6.403  18.743  0.00  0.00    +0.000 A 
ATOM      9  C   UNL     1       2.544   7.708  18.449  0.00  0.00    +0.000 A 
ATOM     10  C   UNL     1       1.705   8.427  19.324  0.00  0.00    +0.000 A 
BRANCH   5  12
ATOM     11  C   UNL     1       1.210   9.266  22.393  0.00  0.00    +0.000 C 
ATOM     12  O   UNL     1       0.494   8.528  21.401  0.00  0.00    +0.000 OA
ENDBRANCH   5  12
BRANCH  10  13
ATOM     13  O   UNL     1       1.455   9.693  18.863  0.00  0.00    +0.000 OA
ATOM     14  C   UNL     1       0.168   9.999  18.348  0.00  0.00    +0.000 C 
ENDBRANCH  10  13
ENDBRANCH   1   8
BRANCH   3  15
ATOM     15  C   UNL     1       5.328   5.554  15.859  0.00  0.00    +0.000 A 
ATOM     16  C   UNL     1       4.838   4.788  14.794  0.00  0.00    +0.000 A 
ATOM     17  C   UNL     1       5.702   4.158  13.905  0.00  0.00    +0.000 A 
ATOM     18  C   UNL     1       7.059   4.324  14.080  0.00  0.00    +0.000 A 
ATOM     19  N   UNL     1       7.591   5.067  15.072  0.00  0.00    +0.000 NA
ATOM     20  C   UNL     1       6.728   5.672  15.950  0.00  0.00    +0.000 A 
BRANCH  20  21
ATOM     21  N   UNL     1       7.348   6.420  17.006  0.00  0.00    +0.000 N 
ATOM     22  C   UNL     1       7.744   5.908  18.229  0.00  0.00    +0.000 A 
ATOM     23  C   UNL     1       8.242   6.951  18.969  0.00  0.00    +0.000 A 
ATOM     24  C   UNL     1       8.139   8.063  18.121  0.00  0.00    +0.000 A 
ATOM     25  N   UNL     1       7.617   7.763  16.928  0.00  0.00    +0.000 NA
ENDBRANCH  20  21
ENDBRANCH   3  15
TORSDOF 5
ENDMDL
MODEL 6
REMARK VINA RESULT:      -7.1      2.579      6.993
REMARK  Name = 
REMARK  7 active torsions:
REMARK  status: ('A' for Active; 'I' for Inactive)
REMARK    1  A    between atoms: C_1  and  O_2
REMARK    2  A    between atoms: O_2  and  C_3
REMARK    3  A    between atoms: C_6  and  C_7
REMARK    4  A    between atoms: N_9  and  C_10
REMARK    5  A    between atoms: C_15  and  N_16
REMARK    6  A    between atoms: C_22  and  O_23
REMARK    7  A    between atoms: O_23  and  C_24
REMARK                            x       y       z     vdW  Elec       q    Type
REMARK                         _______ _______ _______ _____ _____    ______ ____
ROOT
ATOM      1  C   UNL     1       4.094   3.954  17.390  0.00  0.00    +0.000 C 
ATOM      2  O   UNL     1       3.141   3.400  16.847  0.00  0.00    +0.000 OA
ATOM      3  N   UNL     1       4.180   4.232  18.741  0.00  0.00    +0.000 N 
ATOM      4  H   UNL     1       4.921   4.851  19.077  0.00  0.00    +0.000 HD
ENDROOT
BRANCH   1   8
ATOM      5  C   UNL     1       7.194   5.158  14.638  0.00  0.00    +0.000 A 
ATOM      6  C   UNL     1       6.345   4.078  14.374  0.00  0.00    +0.000 A 
ATOM      7  C   UNL     1       5.351   3.718  15.281  0.00  0.00    +0.000 A 
ATOM      8  C   UNL     1       5.211   4.395  16.500  0.00  0.00    +0.000 A 
ATOM      9  C   UNL     1       6.120   5.409  16.807  0.00  0.00    +0.000 A 
ATOM     10  C   UNL     1       7.114   5.799  15.887  0.00  0.00    +0.000 A 
BRANCH   5  12
ATOM     11  C   UNL     1       7.805   5.265  12.349  0.00  0.00    +0.000 C 
ATOM     12  O   UNL     1       8.114   5.567  13.711  0.00  0.00    +0.000 OA
ENDBRANCH   5  12
BRANCH  10  13
ATOM     13  O   UNL     1       7.883   6.824  16.374  0.00  0.00    +0.000 OA
ATOM     14  C   UNL     1       7.519   7.440  17.599  0.00  0.00    +0.000 C 
ENDBRANCH  10  13
ENDBRANCH   1   8
BRANCH   3  15
ATOM     15  C   UNL     1       3.233   3.868  19.745  0.00  0.00    +0.000 A 
ATOM     16  C   UNL     1       3.212   2.579  20.293  0.00  0.00    +0.000 A 
ATOM     17  C   UNL     1       2.270   2.220  21.249  0.00  0.00    +0.000 A 
ATOM     18  C   UNL     1       1.364   3.171  21.667  0.00  0.00    +0.000 A 
ATOM     19  N   UNL     1       1.347   4.434  21.195  0.00  0.00    +0.000 NA
ATOM     20  C   UNL     1       2.274   4.772  20.242  0.00  0.00    +0.000 A 
BRANCH  20  21
ATOM     21  N   UNL     1       2.188   6.117  19.748  0.00  0.00    +0.000 N 
ATOM     22  C   UNL     1       1.848   7.229  20.497  0.00  0.00    +0.000 A 
ATOM     23  C   UNL     1       1.830   8.307  19.649  0.00  0.00    +0.000 A 
ATOM     24  C   UNL     1       2.192   7.776  18.401  0.00  0.00    +0.000 A 
ATOM     25  N   UNL     1       2.427   6.462  18.442  0.00  0.00    +0.000 NA
ENDBRANCH  20  21
ENDBRANCH   3  15
TORSDOF 5
ENDMDL
MODEL 7
REMARK VINA RESULT:      -7.0      3.532      6.106
REMARK  Name = 
REMARK  7 active torsions:
REMARK  status: ('A' for Active; 'I' for Inactive)
REMARK    1  A    between atoms: C_1  and  O_2
REMARK    2  A    between atoms: O_2  and  C_3
REMARK    3  A    between atoms: C_6  and  C_7
REMARK    4  A    between atoms: N_9  and  C_10
REMARK    5  A    between atoms: C_15  and  N_16
REMARK    6  A    between atoms: C_22  and  O_23
REMARK    7  A    between atoms: O_23  and  C_24
REMARK                            x       y       z     vdW  Elec       q    Type
REMARK                         _______ _______ _______ _____ _____    ______ ____
ROOT
ATOM      1  C   UNL     1       2.111   8.549  18.139  0.00  0.00    +0.000 C 
ATOM      2  O   UNL     1       2.330   8.964  17.003  0.00  0.00    +0.000 OA
ATOM      3  N   UNL     1       2.598   7.364  18.655  0.00  0.00    +0.000 N 
ATOM      4  H   UNL     1       2.223   7.012  19.538  0.00  0.00    +0.000 HD
ENDROOT
BRANCH   1   8
ATOM      5  C   UNL     1      -0.664  10.913  20.451  0.00  0.00    +0.000 A 
ATOM      6  C   UNL     1      -0.726  10.850  19.055  0.00  0.00    +0.000 A 
ATOM      7  C   UNL     1       0.181  10.074  18.338  0.00  0.00    +0.000 A 
ATOM      8  C   UNL     1       1.208   9.380  18.993  0.00  0.00    +0.000 A 
ATOM      9  C   UNL     1       1.330   9.521  20.377  0.00  0.00    +0.000 A 
ATOM     10  C   UNL     1       0.402  10.282  21.116  0.00  0.00    +0.000 A 
BRANCH   5  12
ATOM     11  C   UNL     1      -2.467  12.454  20.399  0.00  0.00    +0.000 C 
ATOM     12  O   UNL     1      -1.607  11.605  21.162  0.00  0.00    +0.000 OA
ENDBRANCH   5  12
BRANCH  10  13
ATOM     13  O   UNL     1       0.689  10.271  22.456  0.00  0.00    +0.000 OA
ATOM     14  C   UNL     1      -0.109   9.486  23.327  0.00  0.00    +0.000 C 
ENDBRANCH  10  13
ENDBRANCH   1   8
BRANCH   3  15
ATOM     15  C   UNL     1       3.490   6.458  18.005  0.00  0.00    +0.000 A 
ATOM     16  C   UNL     1       4.453   6.912  17.095  0.00  0.00    +0.000 A 
ATOM     17  C   UNL     1       5.299   6.023  16.442  0.00  0.00    +0.000 A 
ATOM     18  C   UNL     1       5.187   4.680  16.728  0.00  0.00    +0.000 A 
ATOM     19  N   UNL     1       4.296   4.184  17.611  0.00  0.00    +0.000 NA
ATOM     20  C   UNL     1       3.458   5.070  18.238  0.00  0.00    +0.000 A 
BRANCH  20  21
ATOM     21  N   UNL     1       2.506   4.485  19.139  0.00  0.00    +0.000 N 
ATOM     22  C   UNL     1       1.464   3.651  18.778  0.00  0.00    +0.000 A 
ATOM     23  C   UNL     1       0.761   3.352  19.919  0.00  0.00    +0.000 A 
ATOM     24  C   UNL     1       1.451   4.024  20.940  0.00  0.00    +0.000 A 
ATOM     25  N   UNL     1       2.513   4.700  20.495  0.00  0.00    +0.000 NA
ENDBRANCH  20  21
ENDBRANCH   3  15
TORSDOF 5
ENDMDL
MODEL 8
REMARK VINA RESULT:      -7.0      2.579      4.997
REMARK  Name = 
REMARK  7 active torsions:
REMARK  status: ('A' for Active; 'I' for Inactive)
REMARK    1  A    between atoms: C_1  and  O_2
REMARK    2  A    between atoms: O_2  and  C_3
REMARK    3  A    between atoms: C_6  and  C_7
REMARK    4  A    between atoms: N_9  and  C_10
REMARK    5  A    between atoms: C_15  and  N_16
REMARK    6  A    between atoms: C_22  and  O_23
REMARK    7  A    between atoms: O_23  and  C_24
REMARK                            x       y       z     vdW  Elec       q    Type
REMARK                         _______ _______ _______ _____ _____    ______ ____
ROOT
ATOM      1  C   UNL     1       3.263   6.554  18.979  0.00  0.00    +0.000 C 
ATOM      2  O   UNL     1       3.909   5.923  19.813  0.00  0.00    +0.000 OA
ATOM      3  N   UNL     1       3.438   6.463  17.612  0.00  0.00    +0.000 N 
ATOM      4  H   UNL     1       2.987   7.149  17.004  0.00  0.00    +0.000 HD
ENDROOT
BRANCH   1   8
ATOM      5  C   UNL     1       0.406   9.287  20.710  0.00  0.00    +0.000 A 
ATOM      6  C   UNL     1       0.776   8.099  21.347  0.00  0.00    +0.000 A 
ATOM      7  C   UNL     1       1.705   7.240  20.764  0.00  0.00    +0.000 A 
ATOM      8  C   UNL     1       2.251   7.520  19.504  0.00  0.00    +0.000 A 
ATOM      9  C   UNL     1       1.808   8.656  18.824  0.00  0.00    +0.000 A 
ATOM     10  C   UNL     1       0.889   9.546  19.415  0.00  0.00    +0.000 A 
BRANCH   5  12
ATOM     11  C   UNL     1      -0.517  10.085  22.744  0.00  0.00    +0.000 C 
ATOM     12  O   UNL     1      -0.440  10.174  21.320  0.00  0.00    +0.000 OA
ENDBRANCH   5  12
BRANCH  10  13
ATOM     13  O   UNL     1       0.606  10.605  18.591  0.00  0.00    +0.000 OA
ATOM     14  C   UNL     1       1.270  11.841  18.801  0.00  0.00    +0.000 C 
ENDBRANCH  10  13
ENDBRANCH   1   8
BRANCH   3  15
ATOM     15  C   UNL     1       4.330   5.583  16.926  0.00  0.00    +0.000 A 
ATOM     16  C   UNL     1       5.395   6.077  16.163  0.00  0.00    +0.000 A 
ATOM     17  C   UNL     1       6.243   5.219  15.472  0.00  0.00    +0.000 A 
ATOM     18  C   UNL     1       6.028   3.862  15.575  0.00  0.00    +0.000 A 
ATOM     19  N   UNL     1       5.034   3.324  16.312  0.00  0.00    +0.000 NA
ATOM     20  C   UNL     1       4.197   4.183  16.977  0.00  0.00    +0.000 A 
BRANCH  20  21
ATOM     21  N   UNL     1       3.136   3.559  17.715  0.00  0.00    +0.000 N 
ATOM     22  C   UNL     1       3.299   2.654  18.749  0.00  0.00    +0.000 A 
ATOM     23  C   UNL     1       2.048   2.259  19.151  0.00  0.00    +0.000 A 
ATOM     24  C   UNL     1       1.171   2.984  18.330  0.00  0.00    +0.000 A 
ATOM     25  N   UNL     1       1.805   3.784  17.468  0.00  0.00    +0.000 NA
ENDBRANCH  20  21
ENDBRANCH   3  15
TORSDOF 5
ENDMDL
MODEL 9
REMARK VINA RESULT:      -7.0      3.216      5.708
REMARK  Name = 
REMARK  7 active torsions:
REMARK  status: ('A' for Active; 'I' for Inactive)
REMARK    1  A    between atoms: C_1  and  O_2
REMARK    2  A    between atoms: O_2  and  C_3
REMARK    3  A    between atoms: C_6  and  C_7
REMARK    4  A    between atoms: N_9  and  C_10
REMARK    5  A    between atoms: C_15  and  N_16
REMARK    6  A    between atoms: C_22  and  O_23
REMARK    7  A    between atoms: O_23  and  C_24
REMARK                            x       y       z     vdW  Elec       q    Type
REMARK                         _______ _______ _______ _____ _____    ______ ____
ROOT
ATOM      1  C   UNL     1       2.302   6.699  18.876  0.00  0.00    +0.000 C 
ATOM      2  O   UNL     1       1.859   6.093  17.902  0.00  0.00    +0.000 OA
ATOM      3  N   UNL     1       3.059   6.131  19.882  0.00  0.00    +0.000 N 
ATOM      4  H   UNL     1       3.231   6.662  20.739  0.00  0.00    +0.000 HD
ENDROOT
BRANCH   1   8
ATOM      5  C   UNL     1       1.238  10.881  18.965  0.00  0.00    +0.000 A 
ATOM      6  C   UNL     1       1.913  10.310  17.882  0.00  0.00    +0.000 A 
ATOM      7  C   UNL     1       2.237   8.956  17.882  0.00  0.00    +0.000 A 
ATOM      8  C   UNL     1       1.942   8.146  18.987  0.00  0.00    +0.000 A 
ATOM      9  C   UNL     1       1.357   8.737  20.108  0.00  0.00    +0.000 A 
ATOM     10  C   UNL     1       1.000  10.100  20.110  0.00  0.00    +0.000 A 
BRANCH   5  12
ATOM     11  C   UNL     1      -0.501  12.427  18.502  0.00  0.00    +0.000 C 
ATOM     12  O   UNL     1       0.842  12.192  18.931  0.00  0.00    +0.000 OA
ENDBRANCH   5  12
BRANCH  10  13
ATOM     13  O   UNL     1       0.420  10.472  21.295  0.00  0.00    +0.000 OA
ATOM     14  C   UNL     1      -0.118   9.472  22.145  0.00  0.00    +0.000 C 
ENDBRANCH  10  13
ENDBRANCH   1   8
BRANCH   3  15
ATOM     15  C   UNL     1       3.522   4.781  19.938  0.00  0.00    +0.000 A 
ATOM     16  C   UNL     1       2.773   3.781  20.570  0.00  0.00    +0.000 A 
ATOM     17  C   UNL     1       3.241   2.474  20.648  0.00  0.00    +0.000 A 
ATOM     18  C   UNL     1       4.455   2.176  20.066  0.00  0.00    +0.000 A 
ATOM     19  N   UNL     1       5.211   3.090  19.425  0.00  0.00    +0.000 NA
ATOM     20  C   UNL     1       4.744   4.378  19.367  0.00  0.00    +0.000 A 
BRANCH  20  21
ATOM     21  N   UNL     1       5.605   5.316  18.705  0.00  0.00    +0.000 N 
ATOM     22  C   UNL     1       6.895   5.634  19.089  0.00  0.00    +0.000 A 
ATOM     23  C   UNL     1       7.354   6.603  18.232  0.00  0.00    +0.000 A 
ATOM     24  C   UNL     1       6.293   6.808  17.337  0.00  0.00    +0.000 A 
ATOM     25  N   UNL     1       5.236   6.033  17.595  0.00  0.00    +0.000 NA
ENDBRANCH  20  21
ENDBRANCH   3  15
TORSDOF 5
ENDMDL
