MODEL 1
REMARK VINA RESULT:      -7.2      0.000      0.000
REMARK  Name = 
REMARK  11 active torsions:
REMARK  status: ('A' for Active; 'I' for Inactive)
REMARK    1  A    between atoms: C_1  and  O_2
REMARK    2  A    between atoms: O_2  and  C_3
REMARK    3  A    between atoms: C_7  and  C_8
REMARK    4  A    between atoms: C_9  and  C_10
REMARK    5  A    between atoms: C_10  and  O_12
REMARK    6  A    between atoms: O_12  and  C_13
REMARK    7  A    between atoms: C_13  and  C_14
REMARK    8  A    between atoms: N_16  and  C_17
REMARK    9  A    between atoms: C_17  and  C_18
REMARK   10  A    between atoms: C_24  and  O_25
REMARK   11  A    between atoms: O_25  and  C_26
REMARK                            x       y       z     vdW  Elec       q    Type
REMARK                         _______ _______ _______ _____ _____    ______ ____
ROOT
ATOM      1  C   UNL     1       1.689   3.600  21.113  0.00  0.00    +0.000 C 
ATOM      2  O   UNL     1       2.117   3.522  22.253  0.00  0.00    +0.000 OA
ENDROOT
BRANCH   1   4
ATOM      3  C   UNL     1       2.237   5.884  20.477  0.00  0.00    +0.000 C 
ATOM      4  C   UNL     1       1.406   4.836  20.377  0.00  0.00    +0.000 C 
BRANCH   3   9
ATOM      5  C   UNL     1       1.392   9.383  19.192  0.00  0.00    +0.000 A 
ATOM      6  C   UNL     1       1.961   9.286  17.913  0.00  0.00    +0.000 A 
ATOM      7  C   UNL     1       2.538   8.097  17.476  0.00  0.00    +0.000 A 
ATOM      8  C   UNL     1       2.605   7.005  18.334  0.00  0.00    +0.000 A 
ATOM      9  C   UNL     1       2.112   7.095  19.644  0.00  0.00    +0.000 A 
ATOM     10  C   UNL     1       1.477   8.290  20.077  0.00  0.00    +0.000 A 
BRANCH   5  12
ATOM     11  C   UNL     1      -0.248  11.026  18.727  0.00  0.00    +0.000 C 
ATOM     12  O   UNL     1       0.766  10.532  19.599  0.00  0.00    +0.000 OA
ENDBRANCH   5  12
BRANCH  10  13
ATOM     13  O   UNL     1       0.918   8.220  21.332  0.00  0.00    +0.000 OA
ATOM     14  C   UNL     1       1.445   9.012  22.384  0.00  0.00    +0.000 C 
ENDBRANCH  10  13
ENDBRANCH   3   9
ENDBRANCH   1   4
BRANCH   1  15
ATOM     15  O   UNL     1       1.511   2.569  20.247  0.00  0.00    +0.000 OA
BRANCH  15  16
ATOM     16  C   UNL     1       2.716   2.095  19.653  0.00  0.00    +0.000 C 
BRANCH  16  17
ATOM     17  C   UNL     1       2.862   2.668  18.246  0.00  0.00    +0.000 C 
ATOM     18  O   UNL     1       2.173   2.268  17.312  0.00  0.00    +0.000 OA
ATOM     19  N   UNL     1       3.819   3.654  18.111  0.00  0.00    +0.000 N 
ATOM     20  H   UNL     1       4.373   3.916  18.925  0.00  0.00    +0.000 HD
BRANCH  19  21
ATOM     21  C   UNL     1       4.246   4.088  16.801  0.00  0.00    +0.000 C 
BRANCH  21  22
ATOM     22  C   UNL     1       5.763   4.269  16.601  0.00  0.00    +0.000 C 
ATOM     23  C   UNL     1       5.985   5.404  15.581  0.00  0.00    +0.000 C 
ATOM     24  C   UNL     1       5.800   6.787  16.204  0.00  0.00    +0.000 C 
ATOM     25  C   UNL     1       6.813   6.992  17.319  0.00  0.00    +0.000 C 
ATOM     26  C   UNL     1       6.655   5.931  18.410  0.00  0.00    +0.000 C 
ATOM     27  C   UNL     1       6.614   4.499  17.866  0.00  0.00    +0.000 C 
ENDBRANCH  21  22
ENDBRANCH  19  21
ENDBRANCH  16  17
ENDBRANCH  15  16
ENDBRANCH   1  15
TORSDOF 9
ENDMDL
MODEL 2
REMARK VINA RESULT:      -7.1      5.593      7.934
REMARK  Name = 
REMARK  11 active torsions:
REMARK  status: ('A' for Active; 'I' for Inactive)
REMARK    1  A    between atoms: C_1  and  O_2
REMARK    2  A    between atoms: O_2  and  C_3
REMARK    3  A    between atoms: C_7  and  C_8
REMARK    4  A    between atoms: C_9  and  C_10
REMARK    5  A    between atoms: C_10  and  O_12
REMARK    6  A    between atoms: O_12  and  C_13
REMARK    7  A    between atoms: C_13  and  C_14
REMARK    8  A    between atoms: N_16  and  C_17
REMARK    9  A    between atoms: C_17  and  C_18
REMARK   10  A    between atoms: C_24  and  O_25
REMARK   11  A    between atoms: O_25  and  C_26
REMARK                            x       y       z     vdW  Elec       q    Type
REMARK                         _______ _______ _______ _____ _____    ______ ____
ROOT
ATOM      1  C   UNL     1       7.893   8.222  17.841  0.00  0.00    +0.000 C 
ATOM      2  O   UNL     1       6.987   8.458  17.058  0.00  0.00    +0.000 OA
ENDROOT
BRANCH   1   4
ATOM      3  C   UNL     1       8.724  10.495  18.094  0.00  0.00    +0.000 C 
ATOM      4  C   UNL     1       8.755   9.213  18.490  0.00  0.00    +0.000 C 
BRANCH   3   9
ATOM      5  C   UNL     1      10.022  13.908  19.227  0.00  0.00    +0.000 A 
ATOM      6  C   UNL     1      10.876  13.482  20.256  0.00  0.00    +0.000 A 
ATOM      7  C   UNL     1      11.062  12.127  20.516  0.00  0.00    +0.000 A 
ATOM      8  C   UNL     1      10.351  11.179  19.788  0.00  0.00    +0.000 A 
ATOM      9  C   UNL     1       9.434  11.576  18.805  0.00  0.00    +0.000 A 
ATOM     10  C   UNL     1       9.279  12.955  18.500  0.00  0.00    +0.000 A 
BRANCH   5  12
ATOM     11  C   UNL     1      10.278  16.145  19.954  0.00  0.00    +0.000 C 
ATOM     12  O   UNL     1       9.889  15.238  18.926  0.00  0.00    +0.000 OA
ENDBRANCH   5  12
BRANCH  10  13
ATOM     13  O   UNL     1       8.451  13.218  17.433  0.00  0.00    +0.000 OA
ATOM     14  C   UNL     1       7.218  13.886  17.644  0.00  0.00    +0.000 C 
ENDBRANCH  10  13
ENDBRANCH   3   9
ENDBRANCH   1   4
BRANCH   1  15
ATOM     15  O   UNL     1       8.204   7.011  18.373  0.00  0.00    +0.000 OA
BRANCH  15  16
ATOM     16  C   UNL     1       7.376   5.946  17.915  0.00  0.00    +0.000 C 
BRANCH  16  17
ATOM     17  C   UNL     1       6.470   5.470  19.047  0.00  0.00    +0.000 C 
ATOM     18  O   UNL     1       6.927   5.058  20.109  0.00  0.00    +0.000 OA
ATOM     19  N   UNL     1       5.116   5.534  18.781  0.00  0.00    +0.000 N 
ATOM     20  H   UNL     1       4.810   5.860  17.865  0.00  0.00    +0.000 HD
BRANCH  19  21
ATOM     21  C   UNL     1       4.166   4.873  19.645  0.00  0.00    +0.000 C 
BRANCH  21  22
ATOM     22  C   UNL     1       3.739   3.451  19.230  0.00  0.00    +0.000 C 
ATOM     23  C   UNL     1       3.093   2.765  20.450  0.00  0.00    +0.000 C 
ATOM     24  C   UNL     1       1.657   3.235  20.686  0.00  0.00    +0.000 C 
ATOM     25  C   UNL     1       0.797   2.895  19.480  0.00  0.00    +0.000 C 
ATOM     26  C   UNL     1       1.335   3.560  18.213  0.00  0.00    +0.000 C 
ATOM     27  C   UNL     1       2.833   3.325  17.990  0.00  0.00    +0.000 C 
ENDBRANCH  21  22
ENDBRANCH  19  21
ENDBRANCH  16  17
ENDBRANCH  15  16
ENDBRANCH   1  15
TORSDOF 9
ENDMDL
MODEL 3
REMARK VINA RESULT:      -7.1      5.421      7.583
REMARK  Name = 
REMARK  11 active torsions:
REMARK  status: ('A' for Active; 'I' for Inactive)
REMARK    1  A    between atoms: C_1  and  O_2
REMARK    2  A    between atoms: O_2  and  C_3
REMARK    3  A    between atoms: C_7  and  C_8
REMARK    4  A    between atoms: C_9  and  C_10
REMARK    5  A    between atoms: C_10  and  O_12
REMARK    6  A    between atoms: O_12  and  C_13
REMARK    7  A    between atoms: C_13  and  C_14
REMARK    8  A    between atoms: N_16  and  C_17
REMARK    9  A    between atoms: C_17  and  C_18
REMARK   10  A    between atoms: C_24  and  O_25
REMARK   11  A    between atoms: O_25  and  C_26
REMARK                            x       y       z     vdW  Elec       q    Type
REMARK                         _______ _______ _______ _____ _____    ______ ____
ROOT
ATOM      1  C   UNL     1       7.814   7.721  18.035  0.00  0.00    +0.000 C 
ATOM      2  O   UNL     1       8.222   6.828  18.761  0.00  0.00    +0.000 OA
ENDROOT
BRANCH   1   4
ATOM      3  C   UNL     1       8.983   9.608  19.033  0.00  0.00    +0.000 C 
ATOM      4  C   UNL     1       8.321   9.095  17.984  0.00  0.00    +0.000 C 
BRANCH   3   9
ATOM      5  C   UNL     1      10.536  12.966  19.992  0.00  0.00    +0.000 A 
ATOM      6  C   UNL     1      10.968  13.374  18.721  0.00  0.00    +0.000 A 
ATOM      7  C   UNL     1      10.699  12.604  17.593  0.00  0.00    +0.000 A 
ATOM      8  C   UNL     1      10.043  11.385  17.728  0.00  0.00    +0.000 A 
ATOM      9  C   UNL     1       9.666  10.915  18.995  0.00  0.00    +0.000 A 
ATOM     10  C   UNL     1       9.893  11.721  20.143  0.00  0.00    +0.000 A 
BRANCH   5  12
ATOM     11  C   UNL     1      10.099  15.026  21.073  0.00  0.00    +0.000 C 
ATOM     12  O   UNL     1      10.743  13.755  21.094  0.00  0.00    +0.000 OA
ENDBRANCH   5  12
BRANCH  10  13
ATOM     13  O   UNL     1       9.366  11.218  21.310  0.00  0.00    +0.000 OA
ATOM     14  C   UNL     1       8.291  11.890  21.946  0.00  0.00    +0.000 C 
ENDBRANCH  10  13
ENDBRANCH   3   9
ENDBRANCH   1   4
BRANCH   1  15
ATOM     15  O   UNL     1       6.900   7.594  17.038  0.00  0.00    +0.000 OA
BRANCH  15  16
ATOM     16  C   UNL     1       6.561   6.246  16.729  0.00  0.00    +0.000 C 
BRANCH  16  17
ATOM     17  C   UNL     1       5.080   6.006  17.004  0.00  0.00    +0.000 C 
ATOM     18  O   UNL     1       4.318   6.927  17.285  0.00  0.00    +0.000 OA
ATOM     19  N   UNL     1       4.673   4.689  16.920  0.00  0.00    +0.000 N 
ATOM     20  H   UNL     1       5.367   3.972  16.710  0.00  0.00    +0.000 HD
BRANCH  19  21
ATOM     21  C   UNL     1       3.376   4.288  17.413  0.00  0.00    +0.000 C 
BRANCH  21  22
ATOM     22  C   UNL     1       3.366   3.453  18.709  0.00  0.00    +0.000 C 
ATOM     23  C   UNL     1       3.237   4.418  19.905  0.00  0.00    +0.000 C 
ATOM     24  C   UNL     1       1.804   4.915  20.096  0.00  0.00    +0.000 C 
ATOM     25  C   UNL     1       0.881   3.741  20.374  0.00  0.00    +0.000 C 
ATOM     26  C   UNL     1       0.907   2.734  19.223  0.00  0.00    +0.000 C 
ATOM     27  C   UNL     1       2.323   2.322  18.806  0.00  0.00    +0.000 C 
ENDBRANCH  21  22
ENDBRANCH  19  21
ENDBRANCH  16  17
ENDBRANCH  15  16
ENDBRANCH   1  15
TORSDOF 9
ENDMDL
MODEL 4
REMARK VINA RESULT:      -7.1      0.666      1.166
REMARK  Name = 
REMARK  11 active torsions:
REMARK  status: ('A' for Active; 'I' for Inactive)
REMARK    1  A    between atoms: C_1  and  O_2
REMARK    2  A    between atoms: O_2  and  C_3
REMARK    3  A    between atoms: C_7  and  C_8
REMARK    4  A    between atoms: C_9  and  C_10
REMARK    5  A    between atoms: C_10  and  O_12
REMARK    6  A    between atoms: O_12  and  C_13
REMARK    7  A    between atoms: C_13  and  C_14
REMARK    8  A    between atoms: N_16  and  C_17
REMARK    9  A    between atoms: C_17  and  C_18
REMARK   10  A    between atoms: C_24  and  O_25
REMARK   11  A    between atoms: O_25  and  C_26
REMARK                            x       y       z     vdW  Elec       q    Type
REMARK                         _______ _______ _______ _____ _____    ______ ____
ROOT
ATOM      1  C   UNL     1       1.562   3.843  21.111  0.00  0.00    +0.000 C 
ATOM      2  O   UNL     1       2.216   3.643  22.123  0.00  0.00    +0.000 OA
ENDROOT
BRANCH   1   4
ATOM      3  C   UNL     1       2.170   6.091  20.404  0.00  0.00    +0.000 C 
ATOM      4  C   UNL     1       1.222   5.151  20.545  0.00  0.00    +0.000 C 
BRANCH   3   9
ATOM      5  C   UNL     1       1.109   9.649  19.496  0.00  0.00    +0.000 A 
ATOM      6  C   UNL     1       1.597   9.690  18.181  0.00  0.00    +0.000 A 
ATOM      7  C   UNL     1       2.188   8.570  17.603  0.00  0.00    +0.000 A 
ATOM      8  C   UNL     1       2.353   7.410  18.352  0.00  0.00    +0.000 A 
ATOM      9  C   UNL     1       1.944   7.364  19.693  0.00  0.00    +0.000 A 
ATOM     10  C   UNL     1       1.294   8.487  20.272  0.00  0.00    +0.000 A 
BRANCH   5  12
ATOM     11  C   UNL     1      -0.860  10.959  19.583  0.00  0.00    +0.000 C 
ATOM     12  O   UNL     1       0.468  10.730  20.044  0.00  0.00    +0.000 OA
ENDBRANCH   5  12
BRANCH  10  13
ATOM     13  O   UNL     1       0.822   8.283  21.548  0.00  0.00    +0.000 OA
ATOM     14  C   UNL     1       1.283   9.102  22.610  0.00  0.00    +0.000 C 
ENDBRANCH  10  13
ENDBRANCH   3   9
ENDBRANCH   1   4
BRANCH   1  15
ATOM     15  O   UNL     1       1.129   2.901  20.233  0.00  0.00    +0.000 OA
BRANCH  15  16
ATOM     16  C   UNL     1       2.169   2.102  19.678  0.00  0.00    +0.000 C 
BRANCH  16  17
ATOM     17  C   UNL     1       2.601   2.674  18.331  0.00  0.00    +0.000 C 
ATOM     18  O   UNL     1       1.903   2.559  17.328  0.00  0.00    +0.000 OA
ATOM     19  N   UNL     1       3.824   3.316  18.332  0.00  0.00    +0.000 N 
ATOM     20  H   UNL     1       4.362   3.348  19.197  0.00  0.00    +0.000 HD
BRANCH  19  21
ATOM     21  C   UNL     1       4.471   3.663  17.088  0.00  0.00    +0.000 C 
BRANCH  21  22
ATOM     22  C   UNL     1       4.702   5.165  16.833  0.00  0.00    +0.000 C 
ATOM     23  C   UNL     1       5.118   5.824  18.163  0.00  0.00    +0.000 C 
ATOM     24  C   UNL     1       6.582   5.555  18.509  0.00  0.00    +0.000 C 
ATOM     25  C   UNL     1       7.483   6.132  17.430  0.00  0.00    +0.000 C 
ATOM     26  C   UNL     1       7.175   5.515  16.065  0.00  0.00    +0.000 C 
ATOM     27  C   UNL     1       5.686   5.541  15.707  0.00  0.00    +0.000 C 
ENDBRANCH  21  22
ENDBRANCH  19  21
ENDBRANCH  16  17
ENDBRANCH  15  16
ENDBRANCH   1  15
TORSDOF 9
ENDMDL
MODEL 5
REMARK VINA RESULT:      -7.0      5.537      7.643
REMARK  Name = 
REMARK  11 active torsions:
REMARK  status: ('A' for Active; 'I' for Inactive)
REMARK    1  A    between atoms: C_1  and  O_2
REMARK    2  A    between atoms: O_2  and  C_3
REMARK    3  A    between atoms: C_7  and  C_8
REMARK    4  A    between atoms: C_9  and  C_10
REMARK    5  A    between atoms: C_10  and  O_12
REMARK    6  A    between atoms: O_12  and  C_13
REMARK    7  A    between atoms: C_13  and  C_14
REMARK    8  A    between atoms: N_16  and  C_17
REMARK    9  A    between atoms: C_17  and  C_18
REMARK   10  A    between atoms: C_24  and  O_25
REMARK   11  A    between atoms: O_25  and  C_26
REMARK                            x       y       z     vdW  Elec       q    Type
REMARK                         _______ _______ _______ _____ _____    ______ ____
ROOT
ATOM      1  C   UNL     1       7.966   7.804  18.171  0.00  0.00    +0.000 C 
ATOM      2  O   UNL     1       8.478   6.964  18.894  0.00  0.00    +0.000 OA
ENDROOT
BRANCH   1   4
ATOM      3  C   UNL     1       9.083   9.774  19.061  0.00  0.00    +0.000 C 
ATOM      4  C   UNL     1       8.331   9.221  18.097  0.00  0.00    +0.000 C 
BRANCH   3   9
ATOM      5  C   UNL     1      10.399  13.261  19.909  0.00  0.00    +0.000 A 
ATOM      6  C   UNL     1      10.652  13.718  18.607  0.00  0.00    +0.000 A 
ATOM      7  C   UNL     1      10.340  12.933  17.501  0.00  0.00    +0.000 A 
ATOM      8  C   UNL     1       9.823  11.655  17.683  0.00  0.00    +0.000 A 
ATOM      9  C   UNL     1       9.629  11.142  18.974  0.00  0.00    +0.000 A 
ATOM     10  C   UNL     1       9.898  11.959  20.105  0.00  0.00    +0.000 A 
BRANCH   5  12
ATOM     11  C   UNL     1       9.889  15.265  21.061  0.00  0.00    +0.000 C 
ATOM     12  O   UNL     1      10.645  14.059  20.996  0.00  0.00    +0.000 OA
ENDBRANCH   5  12
BRANCH  10  13
ATOM     13  O   UNL     1       9.549  11.399  21.313  0.00  0.00    +0.000 OA
ATOM     14  C   UNL     1       8.436  11.907  22.031  0.00  0.00    +0.000 C 
ENDBRANCH  10  13
ENDBRANCH   3   9
ENDBRANCH   1   4
BRANCH   1  15
ATOM     15  O   UNL     1       7.047   7.576  17.197  0.00  0.00    +0.000 OA
BRANCH  15  16
ATOM     16  C   UNL     1       7.008   6.228  16.739  0.00  0.00    +0.000 C 
BRANCH  16  17
ATOM     17  C   UNL     1       6.266   5.357  17.749  0.00  0.00    +0.000 C 
ATOM     18  O   UNL     1       6.803   4.393  18.288  0.00  0.00    +0.000 OA
ATOM     19  N   UNL     1       4.961   5.733  18.000  0.00  0.00    +0.000 N 
ATOM     20  H   UNL     1       4.572   6.528  17.494  0.00  0.00    +0.000 HD
BRANCH  19  21
ATOM     21  C   UNL     1       4.069   4.853  18.718  0.00  0.00    +0.000 C 
BRANCH  21  22
ATOM     22  C   UNL     1       2.593   5.289  18.795  0.00  0.00    +0.000 C 
ATOM     23  C   UNL     1       1.777   4.409  17.828  0.00  0.00    +0.000 C 
ATOM     24  C   UNL     1       1.500   3.019  18.403  0.00  0.00    +0.000 C 
ATOM     25  C   UNL     1       0.688   3.140  19.682  0.00  0.00    +0.000 C 
ATOM     26  C   UNL     1       1.429   3.972  20.729  0.00  0.00    +0.000 C 
ATOM     27  C   UNL     1       1.941   5.313  20.192  0.00  0.00    +0.000 C 
ENDBRANCH  21  22
ENDBRANCH  19  21
ENDBRANCH  16  17
ENDBRANCH  15  16
ENDBRANCH   1  15
TORSDOF 9
ENDMDL
MODEL 6
REMARK VINA RESULT:      -7.0      5.749      8.029
REMARK  Name = 
REMARK  11 active torsions:
REMARK  status: ('A' for Active; 'I' for Inactive)
REMARK    1  A    between atoms: C_1  and  O_2
REMARK    2  A    between atoms: O_2  and  C_3
REMARK    3  A    between atoms: C_7  and  C_8
REMARK    4  A    between atoms: C_9  and  C_10
REMARK    5  A    between atoms: C_10  and  O_12
REMARK    6  A    between atoms: O_12  and  C_13
REMARK    7  A    between atoms: C_13  and  C_14
REMARK    8  A    between atoms: N_16  and  C_17
REMARK    9  A    between atoms: C_17  and  C_18
REMARK   10  A    between atoms: C_24  and  O_25
REMARK   11  A    between atoms: O_25  and  C_26
REMARK                            x       y       z     vdW  Elec       q    Type
REMARK                         _______ _______ _______ _____ _____    ______ ____
ROOT
ATOM      1  C   UNL     1       8.077   8.087  18.040  0.00  0.00    +0.000 C 
ATOM      2  O   UNL     1       7.559   8.293  16.954  0.00  0.00    +0.000 OA
ENDROOT
BRANCH   1   4
ATOM      3  C   UNL     1       9.034  10.280  18.478  0.00  0.00    +0.000 C 
ATOM      4  C   UNL     1       8.601   9.103  18.956  0.00  0.00    +0.000 C 
BRANCH   3   9
ATOM      5  C   UNL     1      10.293  13.648  19.776  0.00  0.00    +0.000 A 
ATOM      6  C   UNL     1      10.101  13.435  21.150  0.00  0.00    +0.000 A 
ATOM      7  C   UNL     1       9.639  12.211  21.625  0.00  0.00    +0.000 A 
ATOM      8  C   UNL     1       9.308  11.201  20.728  0.00  0.00    +0.000 A 
ATOM      9  C   UNL     1       9.418  11.411  19.346  0.00  0.00    +0.000 A 
ATOM     10  C   UNL     1       9.937  12.640  18.858  0.00  0.00    +0.000 A 
BRANCH   5  12
ATOM     11  C   UNL     1      10.671  15.949  20.182  0.00  0.00    +0.000 C 
ATOM     12  O   UNL     1      10.810  14.830  19.312  0.00  0.00    +0.000 OA
ENDBRANCH   5  12
BRANCH  10  13
ATOM     13  O   UNL     1      10.121  12.684  17.495  0.00  0.00    +0.000 OA
ATOM     14  C   UNL     1      11.433  12.624  16.958  0.00  0.00    +0.000 C 
ENDBRANCH  10  13
ENDBRANCH   3   9
ENDBRANCH   1   4
BRANCH   1  15
ATOM     15  O   UNL     1       8.156   6.891  18.680  0.00  0.00    +0.000 OA
BRANCH  15  16
ATOM     16  C   UNL     1       7.657   5.793  17.924  0.00  0.00    +0.000 C 
BRANCH  16  17
ATOM     17  C   UNL     1       6.419   5.214  18.602  0.00  0.00    +0.000 C 
ATOM     18  O   UNL     1       6.300   5.201  19.824  0.00  0.00    +0.000 OA
ATOM     19  N   UNL     1       5.461   4.710  17.744  0.00  0.00    +0.000 N 
ATOM     20  H   UNL     1       5.641   4.729  16.741  0.00  0.00    +0.000 HD
BRANCH  19  21
ATOM     21  C   UNL     1       4.377   3.901  18.249  0.00  0.00    +0.000 C 
BRANCH  21  22
ATOM     22  C   UNL     1       3.040   4.625  18.497  0.00  0.00    +0.000 C 
ATOM     23  C   UNL     1       1.903   3.754  17.927  0.00  0.00    +0.000 C 
ATOM     24  C   UNL     1       1.554   2.583  18.847  0.00  0.00    +0.000 C 
ATOM     25  C   UNL     1       1.077   3.106  20.192  0.00  0.00    +0.000 C 
ATOM     26  C   UNL     1       2.152   3.962  20.864  0.00  0.00    +0.000 C 
ATOM     27  C   UNL     1       2.729   5.046  19.948  0.00  0.00    +0.000 C 
ENDBRANCH  21  22
ENDBRANCH  19  21
ENDBRANCH  16  17
ENDBRANCH  15  16
ENDBRANCH   1  15
TORSDOF 9
ENDMDL
MODEL 7
REMARK VINA RESULT:      -7.0      2.078      4.698
REMARK  Name = 
REMARK  11 active torsions:
REMARK  status: ('A' for Active; 'I' for Inactive)
REMARK    1  A    between atoms: C_1  and  O_2
REMARK    2  A    between atoms: O_2  and  C_3
REMARK    3  A    between atoms: C_7  and  C_8
REMARK    4  A    between atoms: C_9  and  C_10
REMARK    5  A    between atoms: C_10  and  O_12
REMARK    6  A    between atoms: O_12  and  C_13
REMARK    7  A    between atoms: C_13  and  C_14
REMARK    8  A    between atoms: N_16  and  C_17
REMARK    9  A    between atoms: C_17  and  C_18
REMARK   10  A    between atoms: C_24  and  O_25
REMARK   11  A    between atoms: O_25  and  C_26
REMARK                            x       y       z     vdW  Elec       q    Type
REMARK                         _______ _______ _______ _____ _____    ______ ____
ROOT
ATOM      1  C   UNL     1       4.863   6.526  16.308  0.00  0.00    +0.000 C 
ATOM      2  O   UNL     1       5.134   7.124  15.278  0.00  0.00    +0.000 OA
ENDROOT
BRANCH   1   4
ATOM      3  C   UNL     1       3.062   7.752  17.391  0.00  0.00    +0.000 C 
ATOM      4  C   UNL     1       4.229   7.097  17.499  0.00  0.00    +0.000 C 
BRANCH   3   9
ATOM      5  C   UNL     1       0.947   9.820  19.811  0.00  0.00    +0.000 A 
ATOM      6  C   UNL     1       0.854   8.894  20.862  0.00  0.00    +0.000 A 
ATOM      7  C   UNL     1       1.516   7.672  20.797  0.00  0.00    +0.000 A 
ATOM      8  C   UNL     1       2.234   7.333  19.655  0.00  0.00    +0.000 A 
ATOM      9  C   UNL     1       2.282   8.206  18.558  0.00  0.00    +0.000 A 
ATOM     10  C   UNL     1       1.651   9.476  18.639  0.00  0.00    +0.000 A 
BRANCH   5  12
ATOM     11  C   UNL     1      -1.075  11.047  19.892  0.00  0.00    +0.000 C 
ATOM     12  O   UNL     1       0.349  11.050  19.902  0.00  0.00    +0.000 OA
ENDBRANCH   5  12
BRANCH  10  13
ATOM     13  O   UNL     1       1.872  10.298  17.558  0.00  0.00    +0.000 OA
ATOM     14  C   UNL     1       2.517  11.548  17.742  0.00  0.00    +0.000 C 
ENDBRANCH  10  13
ENDBRANCH   3   9
ENDBRANCH   1   4
BRANCH   1  15
ATOM     15  O   UNL     1       4.973   5.188  16.515  0.00  0.00    +0.000 OA
BRANCH  15  16
ATOM     16  C   UNL     1       6.037   4.819  17.386  0.00  0.00    +0.000 C 
BRANCH  16  17
ATOM     17  C   UNL     1       5.475   4.355  18.726  0.00  0.00    +0.000 C 
ATOM     18  O   UNL     1       5.644   5.003  19.756  0.00  0.00    +0.000 OA
ATOM     19  N   UNL     1       4.775   3.165  18.689  0.00  0.00    +0.000 N 
ATOM     20  H   UNL     1       4.700   2.667  17.802  0.00  0.00    +0.000 HD
BRANCH  19  21
ATOM     21  C   UNL     1       4.425   2.481  19.911  0.00  0.00    +0.000 C 
BRANCH  21  22
ATOM     22  C   UNL     1       2.973   1.976  20.021  0.00  0.00    +0.000 C 
ATOM     23  C   UNL     1       2.378   2.497  21.344  0.00  0.00    +0.000 C 
ATOM     24  C   UNL     1       1.966   3.967  21.255  0.00  0.00    +0.000 C 
ATOM     25  C   UNL     1       0.895   4.140  20.191  0.00  0.00    +0.000 C 
ATOM     26  C   UNL     1       1.399   3.682  18.821  0.00  0.00    +0.000 C 
ATOM     27  C   UNL     1       2.032   2.287  18.840  0.00  0.00    +0.000 C 
ENDBRANCH  21  22
ENDBRANCH  19  21
ENDBRANCH  16  17
ENDBRANCH  15  16
ENDBRANCH   1  15
TORSDOF 9
ENDMDL
MODEL 8
REMARK VINA RESULT:      -7.0      4.815      7.346
REMARK  Name = 
REMARK  11 active torsions:
REMARK  status: ('A' for Active; 'I' for Inactive)
REMARK    1  A    between atoms: C_1  and  O_2
REMARK    2  A    between atoms: O_2  and  C_3
REMARK    3  A    between atoms: C_7  and  C_8
REMARK    4  A    between atoms: C_9  and  C_10
REMARK    5  A    between atoms: C_10  and  O_12
REMARK    6  A    between atoms: O_12  and  C_13
REMARK    7  A    between atoms: C_13  and  C_14
REMARK    8  A    between atoms: N_16  and  C_17
REMARK    9  A    between atoms: C_17  and  C_18
REMARK   10  A    between atoms: C_24  and  O_25
REMARK   11  A    between atoms: O_25  and  C_26
REMARK                            x       y       z     vdW  Elec       q    Type
REMARK                         _______ _______ _______ _____ _____    ______ ____
ROOT
ATOM      1  C   UNL     1       6.897   6.018  16.777  0.00  0.00    +0.000 C 
ATOM      2  O   UNL     1       7.615   5.105  16.399  0.00  0.00    +0.000 OA
ENDROOT
BRANCH   1   4
ATOM      3  C   UNL     1       5.319   5.210  18.444  0.00  0.00    +0.000 C 
ATOM      4  C   UNL     1       5.537   5.888  17.306  0.00  0.00    +0.000 C 
BRANCH   3   9
ATOM      5  C   UNL     1       2.100   4.059  20.154  0.00  0.00    +0.000 A 
ATOM      6  C   UNL     1       1.522   5.315  20.392  0.00  0.00    +0.000 A 
ATOM      7  C   UNL     1       2.139   6.481  19.948  0.00  0.00    +0.000 A 
ATOM      8  C   UNL     1       3.372   6.412  19.310  0.00  0.00    +0.000 A 
ATOM      9  C   UNL     1       4.010   5.177  19.124  0.00  0.00    +0.000 A 
ATOM     10  C   UNL     1       3.362   3.980  19.530  0.00  0.00    +0.000 A 
BRANCH   5  12
ATOM     11  C   UNL     1       1.638   2.522  21.893  0.00  0.00    +0.000 C 
ATOM     12  O   UNL     1       1.462   2.907  20.533  0.00  0.00    +0.000 OA
ENDBRANCH   5  12
BRANCH  10  13
ATOM     13  O   UNL     1       4.021   2.823  19.182  0.00  0.00    +0.000 OA
ATOM     14  C   UNL     1       3.527   2.021  18.122  0.00  0.00    +0.000 C 
ENDBRANCH  10  13
ENDBRANCH   3   9
ENDBRANCH   1   4
BRANCH   1  15
ATOM     15  O   UNL     1       7.255   7.322  16.909  0.00  0.00    +0.000 OA
BRANCH  15  16
ATOM     16  C   UNL     1       8.089   7.584  18.034  0.00  0.00    +0.000 C 
BRANCH  16  17
ATOM     17  C   UNL     1       8.256   9.090  18.216  0.00  0.00    +0.000 C 
ATOM     18  O   UNL     1       7.697   9.895  17.477  0.00  0.00    +0.000 OA
ATOM     19  N   UNL     1       9.079   9.467  19.260  0.00  0.00    +0.000 N 
ATOM     20  H   UNL     1       9.533   8.742  19.814  0.00  0.00    +0.000 HD
BRANCH  19  21
ATOM     21  C   UNL     1       9.535  10.832  19.378  0.00  0.00    +0.000 C 
BRANCH  21  22
ATOM     22  C   UNL     1      10.732  11.233  18.494  0.00  0.00    +0.000 C 
ATOM     23  C   UNL     1      10.283  12.373  17.558  0.00  0.00    +0.000 C 
ATOM     24  C   UNL     1      10.233  13.723  18.274  0.00  0.00    +0.000 C 
ATOM     25  C   UNL     1      11.616  14.090  18.786  0.00  0.00    +0.000 C 
ATOM     26  C   UNL     1      12.143  13.032  19.757  0.00  0.00    +0.000 C 
ATOM     27  C   UNL     1      12.043  11.603  19.215  0.00  0.00    +0.000 C 
ENDBRANCH  21  22
ENDBRANCH  19  21
ENDBRANCH  16  17
ENDBRANCH  15  16
ENDBRANCH   1  15
TORSDOF 9
ENDMDL
MODEL 9
REMARK VINA RESULT:      -6.9      5.406      7.598
REMARK  Name = 
REMARK  11 active torsions:
REMARK  status: ('A' for Active; 'I' for Inactive)
REMARK    1  A    between atoms: C_1  and  O_2
REMARK    2  A    between atoms: O_2  and  C_3
REMARK    3  A    between atoms: C_7  and  C_8
REMARK    4  A    between atoms: C_9  and  C_10
REMARK    5  A    between atoms: C_10  and  O_12
REMARK    6  A    between atoms: O_12  and  C_13
REMARK    7  A    between atoms: C_13  and  C_14
REMARK    8  A    between atoms: N_16  and  C_17
REMARK    9  A    between atoms: C_17  and  C_18
REMARK   10  A    between atoms: C_24  and  O_25
REMARK   11  A    between atoms: O_25  and  C_26
REMARK                            x       y       z     vdW  Elec       q    Type
REMARK                         _______ _______ _______ _____ _____    ______ ____
ROOT
ATOM      1  C   UNL     1       8.014   7.864  18.045  0.00  0.00    +0.000 C 
ATOM      2  O   UNL     1       8.367   7.089  18.921  0.00  0.00    +0.000 OA
ENDROOT
BRANCH   1   4
ATOM      3  C   UNL     1       9.153   9.845  18.881  0.00  0.00    +0.000 C 
ATOM      4  C   UNL     1       8.351   9.287  17.960  0.00  0.00    +0.000 C 
BRANCH   3   9
ATOM      5  C   UNL     1       9.866  13.554  19.465  0.00  0.00    +0.000 A 
ATOM      6  C   UNL     1      10.744  13.776  18.393  0.00  0.00    +0.000 A 
ATOM      7  C   UNL     1      11.032  12.762  17.484  0.00  0.00    +0.000 A 
ATOM      8  C   UNL     1      10.491  11.494  17.667  0.00  0.00    +0.000 A 
ATOM      9  C   UNL     1       9.671  11.222  18.772  0.00  0.00    +0.000 A 
ATOM     10  C   UNL     1       9.332  12.266  19.673  0.00  0.00    +0.000 A 
BRANCH   5  12
ATOM     11  C   UNL     1      10.512  14.900  21.301  0.00  0.00    +0.000 C 
ATOM     12  O   UNL     1       9.531  14.569  20.323  0.00  0.00    +0.000 OA
ENDBRANCH   5  12
BRANCH  10  13
ATOM     13  O   UNL     1       8.420  11.916  20.642  0.00  0.00    +0.000 OA
ATOM     14  C   UNL     1       8.860  11.663  21.967  0.00  0.00    +0.000 C 
ENDBRANCH  10  13
ENDBRANCH   3   9
ENDBRANCH   1   4
BRANCH   1  15
ATOM     15  O   UNL     1       7.349   7.541  16.905  0.00  0.00    +0.000 OA
BRANCH  15  16
ATOM     16  C   UNL     1       5.994   7.153  17.112  0.00  0.00    +0.000 C 
BRANCH  16  17
ATOM     17  C   UNL     1       5.906   5.638  17.269  0.00  0.00    +0.000 C 
ATOM     18  O   UNL     1       6.541   4.876  16.546  0.00  0.00    +0.000 OA
ATOM     19  N   UNL     1       5.062   5.201  18.272  0.00  0.00    +0.000 N 
ATOM     20  H   UNL     1       4.545   5.891  18.815  0.00  0.00    +0.000 HD
BRANCH  19  21
ATOM     21  C   UNL     1       4.680   3.811  18.355  0.00  0.00    +0.000 C 
BRANCH  21  22
ATOM     22  C   UNL     1       3.453   3.389  17.524  0.00  0.00    +0.000 C 
ATOM     23  C   UNL     1       3.090   1.938  17.898  0.00  0.00    +0.000 C 
ATOM     24  C   UNL     1       2.343   1.852  19.230  0.00  0.00    +0.000 C 
ATOM     25  C   UNL     1       1.038   2.625  19.141  0.00  0.00    +0.000 C 
ATOM     26  C   UNL     1       1.288   4.096  18.806  0.00  0.00    +0.000 C 
ATOM     27  C   UNL     1       2.209   4.298  17.599  0.00  0.00    +0.000 C 
ENDBRANCH  21  22
ENDBRANCH  19  21
ENDBRANCH  16  17
ENDBRANCH  15  16
ENDBRANCH   1  15
TORSDOF 9
ENDMDL
