MODEL 1
REMARK VINA RESULT:      -9.6      0.000      0.000
REMARK  Name = 
REMARK  4 active torsions:
REMARK  status: ('A' for Active; 'I' for Inactive)
REMARK    1  A    between atoms: C_2  and  C_3
REMARK    2  A    between atoms: C_3  and  N_4
REMARK    3  A    between atoms: N_4  and  C_5
REMARK    4  A    between atoms: N_4  and  C_11
REMARK                            x       y       z     vdW  Elec       q    Type
REMARK                         _______ _______ _______ _____ _____    ______ ____
ROOT
ATOM      1  O   UNL     1       3.711   6.433  16.661  0.00  0.00    +0.000 OA
ATOM      2  C   UNL     1       4.043   5.398  17.258  0.00  0.00    +0.000 C 
ATOM      3  N   UNL     1       3.683   5.165  18.582  0.00  0.00    +0.000 N 
ATOM      4  C   UNL     1       2.872   6.093  19.308  0.00  0.00    +0.000 A 
ATOM      5  C   UNL     1       2.702   7.457  19.132  0.00  0.00    +0.000 A 
ATOM      6  C   UNL     1       1.792   8.135  19.955  0.00  0.00    +0.000 A 
ATOM      7  C   UNL     1       1.054   7.448  20.930  0.00  0.00    +0.000 A 
ATOM      8  C   UNL     1       1.230   6.078  21.110  0.00  0.00    +0.000 A 
ATOM      9  C   UNL     1       2.148   5.422  20.302  0.00  0.00    +0.000 A 
ATOM     10  C   UNL     1       2.432   3.951  20.260  0.00  0.00    +0.000 C 
ATOM     11  C   UNL     1       1.387   3.193  19.458  0.00  0.00    +0.000 C 
ATOM     12  C   UNL     1       1.741   2.235  18.580  0.00  0.00    +0.000 C 
ATOM     13  C   UNL     1       3.117   1.831  18.466  0.00  0.00    +0.000 C 
ATOM     14  C   UNL     1       4.094   2.637  18.900  0.00  0.00    +0.000 C 
ATOM     15  C   UNL     1       3.805   3.974  19.511  0.00  0.00    +0.000 C 
ENDROOT
BRANCH   2  16
ATOM     16  C   UNL     1       4.762   4.309  16.446  0.00  0.00    +0.000 C 
BRANCH  16  17
ATOM     17  N   UNL     1       6.121   4.729  16.026  0.00  0.00    +0.000 N 
BRANCH  17  18
ATOM     18  C   UNL     1       6.467   4.520  14.667  0.00  0.00    +0.000 A 
ATOM     19  C   UNL     1       7.512   5.212  14.029  0.00  0.00    +0.000 A 
ATOM     20  C   UNL     1       7.795   5.053  12.671  0.00  0.00    +0.000 A 
ATOM     21  C   UNL     1       7.046   4.166  11.911  0.00  0.00    +0.000 A 
ATOM     22  C   UNL     1       6.027   3.443  12.517  0.00  0.00    +0.000 A 
ATOM     23  C   UNL     1       5.739   3.620  13.874  0.00  0.00    +0.000 A 
ENDBRANCH  17  18
BRANCH  17  24
ATOM     24  C   UNL     1       6.846   5.486  16.982  0.00  0.00    +0.000 A 
ATOM     25  C   UNL     1       7.385   4.903  18.143  0.00  0.00    +0.000 A 
ATOM     26  C   UNL     1       8.091   5.660  19.085  0.00  0.00    +0.000 A 
ATOM     27  C   UNL     1       8.294   7.019  18.877  0.00  0.00    +0.000 A 
ATOM     28  C   UNL     1       7.777   7.625  17.732  0.00  0.00    +0.000 A 
ATOM     29  C   UNL     1       7.060   6.864  16.802  0.00  0.00    +0.000 A 
ENDBRANCH  17  24
ENDBRANCH  16  17
ENDBRANCH   2  16
TORSDOF 4
ENDMDL
MODEL 2
REMARK VINA RESULT:      -9.5      0.114      1.264
REMARK  Name = 
REMARK  4 active torsions:
REMARK  status: ('A' for Active; 'I' for Inactive)
REMARK    1  A    between atoms: C_2  and  C_3
REMARK    2  A    between atoms: C_3  and  N_4
REMARK    3  A    between atoms: N_4  and  C_5
REMARK    4  A    between atoms: N_4  and  C_11
REMARK                            x       y       z     vdW  Elec       q    Type
REMARK                         _______ _______ _______ _____ _____    ______ ____
ROOT
ATOM      1  O   UNL     1       3.651   6.483  16.677  0.00  0.00    +0.000 OA
ATOM      2  C   UNL     1       3.983   5.460  17.295  0.00  0.00    +0.000 C 
ATOM      3  N   UNL     1       3.619   5.254  18.623  0.00  0.00    +0.000 N 
ATOM      4  C   UNL     1       2.806   6.196  19.328  0.00  0.00    +0.000 A 
ATOM      5  C   UNL     1       2.637   7.557  19.124  0.00  0.00    +0.000 A 
ATOM      6  C   UNL     1       1.725   8.250  19.932  0.00  0.00    +0.000 A 
ATOM      7  C   UNL     1       0.985   7.584  20.919  0.00  0.00    +0.000 A 
ATOM      8  C   UNL     1       1.161   6.217  21.126  0.00  0.00    +0.000 A 
ATOM      9  C   UNL     1       2.081   5.545  20.334  0.00  0.00    +0.000 A 
ATOM     10  C   UNL     1       2.366   4.074  20.323  0.00  0.00    +0.000 C 
ATOM     11  C   UNL     1       1.323   3.300  19.534  0.00  0.00    +0.000 C 
ATOM     12  C   UNL     1       1.679   2.324  18.676  0.00  0.00    +0.000 C 
ATOM     13  C   UNL     1       3.055   1.918  18.574  0.00  0.00    +0.000 C 
ATOM     14  C   UNL     1       4.031   2.733  18.993  0.00  0.00    +0.000 C 
ATOM     15  C   UNL     1       3.740   4.082  19.576  0.00  0.00    +0.000 C 
ENDROOT
BRANCH   2  16
ATOM     16  C   UNL     1       4.704   4.356  16.508  0.00  0.00    +0.000 C 
BRANCH  16  17
ATOM     17  N   UNL     1       6.046   4.783  16.045  0.00  0.00    +0.000 N 
BRANCH  17  18
ATOM     18  C   UNL     1       6.350   4.580  14.675  0.00  0.00    +0.000 A 
ATOM     19  C   UNL     1       5.617   3.708  13.851  0.00  0.00    +0.000 A 
ATOM     20  C   UNL     1       5.971   3.459  12.523  0.00  0.00    +0.000 A 
ATOM     21  C   UNL     1       7.068   4.104  11.971  0.00  0.00    +0.000 A 
ATOM     22  C   UNL     1       7.796   4.996  12.748  0.00  0.00    +0.000 A 
ATOM     23  C   UNL     1       7.444   5.228  14.082  0.00  0.00    +0.000 A 
ENDBRANCH  17  18
BRANCH  17  24
ATOM     24  C   UNL     1       6.799   5.540  16.979  0.00  0.00    +0.000 A 
ATOM     25  C   UNL     1       7.028   6.918  16.813  0.00  0.00    +0.000 A 
ATOM     26  C   UNL     1       7.781   7.654  17.735  0.00  0.00    +0.000 A 
ATOM     27  C   UNL     1       8.308   7.032  18.860  0.00  0.00    +0.000 A 
ATOM     28  C   UNL     1       8.094   5.667  19.056  0.00  0.00    +0.000 A 
ATOM     29  C   UNL     1       7.352   4.935  18.122  0.00  0.00    +0.000 A 
ENDBRANCH  17  24
ENDBRANCH  16  17
ENDBRANCH   2  16
TORSDOF 4
ENDMDL
MODEL 3
REMARK VINA RESULT:      -9.3      0.262      3.656
REMARK  Name = 
REMARK  4 active torsions:
REMARK  status: ('A' for Active; 'I' for Inactive)
REMARK    1  A    between atoms: C_2  and  C_3
REMARK    2  A    between atoms: C_3  and  N_4
REMARK    3  A    between atoms: N_4  and  C_5
REMARK    4  A    between atoms: N_4  and  C_11
REMARK                            x       y       z     vdW  Elec       q    Type
REMARK                         _______ _______ _______ _____ _____    ______ ____
ROOT
ATOM      1  O   UNL     1       3.563   6.773  16.710  0.00  0.00    +0.000 OA
ATOM      2  C   UNL     1       3.914   5.723  17.269  0.00  0.00    +0.000 C 
ATOM      3  N   UNL     1       3.558   5.437  18.585  0.00  0.00    +0.000 N 
ATOM      4  C   UNL     1       2.732   6.325  19.343  0.00  0.00    +0.000 A 
ATOM      5  C   UNL     1       2.538   7.692  19.215  0.00  0.00    +0.000 A 
ATOM      6  C   UNL     1       1.618   8.324  20.062  0.00  0.00    +0.000 A 
ATOM      7  C   UNL     1       0.893   7.591  21.012  0.00  0.00    +0.000 A 
ATOM      8  C   UNL     1       1.092   6.218  21.143  0.00  0.00    +0.000 A 
ATOM      9  C   UNL     1       2.021   5.607  20.313  0.00  0.00    +0.000 A 
ATOM     10  C   UNL     1       2.330   4.143  20.219  0.00  0.00    +0.000 C 
ATOM     11  C   UNL     1       1.298   3.397  19.391  0.00  0.00    +0.000 C 
ATOM     12  C   UNL     1       1.668   2.476  18.479  0.00  0.00    +0.000 C 
ATOM     13  C   UNL     1       3.050   2.100  18.351  0.00  0.00    +0.000 C 
ATOM     14  C   UNL     1       4.014   2.907  18.813  0.00  0.00    +0.000 C 
ATOM     15  C   UNL     1       3.702   4.217  19.471  0.00  0.00    +0.000 C 
ENDROOT
BRANCH   2  16
ATOM     16  C   UNL     1       4.650   4.677  16.420  0.00  0.00    +0.000 C 
BRANCH  16  17
ATOM     17  N   UNL     1       5.983   5.153  15.975  0.00  0.00    +0.000 N 
BRANCH  17  18
ATOM     18  C   UNL     1       6.819   5.736  16.961  0.00  0.00    +0.000 A 
ATOM     19  C   UNL     1       7.368   5.004  18.028  0.00  0.00    +0.000 A 
ATOM     20  C   UNL     1       8.129   5.603  19.034  0.00  0.00    +0.000 A 
ATOM     21  C   UNL     1       8.385   6.966  18.984  0.00  0.00    +0.000 A 
ATOM     22  C   UNL     1       7.884   7.714  17.926  0.00  0.00    +0.000 A 
ATOM     23  C   UNL     1       7.110   7.109  16.931  0.00  0.00    +0.000 A 
ENDBRANCH  17  18
BRANCH  17  24
ATOM     24  C   UNL     1       6.353   4.781  14.658  0.00  0.00    +0.000 A 
ATOM     25  C   UNL     1       7.464   5.347  14.007  0.00  0.00    +0.000 A 
ATOM     26  C   UNL     1       7.816   4.980  12.702  0.00  0.00    +0.000 A 
ATOM     27  C   UNL     1       7.075   4.021  12.023  0.00  0.00    +0.000 A 
ATOM     28  C   UNL     1       5.971   3.437  12.645  0.00  0.00    +0.000 A 
ATOM     29  C   UNL     1       5.617   3.819  13.944  0.00  0.00    +0.000 A 
ENDBRANCH  17  24
ENDBRANCH  16  17
ENDBRANCH   2  16
TORSDOF 4
ENDMDL
MODEL 4
REMARK VINA RESULT:      -9.0      0.565      3.572
REMARK  Name = 
REMARK  4 active torsions:
REMARK  status: ('A' for Active; 'I' for Inactive)
REMARK    1  A    between atoms: C_2  and  C_3
REMARK    2  A    between atoms: C_3  and  N_4
REMARK    3  A    between atoms: N_4  and  C_5
REMARK    4  A    between atoms: N_4  and  C_11
REMARK                            x       y       z     vdW  Elec       q    Type
REMARK                         _______ _______ _______ _____ _____    ______ ____
ROOT
ATOM      1  O   UNL     1       3.393   6.987  16.762  0.00  0.00    +0.000 OA
ATOM      2  C   UNL     1       3.752   5.972  17.378  0.00  0.00    +0.000 C 
ATOM      3  N   UNL     1       3.411   5.763  18.712  0.00  0.00    +0.000 N 
ATOM      4  C   UNL     1       2.590   6.692  19.425  0.00  0.00    +0.000 A 
ATOM      5  C   UNL     1       2.392   8.048  19.220  0.00  0.00    +0.000 A 
ATOM      6  C   UNL     1       1.479   8.727  20.038  0.00  0.00    +0.000 A 
ATOM      7  C   UNL     1       0.766   8.050  21.037  0.00  0.00    +0.000 A 
ATOM      8  C   UNL     1       0.970   6.687  21.246  0.00  0.00    +0.000 A 
ATOM      9  C   UNL     1       1.891   6.031  20.443  0.00  0.00    +0.000 A 
ATOM     10  C   UNL     1       2.203   4.564  20.431  0.00  0.00    +0.000 C 
ATOM     11  C   UNL     1       1.163   3.769  19.660  0.00  0.00    +0.000 C 
ATOM     12  C   UNL     1       1.525   2.798  18.799  0.00  0.00    +0.000 C 
ATOM     13  C   UNL     1       2.907   2.417  18.679  0.00  0.00    +0.000 C 
ATOM     14  C   UNL     1       3.874   3.251  19.082  0.00  0.00    +0.000 C 
ATOM     15  C   UNL     1       3.566   4.596  19.666  0.00  0.00    +0.000 C 
ENDROOT
BRANCH   2  16
ATOM     16  C   UNL     1       4.482   4.879  16.584  0.00  0.00    +0.000 C 
BRANCH  16  17
ATOM     17  N   UNL     1       5.824   5.318  16.130  0.00  0.00    +0.000 N 
BRANCH  17  18
ATOM     18  C   UNL     1       6.660   5.934  17.096  0.00  0.00    +0.000 A 
ATOM     19  C   UNL     1       7.036   7.287  17.030  0.00  0.00    +0.000 A 
ATOM     20  C   UNL     1       7.920   7.863  17.944  0.00  0.00    +0.000 A 
ATOM     21  C   UNL     1       8.437   7.097  18.979  0.00  0.00    +0.000 A 
ATOM     22  C   UNL     1       8.061   5.765  19.093  0.00  0.00    +0.000 A 
ATOM     23  C   UNL     1       7.188   5.191  18.163  0.00  0.00    +0.000 A 
ENDBRANCH  17  18
BRANCH  17  24
ATOM     24  C   UNL     1       6.201   4.881  14.835  0.00  0.00    +0.000 A 
ATOM     25  C   UNL     1       5.429   3.961  14.103  0.00  0.00    +0.000 A 
ATOM     26  C   UNL     1       5.816   3.529  12.828  0.00  0.00    +0.000 A 
ATOM     27  C   UNL     1       6.976   4.024  12.245  0.00  0.00    +0.000 A 
ATOM     28  C   UNL     1       7.760   4.942  12.945  0.00  0.00    +0.000 A 
ATOM     29  C   UNL     1       7.374   5.359  14.224  0.00  0.00    +0.000 A 
ENDBRANCH  17  24
ENDBRANCH  16  17
ENDBRANCH   2  16
TORSDOF 4
ENDMDL
MODEL 5
REMARK VINA RESULT:      -7.7      2.862      6.224
REMARK  Name = 
REMARK  4 active torsions:
REMARK  status: ('A' for Active; 'I' for Inactive)
REMARK    1  A    between atoms: C_2  and  C_3
REMARK    2  A    between atoms: C_3  and  N_4
REMARK    3  A    between atoms: N_4  and  C_5
REMARK    4  A    between atoms: N_4  and  C_11
REMARK                            x       y       z     vdW  Elec       q    Type
REMARK                         _______ _______ _______ _____ _____    ______ ____
ROOT
ATOM      1  O   UNL     1       2.083   7.453  21.109  0.00  0.00    +0.000 OA
ATOM      2  C   UNL     1       1.740   7.960  20.030  0.00  0.00    +0.000 C 
ATOM      3  N   UNL     1       0.764   8.950  19.960  0.00  0.00    +0.000 N 
ATOM      4  C   UNL     1       0.137   9.463  21.139  0.00  0.00    +0.000 A 
ATOM      5  C   UNL     1      -0.048   8.874  22.379  0.00  0.00    +0.000 A 
ATOM      6  C   UNL     1      -0.652   9.623  23.398  0.00  0.00    +0.000 A 
ATOM      7  C   UNL     1      -1.051  10.949  23.176  0.00  0.00    +0.000 A 
ATOM      8  C   UNL     1      -0.869  11.538  21.926  0.00  0.00    +0.000 A 
ATOM      9  C   UNL     1      -0.288  10.779  20.921  0.00  0.00    +0.000 A 
ATOM     10  C   UNL     1       0.081  11.232  19.540  0.00  0.00    +0.000 C 
ATOM     11  C   UNL     1       1.388  12.007  19.526  0.00  0.00    +0.000 C 
ATOM     12  C   UNL     1       2.322  11.783  18.582  0.00  0.00    +0.000 C 
ATOM     13  C   UNL     1       2.050  10.880  17.496  0.00  0.00    +0.000 C 
ATOM     14  C   UNL     1       1.080   9.964  17.608  0.00  0.00    +0.000 C 
ATOM     15  C   UNL     1       0.248   9.839  18.848  0.00  0.00    +0.000 C 
ENDROOT
BRANCH   2  16
ATOM     16  C   UNL     1       2.523   7.551  18.773  0.00  0.00    +0.000 C 
BRANCH  16  17
ATOM     17  N   UNL     1       3.180   6.231  18.926  0.00  0.00    +0.000 N 
BRANCH  17  18
ATOM     18  C   UNL     1       2.336   5.117  19.167  0.00  0.00    +0.000 A 
ATOM     19  C   UNL     1       2.069   4.624  20.457  0.00  0.00    +0.000 A 
ATOM     20  C   UNL     1       1.298   3.481  20.676  0.00  0.00    +0.000 A 
ATOM     21  C   UNL     1       0.743   2.807  19.598  0.00  0.00    +0.000 A 
ATOM     22  C   UNL     1       0.960   3.285  18.313  0.00  0.00    +0.000 A 
ATOM     23  C   UNL     1       1.748   4.421  18.100  0.00  0.00    +0.000 A 
ENDBRANCH  17  18
BRANCH  17  24
ATOM     24  C   UNL     1       4.561   6.196  18.605  0.00  0.00    +0.000 A 
ATOM     25  C   UNL     1       5.484   5.445  19.355  0.00  0.00    +0.000 A 
ATOM     26  C   UNL     1       6.846   5.426  19.035  0.00  0.00    +0.000 A 
ATOM     27  C   UNL     1       7.317   6.144  17.942  0.00  0.00    +0.000 A 
ATOM     28  C   UNL     1       6.425   6.894  17.176  0.00  0.00    +0.000 A 
ATOM     29  C   UNL     1       5.066   6.919  17.510  0.00  0.00    +0.000 A 
ENDBRANCH  17  24
ENDBRANCH  16  17
ENDBRANCH   2  16
TORSDOF 4
ENDMDL
MODEL 6
REMARK VINA RESULT:      -7.7      1.324      7.100
REMARK  Name = 
REMARK  4 active torsions:
REMARK  status: ('A' for Active; 'I' for Inactive)
REMARK    1  A    between atoms: C_2  and  C_3
REMARK    2  A    between atoms: C_3  and  N_4
REMARK    3  A    between atoms: N_4  and  C_5
REMARK    4  A    between atoms: N_4  and  C_11
REMARK                            x       y       z     vdW  Elec       q    Type
REMARK                         _______ _______ _______ _____ _____    ______ ____
ROOT
ATOM      1  O   UNL     1       3.250   5.247  16.999  0.00  0.00    +0.000 OA
ATOM      2  C   UNL     1       4.276   5.234  17.697  0.00  0.00    +0.000 C 
ATOM      3  N   UNL     1       5.510   4.847  17.182  0.00  0.00    +0.000 N 
ATOM      4  C   UNL     1       5.663   4.484  15.807  0.00  0.00    +0.000 A 
ATOM      5  C   UNL     1       4.735   3.985  14.907  0.00  0.00    +0.000 A 
ATOM      6  C   UNL     1       5.133   3.762  13.583  0.00  0.00    +0.000 A 
ATOM      7  C   UNL     1       6.442   4.049  13.166  0.00  0.00    +0.000 A 
ATOM      8  C   UNL     1       7.376   4.544  14.074  0.00  0.00    +0.000 A 
ATOM      9  C   UNL     1       6.974   4.743  15.387  0.00  0.00    +0.000 A 
ATOM     10  C   UNL     1       7.777   5.345  16.500  0.00  0.00    +0.000 C 
ATOM     11  C   UNL     1       7.809   6.862  16.422  0.00  0.00    +0.000 C 
ATOM     12  C   UNL     1       7.641   7.621  17.522  0.00  0.00    +0.000 C 
ATOM     13  C   UNL     1       7.540   7.005  18.817  0.00  0.00    +0.000 C 
ATOM     14  C   UNL     1       7.206   5.712  18.925  0.00  0.00    +0.000 C 
ATOM     15  C   UNL     1       6.926   4.865  17.721  0.00  0.00    +0.000 C 
ENDROOT
BRANCH   2  16
ATOM     16  C   UNL     1       4.170   5.788  19.126  0.00  0.00    +0.000 C 
BRANCH  16  17
ATOM     17  N   UNL     1       2.764   5.887  19.586  0.00  0.00    +0.000 N 
BRANCH  17  18
ATOM     18  C   UNL     1       2.201   4.733  20.188  0.00  0.00    +0.000 A 
ATOM     19  C   UNL     1       2.601   4.256  21.448  0.00  0.00    +0.000 A 
ATOM     20  C   UNL     1       2.094   3.077  21.997  0.00  0.00    +0.000 A 
ATOM     21  C   UNL     1       1.140   2.348  21.302  0.00  0.00    +0.000 A 
ATOM     22  C   UNL     1       0.699   2.808  20.068  0.00  0.00    +0.000 A 
ATOM     23  C   UNL     1       1.224   3.981  19.517  0.00  0.00    +0.000 A 
ENDBRANCH  17  18
BRANCH  17  24
ATOM     24  C   UNL     1       2.207   7.191  19.563  0.00  0.00    +0.000 A 
ATOM     25  C   UNL     1       2.250   8.001  18.414  0.00  0.00    +0.000 A 
ATOM     26  C   UNL     1       1.706   9.291  18.405  0.00  0.00    +0.000 A 
ATOM     27  C   UNL     1       1.086   9.796  19.541  0.00  0.00    +0.000 A 
ATOM     28  C   UNL     1       1.023   9.013  20.694  0.00  0.00    +0.000 A 
ATOM     29  C   UNL     1       1.581   7.731  20.701  0.00  0.00    +0.000 A 
ENDBRANCH  17  24
ENDBRANCH  16  17
ENDBRANCH   2  16
TORSDOF 4
ENDMDL
MODEL 7
REMARK VINA RESULT:      -7.6      7.870     10.250
REMARK  Name = 
REMARK  4 active torsions:
REMARK  status: ('A' for Active; 'I' for Inactive)
REMARK    1  A    between atoms: C_2  and  C_3
REMARK    2  A    between atoms: C_3  and  N_4
REMARK    3  A    between atoms: N_4  and  C_5
REMARK    4  A    between atoms: N_4  and  C_11
REMARK                            x       y       z     vdW  Elec       q    Type
REMARK                         _______ _______ _______ _____ _____    ______ ____
ROOT
ATOM      1  O   UNL     1      -1.744  13.730  19.671  0.00  0.00    +0.000 OA
ATOM      2  C   UNL     1      -1.738  12.583  19.199  0.00  0.00    +0.000 C 
ATOM      3  N   UNL     1      -2.898  11.819  19.109  0.00  0.00    +0.000 N 
ATOM      4  C   UNL     1      -4.166  12.339  19.518  0.00  0.00    +0.000 A 
ATOM      5  C   UNL     1      -4.469  13.331  20.438  0.00  0.00    +0.000 A 
ATOM      6  C   UNL     1      -5.809  13.697  20.617  0.00  0.00    +0.000 A 
ATOM      7  C   UNL     1      -6.829  13.084  19.874  0.00  0.00    +0.000 A 
ATOM      8  C   UNL     1      -6.523  12.083  18.954  0.00  0.00    +0.000 A 
ATOM      9  C   UNL     1      -5.194  11.716  18.800  0.00  0.00    +0.000 A 
ATOM     10  C   UNL     1      -4.632  10.736  17.815  0.00  0.00    +0.000 C 
ATOM     11  C   UNL     1      -4.486  11.343  16.430  0.00  0.00    +0.000 C 
ATOM     12  C   UNL     1      -3.376  11.142  15.693  0.00  0.00    +0.000 C 
ATOM     13  C   UNL     1      -2.349  10.250  16.161  0.00  0.00    +0.000 C 
ATOM     14  C   UNL     1      -2.271   9.935  17.460  0.00  0.00    +0.000 C 
ATOM     15  C   UNL     1      -3.233  10.488  18.468  0.00  0.00    +0.000 C 
ENDROOT
BRANCH   2  16
ATOM     16  C   UNL     1      -0.423  12.072  18.591  0.00  0.00    +0.000 C 
BRANCH  16  17
ATOM     17  N   UNL     1       0.628  11.869  19.617  0.00  0.00    +0.000 N 
BRANCH  17  18
ATOM     18  C   UNL     1       1.735  12.754  19.588  0.00  0.00    +0.000 A 
ATOM     19  C   UNL     1       2.272  13.346  20.745  0.00  0.00    +0.000 A 
ATOM     20  C   UNL     1       3.313  14.274  20.696  0.00  0.00    +0.000 A 
ATOM     21  C   UNL     1       3.871  14.620  19.474  0.00  0.00    +0.000 A 
ATOM     22  C   UNL     1       3.386  14.031  18.314  0.00  0.00    +0.000 A 
ATOM     23  C   UNL     1       2.331  13.114  18.370  0.00  0.00    +0.000 A 
ENDBRANCH  17  18
BRANCH  17  24
ATOM     24  C   UNL     1       0.305  10.945  20.644  0.00  0.00    +0.000 A 
ATOM     25  C   UNL     1      -0.262  11.354  21.865  0.00  0.00    +0.000 A 
ATOM     26  C   UNL     1      -0.568  10.436  22.876  0.00  0.00    +0.000 A 
ATOM     27  C   UNL     1      -0.333   9.080  22.682  0.00  0.00    +0.000 A 
ATOM     28  C   UNL     1       0.223   8.643  21.479  0.00  0.00    +0.000 A 
ATOM     29  C   UNL     1       0.539   9.569  20.479  0.00  0.00    +0.000 A 
ENDBRANCH  17  24
ENDBRANCH  16  17
ENDBRANCH   2  16
TORSDOF 4
ENDMDL
MODEL 8
REMARK VINA RESULT:      -7.6      1.305      7.165
REMARK  Name = 
REMARK  4 active torsions:
REMARK  status: ('A' for Active; 'I' for Inactive)
REMARK    1  A    between atoms: C_2  and  C_3
REMARK    2  A    between atoms: C_3  and  N_4
REMARK    3  A    between atoms: N_4  and  C_5
REMARK    4  A    between atoms: N_4  and  C_11
REMARK                            x       y       z     vdW  Elec       q    Type
REMARK                         _______ _______ _______ _____ _____    ______ ____
ROOT
ATOM      1  O   UNL     1       3.330   5.163  17.150  0.00  0.00    +0.000 OA
ATOM      2  C   UNL     1       4.382   5.171  17.807  0.00  0.00    +0.000 C 
ATOM      3  N   UNL     1       5.605   4.821  17.241  0.00  0.00    +0.000 N 
ATOM      4  C   UNL     1       5.714   4.475  15.857  0.00  0.00    +0.000 A 
ATOM      5  C   UNL     1       4.764   3.960  14.989  0.00  0.00    +0.000 A 
ATOM      6  C   UNL     1       5.117   3.759  13.648  0.00  0.00    +0.000 A 
ATOM      7  C   UNL     1       6.399   4.085  13.183  0.00  0.00    +0.000 A 
ATOM      8  C   UNL     1       7.355   4.597  14.059  0.00  0.00    +0.000 A 
ATOM      9  C   UNL     1       7.000   4.773  15.389  0.00  0.00    +0.000 A 
ATOM     10  C   UNL     1       7.830   5.386  16.476  0.00  0.00    +0.000 C 
ATOM     11  C   UNL     1       7.818   6.904  16.412  0.00  0.00    +0.000 C 
ATOM     12  C   UNL     1       7.673   7.649  17.525  0.00  0.00    +0.000 C 
ATOM     13  C   UNL     1       7.640   7.018  18.817  0.00  0.00    +0.000 C 
ATOM     14  C   UNL     1       7.344   5.716  18.925  0.00  0.00    +0.000 C 
ATOM     15  C   UNL     1       7.040   4.872  17.725  0.00  0.00    +0.000 C 
ENDROOT
BRANCH   2  16
ATOM     16  C   UNL     1       4.318   5.709  19.244  0.00  0.00    +0.000 C 
BRANCH  16  17
ATOM     17  N   UNL     1       2.923   5.882  19.716  0.00  0.00    +0.000 N 
BRANCH  17  18
ATOM     18  C   UNL     1       2.313   7.139  19.472  0.00  0.00    +0.000 A 
ATOM     19  C   UNL     1       2.371   7.788  18.227  0.00  0.00    +0.000 A 
ATOM     20  C   UNL     1       1.831   9.059  18.020  0.00  0.00    +0.000 A 
ATOM     21  C   UNL     1       1.187   9.712  19.061  0.00  0.00    +0.000 A 
ATOM     22  C   UNL     1       1.084   9.085  20.295  0.00  0.00    +0.000 A 
ATOM     23  C   UNL     1       1.641   7.819  20.500  0.00  0.00    +0.000 A 
ENDBRANCH  17  18
BRANCH  17  24
ATOM     24  C   UNL     1       2.283   4.701  20.171  0.00  0.00    +0.000 A 
ATOM     25  C   UNL     1       1.323   4.026  19.395  0.00  0.00    +0.000 A 
ATOM     26  C   UNL     1       0.690   2.866  19.858  0.00  0.00    +0.000 A 
ATOM     27  C   UNL     1       1.017   2.340  21.101  0.00  0.00    +0.000 A 
ATOM     28  C   UNL     1       1.970   2.984  21.891  0.00  0.00    +0.000 A 
ATOM     29  C   UNL     1       2.589   4.151  21.428  0.00  0.00    +0.000 A 
ENDBRANCH  17  24
ENDBRANCH  16  17
ENDBRANCH   2  16
TORSDOF 4
ENDMDL
MODEL 9
REMARK VINA RESULT:      -7.5      7.951     10.365
REMARK  Name = 
REMARK  4 active torsions:
REMARK  status: ('A' for Active; 'I' for Inactive)
REMARK    1  A    between atoms: C_2  and  C_3
REMARK    2  A    between atoms: C_3  and  N_4
REMARK    3  A    between atoms: N_4  and  C_5
REMARK    4  A    between atoms: N_4  and  C_11
REMARK                            x       y       z     vdW  Elec       q    Type
REMARK                         _______ _______ _______ _____ _____    ______ ____
ROOT
ATOM      1  O   UNL     1      -2.085  13.739  19.775  0.00  0.00    +0.000 OA
ATOM      2  C   UNL     1      -1.991  12.602  19.288  0.00  0.00    +0.000 C 
ATOM      3  N   UNL     1      -3.104  11.785  19.107  0.00  0.00    +0.000 N 
ATOM      4  C   UNL     1      -4.421  12.238  19.434  0.00  0.00    +0.000 A 
ATOM      5  C   UNL     1      -4.834  13.199  20.344  0.00  0.00    +0.000 A 
ATOM      6  C   UNL     1      -6.199  13.498  20.435  0.00  0.00    +0.000 A 
ATOM      7  C   UNL     1      -7.134  12.851  19.614  0.00  0.00    +0.000 A 
ATOM      8  C   UNL     1      -6.719  11.881  18.703  0.00  0.00    +0.000 A 
ATOM      9  C   UNL     1      -5.366  11.580  18.637  0.00  0.00    +0.000 A 
ATOM     10  C   UNL     1      -4.690  10.645  17.680  0.00  0.00    +0.000 C 
ATOM     11  C   UNL     1      -4.479  11.282  16.317  0.00  0.00    +0.000 C 
ATOM     12  C   UNL     1      -3.312  11.146  15.657  0.00  0.00    +0.000 C 
ATOM     13  C   UNL     1      -2.279  10.295  16.183  0.00  0.00    +0.000 C 
ATOM     14  C   UNL     1      -2.275   9.961  17.480  0.00  0.00    +0.000 C 
ATOM     15  C   UNL     1      -3.329  10.451  18.426  0.00  0.00    +0.000 C 
ENDROOT
BRANCH   2  16
ATOM     16  C   UNL     1      -0.614  12.163  18.766  0.00  0.00    +0.000 C 
BRANCH  16  17
ATOM     17  N   UNL     1       0.389  12.056  19.853  0.00  0.00    +0.000 N 
BRANCH  17  18
ATOM     18  C   UNL     1       0.198  11.022  20.805  0.00  0.00    +0.000 A 
ATOM     19  C   UNL     1       0.513   9.677  20.547  0.00  0.00    +0.000 A 
ATOM     20  C   UNL     1       0.251   8.658  21.464  0.00  0.00    +0.000 A 
ATOM     21  C   UNL     1      -0.319   8.965  22.691  0.00  0.00    +0.000 A 
ATOM     22  C   UNL     1      -0.614  10.288  22.991  0.00  0.00    +0.000 A 
ATOM     23  C   UNL     1      -0.363  11.302  22.061  0.00  0.00    +0.000 A 
ENDBRANCH  17  18
BRANCH  17  24
ATOM     24  C   UNL     1       1.543  12.866  19.698  0.00  0.00    +0.000 A 
ATOM     25  C   UNL     1       2.123  13.106  18.440  0.00  0.00    +0.000 A 
ATOM     26  C   UNL     1       3.268  13.899  18.299  0.00  0.00    +0.000 A 
ATOM     27  C   UNL     1       3.849  14.490  19.414  0.00  0.00    +0.000 A 
ATOM     28  C   UNL     1       3.293  14.275  20.675  0.00  0.00    +0.000 A 
ATOM     29  C   UNL     1       2.157  13.470  20.810  0.00  0.00    +0.000 A 
ENDBRANCH  17  24
ENDBRANCH  16  17
ENDBRANCH   2  16
TORSDOF 4
ENDMDL
