MODEL 1
REMARK VINA RESULT:      -8.8      0.000      0.000
REMARK  Name = 
REMARK  7 active torsions:
REMARK  status: ('A' for Active; 'I' for Inactive)
REMARK    1  A    between atoms: C_4  and  N_5
REMARK    2  A    between atoms: N_5  and  C_6
REMARK    3  A    between atoms: C_6  and  C_7
REMARK    4  A    between atoms: C_6  and  C_14
REMARK    5  A    between atoms: C_7  and  C_8
REMARK    6  A    between atoms: N_16  and  C_17
REMARK    7  A    between atoms: C_20  and  C_21
REMARK                            x       y       z     vdW  Elec       q    Type
REMARK                         _______ _______ _______ _____ _____    ______ ____
ROOT
ATOM      1  C   UNL     1       7.391   6.645  17.944  0.00  0.00    +0.000 C 
ENDROOT
BRANCH   1   2
ATOM      2  C   UNL     1       7.406   5.526  16.875  0.00  0.00    +0.000 C 
ATOM      3  O   UNL     1       8.068   4.501  17.032  0.00  0.00    +0.000 OA
ATOM      4  N   UNL     1       6.682   5.825  15.724  0.00  0.00    +0.000 N 
ATOM      5  H   UNL     1       6.397   6.787  15.582  0.00  0.00    +0.000 HD
BRANCH   4   6
ATOM      6  C   UNL     1       6.509   4.961  14.615  0.00  0.00    +0.000 A 
ATOM      7  C   UNL     1       7.406   4.907  13.547  0.00  0.00    +0.000 A 
ATOM      8  C   UNL     1       7.189   4.042  12.470  0.00  0.00    +0.000 A 
ATOM      9  C   UNL     1       6.066   3.208  12.439  0.00  0.00    +0.000 A 
ATOM     10  C   UNL     1       5.171   3.250  13.516  0.00  0.00    +0.000 A 
ATOM     11  C   UNL     1       5.396   4.111  14.600  0.00  0.00    +0.000 A 
BRANCH   9  12
ATOM     12  C   UNL     1       5.826   2.282  11.269  0.00  0.00    +0.000 C 
ATOM     13  F   UNL     1       6.898   2.165  10.436  0.00  0.00    +0.000 F 
ATOM     14  F   UNL     1       5.524   1.014  11.665  0.00  0.00    +0.000 F 
ATOM     15  F   UNL     1       4.788   2.686  10.486  0.00  0.00    +0.000 F 
ENDBRANCH   9  12
ENDBRANCH   4   6
ENDBRANCH   1   2
BRANCH   1  16
ATOM     16  N   UNL     1       6.277   6.480  18.898  0.00  0.00    +0.000 N 
ATOM     17  H   UNL     1       5.754   7.347  19.079  0.00  0.00    +0.000 HD
BRANCH  16  21
ATOM     18  O   UNL     1       4.998   2.076  20.231  0.00  0.00    +0.000 OA
ATOM     19  C   UNL     1       4.685   3.119  19.668  0.00  0.00    +0.000 C 
ATOM     20  C   UNL     1       5.633   4.243  19.620  0.00  0.00    +0.000 C 
ATOM     21  C   UNL     1       5.415   5.378  18.944  0.00  0.00    +0.000 C 
ATOM     22  C   UNL     1       4.130   5.504  18.155  0.00  0.00    +0.000 C 
ATOM     23  O   UNL     1       3.942   6.466  17.416  0.00  0.00    +0.000 OA
ATOM     24  C   UNL     1       3.096   4.456  18.318  0.00  0.00    +0.000 A 
ATOM     25  C   UNL     1       1.828   4.625  17.746  0.00  0.00    +0.000 A 
ATOM     26  C   UNL     1       0.833   3.661  17.944  0.00  0.00    +0.000 A 
ATOM     27  C   UNL     1       1.103   2.520  18.699  0.00  0.00    +0.000 A 
ATOM     28  C   UNL     1       2.371   2.337  19.250  0.00  0.00    +0.000 A 
ATOM     29  C   UNL     1       3.363   3.308  19.060  0.00  0.00    +0.000 A 
ENDBRANCH  16  21
ENDBRANCH   1  16
BRANCH   1  30
ATOM     30  C   UNL     1       7.474   8.076  17.364  0.00  0.00    +0.000 C 
BRANCH  30  31
ATOM     31  C   UNL     1       8.232   9.217  18.013  0.00  0.00    +0.000 A 
ATOM     32  C   UNL     1       8.964   9.127  19.199  0.00  0.00    +0.000 A 
ATOM     33  C   UNL     1       9.556  10.262  19.767  0.00  0.00    +0.000 A 
ATOM     34  C   UNL     1       9.455  11.502  19.142  0.00  0.00    +0.000 A 
ATOM     35  C   UNL     1       8.776  11.607  17.935  0.00  0.00    +0.000 A 
ATOM     36  C   UNL     1       8.173  10.475  17.377  0.00  0.00    +0.000 A 
ENDBRANCH  30  31
ENDBRANCH   1  30
TORSDOF 7
ENDMDL
MODEL 2
REMARK VINA RESULT:      -8.5      5.239      7.325
REMARK  Name = 
REMARK  7 active torsions:
REMARK  status: ('A' for Active; 'I' for Inactive)
REMARK    1  A    between atoms: C_4  and  N_5
REMARK    2  A    between atoms: N_5  and  C_6
REMARK    3  A    between atoms: C_6  and  C_7
REMARK    4  A    between atoms: C_6  and  C_14
REMARK    5  A    between atoms: C_7  and  C_8
REMARK    6  A    between atoms: N_16  and  C_17
REMARK    7  A    between atoms: C_20  and  C_21
REMARK                            x       y       z     vdW  Elec       q    Type
REMARK                         _______ _______ _______ _____ _____    ______ ____
ROOT
ATOM      1  C   UNL     1       5.109   4.888  16.174  0.00  0.00    +0.000 C 
ENDROOT
BRANCH   1   2
ATOM      2  C   UNL     1       4.702   5.916  17.258  0.00  0.00    +0.000 C 
ATOM      3  O   UNL     1       5.542   6.436  17.992  0.00  0.00    +0.000 OA
ATOM      4  N   UNL     1       3.330   6.121  17.365  0.00  0.00    +0.000 N 
ATOM      5  H   UNL     1       2.716   5.459  16.906  0.00  0.00    +0.000 HD
BRANCH   4   6
ATOM      6  C   UNL     1       2.703   7.031  18.251  0.00  0.00    +0.000 A 
ATOM      7  C   UNL     1       2.453   6.735  19.592  0.00  0.00    +0.000 A 
ATOM      8  C   UNL     1       1.824   7.664  20.428  0.00  0.00    +0.000 A 
ATOM      9  C   UNL     1       1.431   8.914  19.937  0.00  0.00    +0.000 A 
ATOM     10  C   UNL     1       1.693   9.219  18.595  0.00  0.00    +0.000 A 
ATOM     11  C   UNL     1       2.333   8.290  17.762  0.00  0.00    +0.000 A 
BRANCH   9  12
ATOM     12  C   UNL     1       0.741   9.913  20.838  0.00  0.00    +0.000 C 
ATOM     13  F   UNL     1      -0.619   9.841  20.792  0.00  0.00    +0.000 F 
ATOM     14  F   UNL     1       1.078   9.748  22.147  0.00  0.00    +0.000 F 
ATOM     15  F   UNL     1       1.056  11.201  20.529  0.00  0.00    +0.000 F 
ENDBRANCH   9  12
ENDBRANCH   4   6
ENDBRANCH   1   2
BRANCH   1  16
ATOM     16  N   UNL     1       4.999   3.500  16.664  0.00  0.00    +0.000 N 
ATOM     17  H   UNL     1       5.823   2.921  16.456  0.00  0.00    +0.000 HD
BRANCH  16  21
ATOM     18  O   UNL     1       5.194   1.951  21.177  0.00  0.00    +0.000 OA
ATOM     19  C   UNL     1       4.506   2.381  20.259  0.00  0.00    +0.000 C 
ATOM     20  C   UNL     1       5.128   2.740  18.975  0.00  0.00    +0.000 C 
ATOM     21  C   UNL     1       4.442   3.122  17.891  0.00  0.00    +0.000 C 
ATOM     22  C   UNL     1       2.932   3.158  17.977  0.00  0.00    +0.000 C 
ATOM     23  O   UNL     1       2.254   3.373  16.976  0.00  0.00    +0.000 OA
ATOM     24  C   UNL     1       2.295   2.956  19.299  0.00  0.00    +0.000 A 
ATOM     25  C   UNL     1       0.917   3.157  19.453  0.00  0.00    +0.000 A 
ATOM     26  C   UNL     1       0.323   3.020  20.713  0.00  0.00    +0.000 A 
ATOM     27  C   UNL     1       1.097   2.667  21.818  0.00  0.00    +0.000 A 
ATOM     28  C   UNL     1       2.464   2.442  21.664  0.00  0.00    +0.000 A 
ATOM     29  C   UNL     1       3.060   2.592  20.404  0.00  0.00    +0.000 A 
ENDBRANCH  16  21
ENDBRANCH   1  16
BRANCH   1  30
ATOM     30  C   UNL     1       6.471   5.180  15.504  0.00  0.00    +0.000 C 
BRANCH  30  31
ATOM     31  C   UNL     1       6.815   4.814  14.074  0.00  0.00    +0.000 A 
ATOM     32  C   UNL     1       7.734   5.489  13.268  0.00  0.00    +0.000 A 
ATOM     33  C   UNL     1       7.916   5.129  11.927  0.00  0.00    +0.000 A 
ATOM     34  C   UNL     1       7.205   4.065  11.376  0.00  0.00    +0.000 A 
ATOM     35  C   UNL     1       6.323   3.346  12.172  0.00  0.00    +0.000 A 
ATOM     36  C   UNL     1       6.132   3.717  13.506  0.00  0.00    +0.000 A 
ENDBRANCH  30  31
ENDBRANCH   1  30
TORSDOF 7
ENDMDL
MODEL 3
REMARK VINA RESULT:      -8.5      0.689      1.768
REMARK  Name = 
REMARK  7 active torsions:
REMARK  status: ('A' for Active; 'I' for Inactive)
REMARK    1  A    between atoms: C_4  and  N_5
REMARK    2  A    between atoms: N_5  and  C_6
REMARK    3  A    between atoms: C_6  and  C_7
REMARK    4  A    between atoms: C_6  and  C_14
REMARK    5  A    between atoms: C_7  and  C_8
REMARK    6  A    between atoms: N_16  and  C_17
REMARK    7  A    between atoms: C_20  and  C_21
REMARK                            x       y       z     vdW  Elec       q    Type
REMARK                         _______ _______ _______ _____ _____    ______ ____
ROOT
ATOM      1  C   UNL     1       7.611   6.555  17.993  0.00  0.00    +0.000 C 
ENDROOT
BRANCH   1   2
ATOM      2  C   UNL     1       7.533   5.430  16.932  0.00  0.00    +0.000 C 
ATOM      3  O   UNL     1       8.040   4.327  17.131  0.00  0.00    +0.000 OA
ATOM      4  N   UNL     1       6.923   5.810  15.740  0.00  0.00    +0.000 N 
ATOM      5  H   UNL     1       6.779   6.799  15.578  0.00  0.00    +0.000 HD
BRANCH   4   6
ATOM      6  C   UNL     1       6.697   4.964  14.627  0.00  0.00    +0.000 A 
ATOM      7  C   UNL     1       7.511   4.966  13.493  0.00  0.00    +0.000 A 
ATOM      8  C   UNL     1       7.245   4.115  12.416  0.00  0.00    +0.000 A 
ATOM      9  C   UNL     1       6.153   3.241  12.450  0.00  0.00    +0.000 A 
ATOM     10  C   UNL     1       5.341   3.227  13.592  0.00  0.00    +0.000 A 
ATOM     11  C   UNL     1       5.618   4.072  14.675  0.00  0.00    +0.000 A 
BRANCH   9  12
ATOM     12  C   UNL     1       5.858   2.331  11.279  0.00  0.00    +0.000 C 
ATOM     13  F   UNL     1       6.917   2.162  10.437  0.00  0.00    +0.000 F 
ATOM     14  F   UNL     1       5.497   1.079  11.675  0.00  0.00    +0.000 F 
ATOM     15  F   UNL     1       4.836   2.788  10.505  0.00  0.00    +0.000 F 
ENDBRANCH   9  12
ENDBRANCH   4   6
ENDBRANCH   1   2
BRANCH   1  16
ATOM     16  N   UNL     1       6.623   6.359  19.073  0.00  0.00    +0.000 N 
ATOM     17  H   UNL     1       6.665   7.079  19.807  0.00  0.00    +0.000 HD
BRANCH  16  21
ATOM     18  O   UNL     1       2.034   6.979  17.907  0.00  0.00    +0.000 OA
ATOM     19  C   UNL     1       2.924   6.201  18.228  0.00  0.00    +0.000 C 
ATOM     20  C   UNL     1       4.294   6.694  18.441  0.00  0.00    +0.000 C 
ATOM     21  C   UNL     1       5.302   5.935  18.888  0.00  0.00    +0.000 C 
ATOM     22  C   UNL     1       5.013   4.490  19.226  0.00  0.00    +0.000 C 
ATOM     23  O   UNL     1       5.867   3.790  19.762  0.00  0.00    +0.000 OA
ATOM     24  C   UNL     1       3.686   3.933  18.871  0.00  0.00    +0.000 A 
ATOM     25  C   UNL     1       3.442   2.560  19.005  0.00  0.00    +0.000 A 
ATOM     26  C   UNL     1       2.208   2.025  18.619  0.00  0.00    +0.000 A 
ATOM     27  C   UNL     1       1.210   2.857  18.113  0.00  0.00    +0.000 A 
ATOM     28  C   UNL     1       1.441   4.228  18.002  0.00  0.00    +0.000 A 
ATOM     29  C   UNL     1       2.682   4.761  18.377  0.00  0.00    +0.000 A 
ENDBRANCH  16  21
ENDBRANCH   1  16
BRANCH   1  30
ATOM     30  C   UNL     1       7.579   7.984  17.405  0.00  0.00    +0.000 C 
BRANCH  30  31
ATOM     31  C   UNL     1       8.273   9.178  18.028  0.00  0.00    +0.000 A 
ATOM     32  C   UNL     1       9.016   9.153  19.210  0.00  0.00    +0.000 A 
ATOM     33  C   UNL     1       9.545  10.330  19.753  0.00  0.00    +0.000 A 
ATOM     34  C   UNL     1       9.368  11.551  19.107  0.00  0.00    +0.000 A 
ATOM     35  C   UNL     1       8.676  11.594  17.903  0.00  0.00    +0.000 A 
ATOM     36  C   UNL     1       8.137  10.420  17.370  0.00  0.00    +0.000 A 
ENDBRANCH  30  31
ENDBRANCH   1  30
TORSDOF 7
ENDMDL
MODEL 4
REMARK VINA RESULT:      -8.5      5.266      7.308
REMARK  Name = 
REMARK  7 active torsions:
REMARK  status: ('A' for Active; 'I' for Inactive)
REMARK    1  A    between atoms: C_4  and  N_5
REMARK    2  A    between atoms: N_5  and  C_6
REMARK    3  A    between atoms: C_6  and  C_7
REMARK    4  A    between atoms: C_6  and  C_14
REMARK    5  A    between atoms: C_7  and  C_8
REMARK    6  A    between atoms: N_16  and  C_17
REMARK    7  A    between atoms: C_20  and  C_21
REMARK                            x       y       z     vdW  Elec       q    Type
REMARK                         _______ _______ _______ _____ _____    ______ ____
ROOT
ATOM      1  C   UNL     1       5.068   4.952  16.162  0.00  0.00    +0.000 C 
ENDROOT
BRANCH   1   2
ATOM      2  C   UNL     1       4.639   5.962  17.255  0.00  0.00    +0.000 C 
ATOM      3  O   UNL     1       5.464   6.479  18.006  0.00  0.00    +0.000 OA
ATOM      4  N   UNL     1       3.264   6.154  17.348  0.00  0.00    +0.000 N 
ATOM      5  H   UNL     1       2.661   5.492  16.872  0.00  0.00    +0.000 HD
BRANCH   4   6
ATOM      6  C   UNL     1       2.618   7.045  18.239  0.00  0.00    +0.000 A 
ATOM      7  C   UNL     1       2.168   8.310  17.856  0.00  0.00    +0.000 A 
ATOM      8  C   UNL     1       1.540   9.158  18.774  0.00  0.00    +0.000 A 
ATOM      9  C   UNL     1       1.348   8.757  20.101  0.00  0.00    +0.000 A 
ATOM     10  C   UNL     1       1.787   7.482  20.485  0.00  0.00    +0.000 A 
ATOM     11  C   UNL     1       2.406   6.630  19.560  0.00  0.00    +0.000 A 
BRANCH   9  12
ATOM     12  C   UNL     1       0.681   9.678  21.096  0.00  0.00    +0.000 C 
ATOM     13  F   UNL     1       1.449  10.747  21.452  0.00  0.00    +0.000 F 
ATOM     14  F   UNL     1      -0.482  10.201  20.618  0.00  0.00    +0.000 F 
ATOM     15  F   UNL     1       0.358   9.048  22.258  0.00  0.00    +0.000 F 
ENDBRANCH   9  12
ENDBRANCH   4   6
ENDBRANCH   1   2
BRANCH   1  16
ATOM     16  N   UNL     1       4.896   3.555  16.606  0.00  0.00    +0.000 N 
ATOM     17  H   UNL     1       5.670   2.935  16.332  0.00  0.00    +0.000 HD
BRANCH  16  21
ATOM     18  O   UNL     1       5.253   2.000  21.107  0.00  0.00    +0.000 OA
ATOM     19  C   UNL     1       4.530   2.419  20.211  0.00  0.00    +0.000 C 
ATOM     20  C   UNL     1       5.108   2.793  18.911  0.00  0.00    +0.000 C 
ATOM     21  C   UNL     1       4.383   3.164  17.848  0.00  0.00    +0.000 C 
ATOM     22  C   UNL     1       2.876   3.171  17.979  0.00  0.00    +0.000 C 
ATOM     23  O   UNL     1       2.164   3.375  16.999  0.00  0.00    +0.000 OA
ATOM     24  C   UNL     1       2.282   2.953  19.318  0.00  0.00    +0.000 A 
ATOM     25  C   UNL     1       0.905   3.127  19.513  0.00  0.00    +0.000 A 
ATOM     26  C   UNL     1       0.350   2.975  20.789  0.00  0.00    +0.000 A 
ATOM     27  C   UNL     1       1.163   2.635  21.870  0.00  0.00    +0.000 A 
ATOM     28  C   UNL     1       2.529   2.437  21.675  0.00  0.00    +0.000 A 
ATOM     29  C   UNL     1       3.086   2.601  20.399  0.00  0.00    +0.000 A 
ENDBRANCH  16  21
ENDBRANCH   1  16
BRANCH   1  30
ATOM     30  C   UNL     1       6.468   5.223  15.565  0.00  0.00    +0.000 C 
BRANCH  30  31
ATOM     31  C   UNL     1       6.861   4.908  14.136  0.00  0.00    +0.000 A 
ATOM     32  C   UNL     1       7.780   5.634  13.374  0.00  0.00    +0.000 A 
ATOM     33  C   UNL     1       8.009   5.316  12.030  0.00  0.00    +0.000 A 
ATOM     34  C   UNL     1       7.348   4.248  11.430  0.00  0.00    +0.000 A 
ATOM     35  C   UNL     1       6.467   3.480  12.181  0.00  0.00    +0.000 A 
ATOM     36  C   UNL     1       6.228   3.807  13.520  0.00  0.00    +0.000 A 
ENDBRANCH  30  31
ENDBRANCH   1  30
TORSDOF 7
ENDMDL
MODEL 5
REMARK VINA RESULT:      -8.4      0.707      2.065
REMARK  Name = 
REMARK  7 active torsions:
REMARK  status: ('A' for Active; 'I' for Inactive)
REMARK    1  A    between atoms: C_4  and  N_5
REMARK    2  A    between atoms: N_5  and  C_6
REMARK    3  A    between atoms: C_6  and  C_7
REMARK    4  A    between atoms: C_6  and  C_14
REMARK    5  A    between atoms: C_7  and  C_8
REMARK    6  A    between atoms: N_16  and  C_17
REMARK    7  A    between atoms: C_20  and  C_21
REMARK                            x       y       z     vdW  Elec       q    Type
REMARK                         _______ _______ _______ _____ _____    ______ ____
ROOT
ATOM      1  C   UNL     1       7.589   6.631  17.873  0.00  0.00    +0.000 C 
ENDROOT
BRANCH   1   2
ATOM      2  C   UNL     1       7.500   5.487  16.833  0.00  0.00    +0.000 C 
ATOM      3  O   UNL     1       8.028   4.395  17.038  0.00  0.00    +0.000 OA
ATOM      4  N   UNL     1       6.853   5.836  15.652  0.00  0.00    +0.000 N 
ATOM      5  H   UNL     1       6.690   6.821  15.477  0.00  0.00    +0.000 HD
BRANCH   4   6
ATOM      6  C   UNL     1       6.610   4.968  14.561  0.00  0.00    +0.000 A 
ATOM      7  C   UNL     1       7.469   4.865  13.466  0.00  0.00    +0.000 A 
ATOM      8  C   UNL     1       7.184   3.996  12.407  0.00  0.00    +0.000 A 
ATOM      9  C   UNL     1       6.027   3.209  12.422  0.00  0.00    +0.000 A 
ATOM     10  C   UNL     1       5.169   3.301  13.526  0.00  0.00    +0.000 A 
ATOM     11  C   UNL     1       5.463   4.164  14.591  0.00  0.00    +0.000 A 
BRANCH   9  12
ATOM     12  C   UNL     1       5.713   2.280  11.272  0.00  0.00    +0.000 C 
ATOM     13  F   UNL     1       4.592   2.628  10.578  0.00  0.00    +0.000 F 
ATOM     14  F   UNL     1       6.718   2.233  10.355  0.00  0.00    +0.000 F 
ATOM     15  F   UNL     1       5.515   0.995  11.677  0.00  0.00    +0.000 F 
ENDBRANCH   9  12
ENDBRANCH   4   6
ENDBRANCH   1   2
BRANCH   1  16
ATOM     16  N   UNL     1       6.611   6.459  18.965  0.00  0.00    +0.000 N 
ATOM     17  H   UNL     1       6.649   7.200  19.676  0.00  0.00    +0.000 HD
BRANCH  16  21
ATOM     18  O   UNL     1       1.998   7.011  17.858  0.00  0.00    +0.000 OA
ATOM     19  C   UNL     1       2.903   6.246  18.173  0.00  0.00    +0.000 C 
ATOM     20  C   UNL     1       4.269   6.759  18.362  0.00  0.00    +0.000 C 
ATOM     21  C   UNL     1       5.293   6.016  18.801  0.00  0.00    +0.000 C 
ATOM     22  C   UNL     1       5.027   4.569  19.154  0.00  0.00    +0.000 C 
ATOM     23  O   UNL     1       5.898   3.885  19.683  0.00  0.00    +0.000 OA
ATOM     24  C   UNL     1       3.703   3.993  18.821  0.00  0.00    +0.000 A 
ATOM     25  C   UNL     1       3.478   2.618  18.969  0.00  0.00    +0.000 A 
ATOM     26  C   UNL     1       2.246   2.064  18.604  0.00  0.00    +0.000 A 
ATOM     27  C   UNL     1       1.230   2.880  18.106  0.00  0.00    +0.000 A 
ATOM     28  C   UNL     1       1.442   4.253  17.981  0.00  0.00    +0.000 A 
ATOM     29  C   UNL     1       2.681   4.805  18.336  0.00  0.00    +0.000 A 
ENDBRANCH  16  21
ENDBRANCH   1  16
BRANCH   1  30
ATOM     30  C   UNL     1       7.556   8.049  17.258  0.00  0.00    +0.000 C 
BRANCH  30  31
ATOM     31  C   UNL     1       8.177   9.272  17.902  0.00  0.00    +0.000 A 
ATOM     32  C   UNL     1       8.095  10.574  17.403  0.00  0.00    +0.000 A 
ATOM     33  C   UNL     1       8.780  11.627  18.023  0.00  0.00    +0.000 A 
ATOM     34  C   UNL     1       9.534  11.402  19.172  0.00  0.00    +0.000 A 
ATOM     35  C   UNL     1       9.590  10.125  19.715  0.00  0.00    +0.000 A 
ATOM     36  C   UNL     1       8.917   9.073  19.087  0.00  0.00    +0.000 A 
ENDBRANCH  30  31
ENDBRANCH   1  30
TORSDOF 7
ENDMDL
MODEL 6
REMARK VINA RESULT:      -8.4      4.716      7.565
REMARK  Name = 
REMARK  7 active torsions:
REMARK  status: ('A' for Active; 'I' for Inactive)
REMARK    1  A    between atoms: C_4  and  N_5
REMARK    2  A    between atoms: N_5  and  C_6
REMARK    3  A    between atoms: C_6  and  C_7
REMARK    4  A    between atoms: C_6  and  C_14
REMARK    5  A    between atoms: C_7  and  C_8
REMARK    6  A    between atoms: N_16  and  C_17
REMARK    7  A    between atoms: C_20  and  C_21
REMARK                            x       y       z     vdW  Elec       q    Type
REMARK                         _______ _______ _______ _____ _____    ______ ____
ROOT
ATOM      1  C   UNL     1       6.371   6.753  16.723  0.00  0.00    +0.000 C 
ENDROOT
BRANCH   1   2
ATOM      2  C   UNL     1       7.415   7.509  17.580  0.00  0.00    +0.000 C 
ATOM      3  O   UNL     1       8.128   6.916  18.388  0.00  0.00    +0.000 OA
ATOM      4  N   UNL     1       7.407   8.890  17.406  0.00  0.00    +0.000 N 
ATOM      5  H   UNL     1       6.615   9.300  16.924  0.00  0.00    +0.000 HD
BRANCH   4   6
ATOM      6  C   UNL     1       8.281   9.803  18.043  0.00  0.00    +0.000 A 
ATOM      7  C   UNL     1       8.955   9.509  19.229  0.00  0.00    +0.000 A 
ATOM      8  C   UNL     1       9.804  10.447  19.825  0.00  0.00    +0.000 A 
ATOM      9  C   UNL     1       9.997  11.705  19.245  0.00  0.00    +0.000 A 
ATOM     10  C   UNL     1       9.331  12.000  18.047  0.00  0.00    +0.000 A 
ATOM     11  C   UNL     1       8.490  11.053  17.446  0.00  0.00    +0.000 A 
BRANCH   9  12
ATOM     12  C   UNL     1      10.905  12.723  19.896  0.00  0.00    +0.000 C 
ATOM     13  F   UNL     1      11.350  12.349  21.129  0.00  0.00    +0.000 F 
ATOM     14  F   UNL     1      12.022  12.968  19.157  0.00  0.00    +0.000 F 
ATOM     15  F   UNL     1      10.299  13.930  20.070  0.00  0.00    +0.000 F 
ENDBRANCH   9  12
ENDBRANCH   4   6
ENDBRANCH   1   2
BRANCH   1  16
ATOM     16  N   UNL     1       5.049   6.709  17.379  0.00  0.00    +0.000 N 
ATOM     17  H   UNL     1       4.295   7.131  16.821  0.00  0.00    +0.000 HD
BRANCH  16  21
ATOM     18  O   UNL     1       5.455   2.610  19.795  0.00  0.00    +0.000 OA
ATOM     19  C   UNL     1       4.733   3.532  19.435  0.00  0.00    +0.000 C 
ATOM     20  C   UNL     1       5.288   4.636  18.635  0.00  0.00    +0.000 C 
ATOM     21  C   UNL     1       4.554   5.628  18.118  0.00  0.00    +0.000 C 
ATOM     22  C   UNL     1       3.058   5.602  18.341  0.00  0.00    +0.000 C 
ATOM     23  O   UNL     1       2.328   6.414  17.779  0.00  0.00    +0.000 OA
ATOM     24  C   UNL     1       2.501   4.594  19.273  0.00  0.00    +0.000 A 
ATOM     25  C   UNL     1       1.150   4.650  19.641  0.00  0.00    +0.000 A 
ATOM     26  C   UNL     1       0.634   3.731  20.563  0.00  0.00    +0.000 A 
ATOM     27  C   UNL     1       1.459   2.747  21.108  0.00  0.00    +0.000 A 
ATOM     28  C   UNL     1       2.797   2.673  20.724  0.00  0.00    +0.000 A 
ATOM     29  C   UNL     1       3.315   3.601  19.810  0.00  0.00    +0.000 A 
ENDBRANCH  16  21
ENDBRANCH   1  16
BRANCH   1  30
ATOM     30  C   UNL     1       6.841   5.365  16.231  0.00  0.00    +0.000 C 
BRANCH  30  31
ATOM     31  C   UNL     1       6.667   4.858  14.814  0.00  0.00    +0.000 A 
ATOM     32  C   UNL     1       5.653   4.000  14.383  0.00  0.00    +0.000 A 
ATOM     33  C   UNL     1       5.631   3.515  13.069  0.00  0.00    +0.000 A 
ATOM     34  C   UNL     1       6.604   3.904  12.153  0.00  0.00    +0.000 A 
ATOM     35  C   UNL     1       7.594   4.797  12.544  0.00  0.00    +0.000 A 
ATOM     36  C   UNL     1       7.623   5.269  13.860  0.00  0.00    +0.000 A 
ENDBRANCH  30  31
ENDBRANCH   1  30
TORSDOF 7
ENDMDL
MODEL 7
REMARK VINA RESULT:      -8.4      6.942      9.980
REMARK  Name = 
REMARK  7 active torsions:
REMARK  status: ('A' for Active; 'I' for Inactive)
REMARK    1  A    between atoms: C_4  and  N_5
REMARK    2  A    between atoms: N_5  and  C_6
REMARK    3  A    between atoms: C_6  and  C_7
REMARK    4  A    between atoms: C_6  and  C_14
REMARK    5  A    between atoms: C_7  and  C_8
REMARK    6  A    between atoms: N_16  and  C_17
REMARK    7  A    between atoms: C_20  and  C_21
REMARK                            x       y       z     vdW  Elec       q    Type
REMARK                         _______ _______ _______ _____ _____    ______ ____
ROOT
ATOM      1  C   UNL     1       0.371  10.617  19.116  0.00  0.00    +0.000 C 
ENDROOT
BRANCH   1   2
ATOM      2  C   UNL     1       1.192   9.312  19.263  0.00  0.00    +0.000 C 
ATOM      3  O   UNL     1       1.420   8.822  20.368  0.00  0.00    +0.000 OA
ATOM      4  N   UNL     1       1.693   8.813  18.065  0.00  0.00    +0.000 N 
ATOM      5  H   UNL     1       1.675   9.423  17.255  0.00  0.00    +0.000 HD
BRANCH   4   6
ATOM      6  C   UNL     1       2.443   7.621  17.921  0.00  0.00    +0.000 A 
ATOM      7  C   UNL     1       1.930   6.359  18.225  0.00  0.00    +0.000 A 
ATOM      8  C   UNL     1       2.712   5.209  18.072  0.00  0.00    +0.000 A 
ATOM      9  C   UNL     1       4.030   5.299  17.611  0.00  0.00    +0.000 A 
ATOM     10  C   UNL     1       4.544   6.563  17.294  0.00  0.00    +0.000 A 
ATOM     11  C   UNL     1       3.754   7.712  17.437  0.00  0.00    +0.000 A 
BRANCH   9  12
ATOM     12  C   UNL     1       4.879   4.058  17.459  0.00  0.00    +0.000 C 
ATOM     13  F   UNL     1       4.187   2.897  17.637  0.00  0.00    +0.000 F 
ATOM     14  F   UNL     1       5.445   3.966  16.224  0.00  0.00    +0.000 F 
ATOM     15  F   UNL     1       5.910   4.016  18.347  0.00  0.00    +0.000 F 
ENDBRANCH   9  12
ENDBRANCH   4   6
ENDBRANCH   1   2
BRANCH   1  16
ATOM     16  N   UNL     1       0.870  11.683  20.008  0.00  0.00    +0.000 N 
ATOM     17  H   UNL     1       1.460  11.338  20.776  0.00  0.00    +0.000 HD
BRANCH  16  21
ATOM     18  O   UNL     1       4.186  14.823  18.614  0.00  0.00    +0.000 OA
ATOM     19  C   UNL     1       2.998  14.585  18.796  0.00  0.00    +0.000 C 
ATOM     20  C   UNL     1       2.576  13.256  19.267  0.00  0.00    +0.000 C 
ATOM     21  C   UNL     1       1.314  12.941  19.586  0.00  0.00    +0.000 C 
ATOM     22  C   UNL     1       0.261  14.022  19.488  0.00  0.00    +0.000 C 
ATOM     23  O   UNL     1      -0.880  13.821  19.893  0.00  0.00    +0.000 OA
ATOM     24  C   UNL     1       0.632  15.315  18.867  0.00  0.00    +0.000 A 
ATOM     25  C   UNL     1      -0.354  16.273  18.598  0.00  0.00    +0.000 A 
ATOM     26  C   UNL     1      -0.014  17.473  17.962  0.00  0.00    +0.000 A 
ATOM     27  C   UNL     1       1.311  17.727  17.607  0.00  0.00    +0.000 A 
ATOM     28  C   UNL     1       2.299  16.786  17.897  0.00  0.00    +0.000 A 
ATOM     29  C   UNL     1       1.955  15.580  18.522  0.00  0.00    +0.000 A 
ENDBRANCH  16  21
ENDBRANCH   1  16
BRANCH   1  30
ATOM     30  C   UNL     1      -1.158  10.418  19.218  0.00  0.00    +0.000 C 
BRANCH  30  31
ATOM     31  C   UNL     1      -2.123  10.620  18.067  0.00  0.00    +0.000 A 
ATOM     32  C   UNL     1      -3.239  11.460  18.089  0.00  0.00    +0.000 A 
ATOM     33  C   UNL     1      -4.123  11.510  17.004  0.00  0.00    +0.000 A 
ATOM     34  C   UNL     1      -3.891  10.744  15.864  0.00  0.00    +0.000 A 
ATOM     35  C   UNL     1      -2.761   9.940  15.799  0.00  0.00    +0.000 A 
ATOM     36  C   UNL     1      -1.886   9.880  16.888  0.00  0.00    +0.000 A 
ENDBRANCH  30  31
ENDBRANCH   1  30
TORSDOF 7
ENDMDL
MODEL 8
REMARK VINA RESULT:      -8.4      6.940      9.985
REMARK  Name = 
REMARK  7 active torsions:
REMARK  status: ('A' for Active; 'I' for Inactive)
REMARK    1  A    between atoms: C_4  and  N_5
REMARK    2  A    between atoms: N_5  and  C_6
REMARK    3  A    between atoms: C_6  and  C_7
REMARK    4  A    between atoms: C_6  and  C_14
REMARK    5  A    between atoms: C_7  and  C_8
REMARK    6  A    between atoms: N_16  and  C_17
REMARK    7  A    between atoms: C_20  and  C_21
REMARK                            x       y       z     vdW  Elec       q    Type
REMARK                         _______ _______ _______ _____ _____    ______ ____
ROOT
ATOM      1  C   UNL     1       0.406  10.657  19.085  0.00  0.00    +0.000 C 
ENDROOT
BRANCH   1   2
ATOM      2  C   UNL     1       1.195   9.335  19.256  0.00  0.00    +0.000 C 
ATOM      3  O   UNL     1       1.375   8.838  20.366  0.00  0.00    +0.000 OA
ATOM      4  N   UNL     1       1.728   8.831  18.074  0.00  0.00    +0.000 N 
ATOM      5  H   UNL     1       1.750   9.443  17.267  0.00  0.00    +0.000 HD
BRANCH   4   6
ATOM      6  C   UNL     1       2.459   7.624  17.951  0.00  0.00    +0.000 A 
ATOM      7  C   UNL     1       1.919   6.374  18.257  0.00  0.00    +0.000 A 
ATOM      8  C   UNL     1       2.683   5.210  18.126  0.00  0.00    +0.000 A 
ATOM      9  C   UNL     1       4.010   5.273  17.685  0.00  0.00    +0.000 A 
ATOM     10  C   UNL     1       4.551   6.525  17.365  0.00  0.00    +0.000 A 
ATOM     11  C   UNL     1       3.779   7.689  17.487  0.00  0.00    +0.000 A 
BRANCH   9  12
ATOM     12  C   UNL     1       4.839   4.015  17.556  0.00  0.00    +0.000 C 
ATOM     13  F   UNL     1       5.297   3.790  16.292  0.00  0.00    +0.000 F 
ATOM     14  F   UNL     1       5.943   4.040  18.352  0.00  0.00    +0.000 F 
ATOM     15  F   UNL     1       4.149   2.895  17.907  0.00  0.00    +0.000 F 
ENDBRANCH   9  12
ENDBRANCH   4   6
ENDBRANCH   1   2
BRANCH   1  16
ATOM     16  N   UNL     1       0.931  11.726  19.958  0.00  0.00    +0.000 N 
ATOM     17  H   UNL     1       1.541  11.384  20.711  0.00  0.00    +0.000 HD
BRANCH  16  21
ATOM     18  O   UNL     1       4.203  14.839  18.407  0.00  0.00    +0.000 OA
ATOM     19  C   UNL     1       3.023  14.612  18.648  0.00  0.00    +0.000 C 
ATOM     20  C   UNL     1       2.613  13.286  19.136  0.00  0.00    +0.000 C 
ATOM     21  C   UNL     1       1.366  12.982  19.517  0.00  0.00    +0.000 C 
ATOM     22  C   UNL     1       0.319  14.073  19.474  0.00  0.00    +0.000 C 
ATOM     23  O   UNL     1      -0.802  13.882  19.935  0.00  0.00    +0.000 OA
ATOM     24  C   UNL     1       0.671  15.364  18.839  0.00  0.00    +0.000 A 
ATOM     25  C   UNL     1      -0.318  16.332  18.621  0.00  0.00    +0.000 A 
ATOM     26  C   UNL     1       0.001  17.530  17.972  0.00  0.00    +0.000 A 
ATOM     27  C   UNL     1       1.309  17.773  17.552  0.00  0.00    +0.000 A 
ATOM     28  C   UNL     1       2.301  16.822  17.790  0.00  0.00    +0.000 A 
ATOM     29  C   UNL     1       1.978  15.618  18.429  0.00  0.00    +0.000 A 
ENDBRANCH  16  21
ENDBRANCH   1  16
BRANCH   1  30
ATOM     30  C   UNL     1      -1.128  10.497  19.191  0.00  0.00    +0.000 C 
BRANCH  30  31
ATOM     31  C   UNL     1      -2.072  10.520  18.006  0.00  0.00    +0.000 A 
ATOM     32  C   UNL     1      -1.886   9.817  16.814  0.00  0.00    +0.000 A 
ATOM     33  C   UNL     1      -2.771   9.976  15.740  0.00  0.00    +0.000 A 
ATOM     34  C   UNL     1      -3.877  10.815  15.850  0.00  0.00    +0.000 A 
ATOM     35  C   UNL     1      -4.110  11.486  17.044  0.00  0.00    +0.000 A 
ATOM     36  C   UNL     1      -3.218  11.338  18.110  0.00  0.00    +0.000 A 
ENDBRANCH  30  31
ENDBRANCH   1  30
TORSDOF 7
ENDMDL
MODEL 9
REMARK VINA RESULT:      -8.3      6.953      9.971
REMARK  Name = 
REMARK  7 active torsions:
REMARK  status: ('A' for Active; 'I' for Inactive)
REMARK    1  A    between atoms: C_4  and  N_5
REMARK    2  A    between atoms: N_5  and  C_6
REMARK    3  A    between atoms: C_6  and  C_7
REMARK    4  A    between atoms: C_6  and  C_14
REMARK    5  A    between atoms: C_7  and  C_8
REMARK    6  A    between atoms: N_16  and  C_17
REMARK    7  A    between atoms: C_20  and  C_21
REMARK                            x       y       z     vdW  Elec       q    Type
REMARK                         _______ _______ _______ _____ _____    ______ ____
ROOT
ATOM      1  C   UNL     1       0.354  10.662  19.072  0.00  0.00    +0.000 C 
ENDROOT
BRANCH   1   2
ATOM      2  C   UNL     1       1.190   9.367  19.220  0.00  0.00    +0.000 C 
ATOM      3  O   UNL     1       1.414   8.874  20.324  0.00  0.00    +0.000 OA
ATOM      4  N   UNL     1       1.711   8.883  18.024  0.00  0.00    +0.000 N 
ATOM      5  H   UNL     1       1.694   9.497  17.218  0.00  0.00    +0.000 HD
BRANCH   4   6
ATOM      6  C   UNL     1       2.479   7.702  17.881  0.00  0.00    +0.000 A 
ATOM      7  C   UNL     1       3.814   7.708  17.472  0.00  0.00    +0.000 A 
ATOM      8  C   UNL     1       4.530   6.514  17.340  0.00  0.00    +0.000 A 
ATOM      9  C   UNL     1       3.924   5.284  17.614  0.00  0.00    +0.000 A 
ATOM     10  C   UNL     1       2.588   5.275  18.037  0.00  0.00    +0.000 A 
ATOM     11  C   UNL     1       1.875   6.474  18.180  0.00  0.00    +0.000 A 
BRANCH   9  12
ATOM     12  C   UNL     1       4.695   3.993  17.459  0.00  0.00    +0.000 C 
ATOM     13  F   UNL     1       3.946   2.877  17.688  0.00  0.00    +0.000 F 
ATOM     14  F   UNL     1       5.208   3.844  16.206  0.00  0.00    +0.000 F 
ATOM     15  F   UNL     1       5.754   3.910  18.310  0.00  0.00    +0.000 F 
ENDBRANCH   9  12
ENDBRANCH   4   6
ENDBRANCH   1   2
BRANCH   1  16
ATOM     16  N   UNL     1       0.834  11.731  19.969  0.00  0.00    +0.000 N 
ATOM     17  H   UNL     1       1.405  11.389  20.753  0.00  0.00    +0.000 HD
BRANCH  16  21
ATOM     18  O   UNL     1       4.183  14.846  18.597  0.00  0.00    +0.000 OA
ATOM     19  C   UNL     1       2.992  14.617  18.771  0.00  0.00    +0.000 C 
ATOM     20  C   UNL     1       2.556  13.292  19.239  0.00  0.00    +0.000 C 
ATOM     21  C   UNL     1       1.291  12.986  19.551  0.00  0.00    +0.000 C 
ATOM     22  C   UNL     1       0.247  14.076  19.446  0.00  0.00    +0.000 C 
ATOM     23  O   UNL     1      -0.899  13.884  19.845  0.00  0.00    +0.000 OA
ATOM     24  C   UNL     1       0.631  15.366  18.829  0.00  0.00    +0.000 A 
ATOM     25  C   UNL     1      -0.346  16.332  18.554  0.00  0.00    +0.000 A 
ATOM     26  C   UNL     1       0.008  17.529  17.921  0.00  0.00    +0.000 A 
ATOM     27  C   UNL     1       1.336  17.773  17.575  0.00  0.00    +0.000 A 
ATOM     28  C   UNL     1       2.315  16.825  17.869  0.00  0.00    +0.000 A 
ATOM     29  C   UNL     1       1.958  15.621  18.492  0.00  0.00    +0.000 A 
ENDBRANCH  16  21
ENDBRANCH   1  16
BRANCH   1  30
ATOM     30  C   UNL     1      -1.173  10.443  19.166  0.00  0.00    +0.000 C 
BRANCH  30  31
ATOM     31  C   UNL     1      -2.117  10.491  17.980  0.00  0.00    +0.000 A 
ATOM     32  C   UNL     1      -1.942   9.794  16.783  0.00  0.00    +0.000 A 
ATOM     33  C   UNL     1      -2.824   9.975  15.710  0.00  0.00    +0.000 A 
ATOM     34  C   UNL     1      -3.915  10.832  15.826  0.00  0.00    +0.000 A 
ATOM     35  C   UNL     1      -4.138  11.497  17.025  0.00  0.00    +0.000 A 
ATOM     36  C   UNL     1      -3.249  11.326  18.090  0.00  0.00    +0.000 A 
ENDBRANCH  30  31
ENDBRANCH   1  30
TORSDOF 7
ENDMDL
