MODEL 1
REMARK VINA RESULT:      -7.1      0.000      0.000
REMARK  Name = 
REMARK  16 active torsions:
REMARK  status: ('A' for Active; 'I' for Inactive)
REMARK    1  A    between atoms: C_1  and  C_2
REMARK    2  A    between atoms: C_2  and  C_3
REMARK    3  A    between atoms: C_2  and  C_4
REMARK    4  A    between atoms: C_4  and  O_5
REMARK    5  A    between atoms: O_5  and  C_6
REMARK    6  A    between atoms: N_8  and  C_9
REMARK    7  A    between atoms: C_9  and  C_10
REMARK    8  A    between atoms: C_9  and  C_22
REMARK    9  A    between atoms: N_12  and  C_13
REMARK   10  A    between atoms: C_13  and  C_14
REMARK   11  A    between atoms: C_13  and  C_18
REMARK   12  A    between atoms: C_14  and  C_15
REMARK   13  A    between atoms: C_15  and  O_17
REMARK   14  A    between atoms: C_18  and  C_20
REMARK   15  A    between atoms: C_22  and  C_23
REMARK   16  A    between atoms: C_22  and  C_24
REMARK                            x       y       z     vdW  Elec       q    Type
REMARK                         _______ _______ _______ _____ _____    ______ ____
ROOT
ATOM      1  C   UNL     1       5.566   4.373  18.308  0.00  0.00    +0.000 C 
ATOM      2  O   UNL     1       5.737   4.343  19.528  0.00  0.00    +0.000 OA
ATOM      3  N   UNL     1       4.326   4.181  17.737  0.00  0.00    +0.000 N 
ATOM      4  H   UNL     1       4.300   3.816  16.785  0.00  0.00    +0.000 HD
ENDROOT
BRANCH   1   5
ATOM      5  C   UNL     1       6.704   4.735  17.324  0.00  0.00    +0.000 C 
BRANCH   5   8
ATOM      6  C   UNL     1       6.854   4.391  14.876  0.00  0.00    +0.000 C 
ATOM      7  O   UNL     1       7.778   5.167  14.688  0.00  0.00    +0.000 OA
ATOM      8  N   UNL     1       6.370   4.031  16.089  0.00  0.00    +0.000 N 
ATOM      9  H   UNL     1       5.524   3.470  16.085  0.00  0.00    +0.000 HD
BRANCH   6  10
ATOM     10  O   UNL     1       6.077   3.831  13.916  0.00  0.00    +0.000 OA
BRANCH  10  11
ATOM     11  C   UNL     1       6.613   3.863  12.585  0.00  0.00    +0.000 C 
BRANCH  11  13
ATOM     12  C   UNL     1       6.044   1.657  11.566  0.00  0.00    +0.000 C 
ATOM     13  C   UNL     1       5.699   3.146  11.589  0.00  0.00    +0.000 C 
ATOM     14  C   UNL     1       4.220   3.344  11.919  0.00  0.00    +0.000 C 
ENDBRANCH  11  13
ENDBRANCH  10  11
ENDBRANCH   6  10
ENDBRANCH   5   8
BRANCH   5  15
ATOM     15  C   UNL     1       6.920   6.249  17.075  0.00  0.00    +0.000 C 
ATOM     16  C   UNL     1       5.621   7.047  16.932  0.00  0.00    +0.000 C 
ATOM     17  C   UNL     1       7.829   6.900  18.114  0.00  0.00    +0.000 C 
ENDBRANCH   5  15
ENDBRANCH   1   5
BRANCH   3  18
ATOM     18  C   UNL     1       3.137   3.915  18.557  0.00  0.00    +0.000 C 
BRANCH  18  19
ATOM     19  C   UNL     1       2.592   2.505  18.270  0.00  0.00    +0.000 C 
ATOM     20  O   UNL     1       3.300   1.605  17.807  0.00  0.00    +0.000 OA
BRANCH  19  21
ATOM     21  C   UNL     1       1.140   2.242  18.593  0.00  0.00    +0.000 C 
ATOM     22  F   UNL     1       0.834   2.486  19.899  0.00  0.00    +0.000 F 
ENDBRANCH  19  21
ENDBRANCH  18  19
BRANCH  18  23
ATOM     23  C   UNL     1       2.088   5.018  18.376  0.00  0.00    +0.000 C 
BRANCH  23  24
ATOM     24  C   UNL     1       2.531   6.333  18.955  0.00  0.00    +0.000 C 
ATOM     25  O   UNL     1       2.266   7.421  18.473  0.00  0.00    +0.000 OA
BRANCH  24  26
ATOM     26  O   UNL     1       3.301   6.207  20.063  0.00  0.00    +0.000 OA
ATOM     27  H   UNL     1       3.725   5.333  20.175  0.00  0.00    +0.000 HD
ENDBRANCH  24  26
ENDBRANCH  23  24
ENDBRANCH  18  23
ENDBRANCH   3  18
TORSDOF 12
ENDMDL
MODEL 2
REMARK VINA RESULT:      -7.1      3.070      7.040
REMARK  Name = 
REMARK  16 active torsions:
REMARK  status: ('A' for Active; 'I' for Inactive)
REMARK    1  A    between atoms: C_1  and  C_2
REMARK    2  A    between atoms: C_2  and  C_3
REMARK    3  A    between atoms: C_2  and  C_4
REMARK    4  A    between atoms: C_4  and  O_5
REMARK    5  A    between atoms: O_5  and  C_6
REMARK    6  A    between atoms: N_8  and  C_9
REMARK    7  A    between atoms: C_9  and  C_10
REMARK    8  A    between atoms: C_9  and  C_22
REMARK    9  A    between atoms: N_12  and  C_13
REMARK   10  A    between atoms: C_13  and  C_14
REMARK   11  A    between atoms: C_13  and  C_18
REMARK   12  A    between atoms: C_14  and  C_15
REMARK   13  A    between atoms: C_15  and  O_17
REMARK   14  A    between atoms: C_18  and  C_20
REMARK   15  A    between atoms: C_22  and  C_23
REMARK   16  A    between atoms: C_22  and  C_24
REMARK                            x       y       z     vdW  Elec       q    Type
REMARK                         _______ _______ _______ _____ _____    ______ ____
ROOT
ATOM      1  C   UNL     1       4.727   3.969  19.219  0.00  0.00    +0.000 C 
ATOM      2  O   UNL     1       5.289   2.997  19.727  0.00  0.00    +0.000 OA
ATOM      3  N   UNL     1       5.375   4.817  18.347  0.00  0.00    +0.000 N 
ATOM      4  H   UNL     1       5.034   5.777  18.286  0.00  0.00    +0.000 HD
ENDROOT
BRANCH   1   5
ATOM      5  C   UNL     1       3.221   4.255  19.432  0.00  0.00    +0.000 C 
BRANCH   5   8
ATOM      6  C   UNL     1       2.245   6.458  20.005  0.00  0.00    +0.000 C 
ATOM      7  O   UNL     1       1.686   6.094  21.028  0.00  0.00    +0.000 OA
ATOM      8  N   UNL     1       3.086   5.699  19.262  0.00  0.00    +0.000 N 
ATOM      9  H   UNL     1       3.381   6.095  18.376  0.00  0.00    +0.000 HD
BRANCH   6  10
ATOM     10  O   UNL     1       2.049   7.639  19.368  0.00  0.00    +0.000 OA
BRANCH  10  11
ATOM     11  C   UNL     1       1.308   8.625  20.100  0.00  0.00    +0.000 C 
BRANCH  11  13
ATOM     12  C   UNL     1       1.654   9.691  17.869  0.00  0.00    +0.000 C 
ATOM     13  C   UNL     1       1.055   9.881  19.263  0.00  0.00    +0.000 C 
ATOM     14  C   UNL     1      -0.433  10.214  19.162  0.00  0.00    +0.000 C 
ENDBRANCH  11  13
ENDBRANCH  10  11
ENDBRANCH   6  10
ENDBRANCH   5   8
BRANCH   5  15
ATOM     15  C   UNL     1       2.252   3.482  18.502  0.00  0.00    +0.000 C 
ATOM     16  C   UNL     1       1.231   2.618  19.249  0.00  0.00    +0.000 C 
ATOM     17  C   UNL     1       1.544   4.385  17.496  0.00  0.00    +0.000 C 
ENDBRANCH   5  15
ENDBRANCH   1   5
BRANCH   3  18
ATOM     18  C   UNL     1       6.783   4.614  17.985  0.00  0.00    +0.000 C 
BRANCH  18  19
ATOM     19  C   UNL     1       7.681   5.605  18.747  0.00  0.00    +0.000 C 
ATOM     20  O   UNL     1       8.283   5.293  19.779  0.00  0.00    +0.000 OA
BRANCH  19  21
ATOM     21  C   UNL     1       7.822   6.996  18.175  0.00  0.00    +0.000 C 
ATOM     22  F   UNL     1       8.726   7.760  18.851  0.00  0.00    +0.000 F 
ENDBRANCH  19  21
ENDBRANCH  18  19
BRANCH  18  23
ATOM     23  C   UNL     1       6.973   4.671  16.465  0.00  0.00    +0.000 C 
BRANCH  23  24
ATOM     24  C   UNL     1       5.709   5.043  15.742  0.00  0.00    +0.000 C 
ATOM     25  O   UNL     1       4.875   4.241  15.357  0.00  0.00    +0.000 OA
BRANCH  24  26
ATOM     26  O   UNL     1       5.585   6.372  15.513  0.00  0.00    +0.000 OA
ATOM     27  H   UNL     1       5.971   6.685  14.671  0.00  0.00    +0.000 HD
ENDBRANCH  24  26
ENDBRANCH  23  24
ENDBRANCH  18  23
ENDBRANCH   3  18
TORSDOF 12
ENDMDL
MODEL 3
REMARK VINA RESULT:      -7.0      2.779      7.127
REMARK  Name = 
REMARK  16 active torsions:
REMARK  status: ('A' for Active; 'I' for Inactive)
REMARK    1  A    between atoms: C_1  and  C_2
REMARK    2  A    between atoms: C_2  and  C_3
REMARK    3  A    between atoms: C_2  and  C_4
REMARK    4  A    between atoms: C_4  and  O_5
REMARK    5  A    between atoms: O_5  and  C_6
REMARK    6  A    between atoms: N_8  and  C_9
REMARK    7  A    between atoms: C_9  and  C_10
REMARK    8  A    between atoms: C_9  and  C_22
REMARK    9  A    between atoms: N_12  and  C_13
REMARK   10  A    between atoms: C_13  and  C_14
REMARK   11  A    between atoms: C_13  and  C_18
REMARK   12  A    between atoms: C_14  and  C_15
REMARK   13  A    between atoms: C_15  and  O_17
REMARK   14  A    between atoms: C_18  and  C_20
REMARK   15  A    between atoms: C_22  and  C_23
REMARK   16  A    between atoms: C_22  and  C_24
REMARK                            x       y       z     vdW  Elec       q    Type
REMARK                         _______ _______ _______ _____ _____    ______ ____
ROOT
ATOM      1  C   UNL     1       4.434   4.147  18.887  0.00  0.00    +0.000 C 
ATOM      2  O   UNL     1       5.052   3.117  19.164  0.00  0.00    +0.000 OA
ATOM      3  N   UNL     1       4.769   4.934  17.806  0.00  0.00    +0.000 N 
ATOM      4  H   UNL     1       4.526   5.924  17.854  0.00  0.00    +0.000 HD
ENDROOT
BRANCH   1   5
ATOM      5  C   UNL     1       3.166   4.582  19.661  0.00  0.00    +0.000 C 
BRANCH   5   8
ATOM      6  C   UNL     1       2.152   6.805  20.065  0.00  0.00    +0.000 C 
ATOM      7  O   UNL     1       1.426   6.456  20.983  0.00  0.00    +0.000 OA
ATOM      8  N   UNL     1       3.089   6.028  19.471  0.00  0.00    +0.000 N 
ATOM      9  H   UNL     1       3.533   6.415  18.645  0.00  0.00    +0.000 HD
BRANCH   6  10
ATOM     10  O   UNL     1       2.086   7.987  19.404  0.00  0.00    +0.000 OA
BRANCH  10  11
ATOM     11  C   UNL     1       1.137   8.933  19.915  0.00  0.00    +0.000 C 
BRANCH  11  13
ATOM     12  C   UNL     1       2.040  10.065  17.881  0.00  0.00    +0.000 C 
ATOM     13  C   UNL     1       0.996  10.148  18.994  0.00  0.00    +0.000 C 
ATOM     14  C   UNL     1      -0.408  10.260  18.400  0.00  0.00    +0.000 C 
ENDBRANCH  11  13
ENDBRANCH  10  11
ENDBRANCH   6  10
ENDBRANCH   5   8
BRANCH   5  15
ATOM     15  C   UNL     1       1.849   3.883  19.241  0.00  0.00    +0.000 C 
ATOM     16  C   UNL     1       1.957   3.086  17.937  0.00  0.00    +0.000 C 
ATOM     17  C   UNL     1       1.259   3.010  20.346  0.00  0.00    +0.000 C 
ENDBRANCH   5  15
ENDBRANCH   1   5
BRANCH   3  18
ATOM     18  C   UNL     1       5.897   4.593  16.930  0.00  0.00    +0.000 C 
BRANCH  18  19
ATOM     19  C   UNL     1       7.230   4.949  17.611  0.00  0.00    +0.000 C 
ATOM     20  O   UNL     1       8.164   4.145  17.697  0.00  0.00    +0.000 OA
BRANCH  19  21
ATOM     21  C   UNL     1       7.376   6.347  18.166  0.00  0.00    +0.000 C 
ATOM     22  F   UNL     1       7.664   7.272  17.207  0.00  0.00    +0.000 F 
ENDBRANCH  19  21
ENDBRANCH  18  19
BRANCH  18  23
ATOM     23  C   UNL     1       5.732   5.235  15.548  0.00  0.00    +0.000 C 
BRANCH  23  24
ATOM     24  C   UNL     1       6.749   4.738  14.559  0.00  0.00    +0.000 C 
ATOM     25  O   UNL     1       7.713   5.382  14.182  0.00  0.00    +0.000 OA
BRANCH  24  26
ATOM     26  O   UNL     1       6.481   3.500  14.079  0.00  0.00    +0.000 OA
ATOM     27  H   UNL     1       6.175   3.473  13.151  0.00  0.00    +0.000 HD
ENDBRANCH  24  26
ENDBRANCH  23  24
ENDBRANCH  18  23
ENDBRANCH   3  18
TORSDOF 12
ENDMDL
MODEL 4
REMARK VINA RESULT:      -6.8      1.866      3.199
REMARK  Name = 
REMARK  16 active torsions:
REMARK  status: ('A' for Active; 'I' for Inactive)
REMARK    1  A    between atoms: C_1  and  C_2
REMARK    2  A    between atoms: C_2  and  C_3
REMARK    3  A    between atoms: C_2  and  C_4
REMARK    4  A    between atoms: C_4  and  O_5
REMARK    5  A    between atoms: O_5  and  C_6
REMARK    6  A    between atoms: N_8  and  C_9
REMARK    7  A    between atoms: C_9  and  C_10
REMARK    8  A    between atoms: C_9  and  C_22
REMARK    9  A    between atoms: N_12  and  C_13
REMARK   10  A    between atoms: C_13  and  C_14
REMARK   11  A    between atoms: C_13  and  C_18
REMARK   12  A    between atoms: C_14  and  C_15
REMARK   13  A    between atoms: C_15  and  O_17
REMARK   14  A    between atoms: C_18  and  C_20
REMARK   15  A    between atoms: C_22  and  C_23
REMARK   16  A    between atoms: C_22  and  C_24
REMARK                            x       y       z     vdW  Elec       q    Type
REMARK                         _______ _______ _______ _____ _____    ______ ____
ROOT
ATOM      1  C   UNL     1       4.522   5.762  18.165  0.00  0.00    +0.000 C 
ATOM      2  O   UNL     1       4.112   6.818  17.681  0.00  0.00    +0.000 OA
ATOM      3  N   UNL     1       3.678   4.857  18.772  0.00  0.00    +0.000 N 
ATOM      4  H   UNL     1       4.079   4.245  19.483  0.00  0.00    +0.000 HD
ENDROOT
BRANCH   1   5
ATOM      5  C   UNL     1       5.998   5.313  18.035  0.00  0.00    +0.000 C 
BRANCH   5   8
ATOM      6  C   UNL     1       5.624   3.885  16.046  0.00  0.00    +0.000 C 
ATOM      7  O   UNL     1       4.765   3.178  16.548  0.00  0.00    +0.000 OA
ATOM      8  N   UNL     1       6.167   4.985  16.622  0.00  0.00    +0.000 N 
ATOM      9  H   UNL     1       6.953   5.403  16.136  0.00  0.00    +0.000 HD
BRANCH   6  10
ATOM     10  O   UNL     1       6.267   3.647  14.876  0.00  0.00    +0.000 OA
BRANCH  10  11
ATOM     11  C   UNL     1       5.639   4.179  13.702  0.00  0.00    +0.000 C 
BRANCH  11  13
ATOM     12  C   UNL     1       4.669   3.218  11.612  0.00  0.00    +0.000 C 
ATOM     13  C   UNL     1       5.933   3.326  12.465  0.00  0.00    +0.000 C 
ATOM     14  C   UNL     1       7.087   3.892  11.638  0.00  0.00    +0.000 C 
ENDBRANCH  11  13
ENDBRANCH  10  11
ENDBRANCH   6  10
ENDBRANCH   5   8
BRANCH   5  15
ATOM     15  C   UNL     1       7.057   6.339  18.510  0.00  0.00    +0.000 C 
ATOM     16  C   UNL     1       8.214   5.718  19.297  0.00  0.00    +0.000 C 
ATOM     17  C   UNL     1       7.596   7.207  17.376  0.00  0.00    +0.000 C 
ENDBRANCH   5  15
ENDBRANCH   1   5
BRANCH   3  18
ATOM     18  C   UNL     1       2.236   5.113  18.888  0.00  0.00    +0.000 C 
BRANCH  18  19
ATOM     19  C   UNL     1       1.913   5.750  20.250  0.00  0.00    +0.000 C 
ATOM     20  O   UNL     1       1.742   5.076  21.271  0.00  0.00    +0.000 OA
BRANCH  19  21
ATOM     21  C   UNL     1       1.825   7.257  20.311  0.00  0.00    +0.000 C 
ATOM     22  F   UNL     1       1.281   7.712  21.475  0.00  0.00    +0.000 F 
ENDBRANCH  19  21
ENDBRANCH  18  19
BRANCH  18  23
ATOM     23  C   UNL     1       1.429   3.841  18.608  0.00  0.00    +0.000 C 
BRANCH  23  24
ATOM     24  C   UNL     1       2.236   2.590  18.822  0.00  0.00    +0.000 C 
ATOM     25  O   UNL     1       2.681   2.236  19.900  0.00  0.00    +0.000 OA
BRANCH  24  26
ATOM     26  O   UNL     1       2.467   1.891  17.685  0.00  0.00    +0.000 OA
ATOM     27  H   UNL     1       1.700   1.391  17.344  0.00  0.00    +0.000 HD
ENDBRANCH  24  26
ENDBRANCH  23  24
ENDBRANCH  18  23
ENDBRANCH   3  18
TORSDOF 12
ENDMDL
MODEL 5
REMARK VINA RESULT:      -6.8      1.690      2.077
REMARK  Name = 
REMARK  16 active torsions:
REMARK  status: ('A' for Active; 'I' for Inactive)
REMARK    1  A    between atoms: C_1  and  C_2
REMARK    2  A    between atoms: C_2  and  C_3
REMARK    3  A    between atoms: C_2  and  C_4
REMARK    4  A    between atoms: C_4  and  O_5
REMARK    5  A    between atoms: O_5  and  C_6
REMARK    6  A    between atoms: N_8  and  C_9
REMARK    7  A    between atoms: C_9  and  C_10
REMARK    8  A    between atoms: C_9  and  C_22
REMARK    9  A    between atoms: N_12  and  C_13
REMARK   10  A    between atoms: C_13  and  C_14
REMARK   11  A    between atoms: C_13  and  C_18
REMARK   12  A    between atoms: C_14  and  C_15
REMARK   13  A    between atoms: C_15  and  O_17
REMARK   14  A    between atoms: C_18  and  C_20
REMARK   15  A    between atoms: C_22  and  C_23
REMARK   16  A    between atoms: C_22  and  C_24
REMARK                            x       y       z     vdW  Elec       q    Type
REMARK                         _______ _______ _______ _____ _____    ______ ____
ROOT
ATOM      1  C   UNL     1       5.481   4.694  18.159  0.00  0.00    +0.000 C 
ATOM      2  O   UNL     1       5.748   4.896  19.345  0.00  0.00    +0.000 OA
ATOM      3  N   UNL     1       4.351   4.006  17.769  0.00  0.00    +0.000 N 
ATOM      4  H   UNL     1       4.381   3.526  16.870  0.00  0.00    +0.000 HD
ENDROOT
BRANCH   1   5
ATOM      5  C   UNL     1       6.330   5.286  17.009  0.00  0.00    +0.000 C 
BRANCH   5   8
ATOM      6  C   UNL     1       6.698   4.547  14.674  0.00  0.00    +0.000 C 
ATOM      7  O   UNL     1       7.722   5.185  14.492  0.00  0.00    +0.000 OA
ATOM      8  N   UNL     1       6.048   4.434  15.858  0.00  0.00    +0.000 N 
ATOM      9  H   UNL     1       5.147   3.968  15.830  0.00  0.00    +0.000 HD
BRANCH   6  10
ATOM     10  O   UNL     1       5.967   3.924  13.717  0.00  0.00    +0.000 OA
BRANCH  10  11
ATOM     11  C   UNL     1       6.624   3.739  12.455  0.00  0.00    +0.000 C 
BRANCH  11  13
ATOM     12  C   UNL     1       5.969   1.531  11.491  0.00  0.00    +0.000 C 
ATOM     13  C   UNL     1       5.717   3.038  11.441  0.00  0.00    +0.000 C 
ATOM     14  C   UNL     1       4.239   3.339  11.688  0.00  0.00    +0.000 C 
ENDBRANCH  11  13
ENDBRANCH  10  11
ENDBRANCH   6  10
ENDBRANCH   5   8
BRANCH   5  15
ATOM     15  C   UNL     1       6.075   6.780  16.686  0.00  0.00    +0.000 C 
ATOM     16  C   UNL     1       4.643   7.242  16.972  0.00  0.00    +0.000 C 
ATOM     17  C   UNL     1       7.076   7.714  17.361  0.00  0.00    +0.000 C 
ENDBRANCH   5  15
ENDBRANCH   1   5
BRANCH   3  18
ATOM     18  C   UNL     1       3.407   3.463  18.755  0.00  0.00    +0.000 C 
BRANCH  18  19
ATOM     19  C   UNL     1       3.843   2.054  19.194  0.00  0.00    +0.000 C 
ATOM     20  O   UNL     1       3.708   1.064  18.468  0.00  0.00    +0.000 OA
BRANCH  19  21
ATOM     21  C   UNL     1       4.472   1.916  20.561  0.00  0.00    +0.000 C 
ATOM     22  F   UNL     1       5.387   0.907  20.625  0.00  0.00    +0.000 F 
ENDBRANCH  19  21
ENDBRANCH  18  19
BRANCH  18  23
ATOM     23  C   UNL     1       1.970   3.513  18.223  0.00  0.00    +0.000 C 
BRANCH  23  24
ATOM     24  C   UNL     1       0.948   3.410  19.320  0.00  0.00    +0.000 C 
ATOM     25  O   UNL     1       0.917   4.134  20.301  0.00  0.00    +0.000 OA
BRANCH  24  26
ATOM     26  O   UNL     1       0.065   2.398  19.147  0.00  0.00    +0.000 OA
ATOM     27  H   UNL     1      -0.877   2.659  19.185  0.00  0.00    +0.000 HD
ENDBRANCH  24  26
ENDBRANCH  23  24
ENDBRANCH  18  23
ENDBRANCH   3  18
TORSDOF 12
ENDMDL
MODEL 6
REMARK VINA RESULT:      -6.8      1.556      2.021
REMARK  Name = 
REMARK  16 active torsions:
REMARK  status: ('A' for Active; 'I' for Inactive)
REMARK    1  A    between atoms: C_1  and  C_2
REMARK    2  A    between atoms: C_2  and  C_3
REMARK    3  A    between atoms: C_2  and  C_4
REMARK    4  A    between atoms: C_4  and  O_5
REMARK    5  A    between atoms: O_5  and  C_6
REMARK    6  A    between atoms: N_8  and  C_9
REMARK    7  A    between atoms: C_9  and  C_10
REMARK    8  A    between atoms: C_9  and  C_22
REMARK    9  A    between atoms: N_12  and  C_13
REMARK   10  A    between atoms: C_13  and  C_14
REMARK   11  A    between atoms: C_13  and  C_18
REMARK   12  A    between atoms: C_14  and  C_15
REMARK   13  A    between atoms: C_15  and  O_17
REMARK   14  A    between atoms: C_18  and  C_20
REMARK   15  A    between atoms: C_22  and  C_23
REMARK   16  A    between atoms: C_22  and  C_24
REMARK                            x       y       z     vdW  Elec       q    Type
REMARK                         _______ _______ _______ _____ _____    ______ ____
ROOT
ATOM      1  C   UNL     1       5.824   4.789  18.824  0.00  0.00    +0.000 C 
ATOM      2  O   UNL     1       6.368   4.887  19.925  0.00  0.00    +0.000 OA
ATOM      3  N   UNL     1       4.566   4.246  18.673  0.00  0.00    +0.000 N 
ATOM      4  H   UNL     1       4.342   3.823  17.773  0.00  0.00    +0.000 HD
ENDROOT
BRANCH   1   5
ATOM      5  C   UNL     1       6.461   5.362  17.535  0.00  0.00    +0.000 C 
BRANCH   5   8
ATOM      6  C   UNL     1       6.779   4.332  15.305  0.00  0.00    +0.000 C 
ATOM      7  O   UNL     1       7.839   4.882  15.053  0.00  0.00    +0.000 OA
ATOM      8  N   UNL     1       6.126   4.398  16.490  0.00  0.00    +0.000 N 
ATOM      9  H   UNL     1       5.198   3.987  16.514  0.00  0.00    +0.000 HD
BRANCH   6  10
ATOM     10  O   UNL     1       6.010   3.645  14.424  0.00  0.00    +0.000 OA
BRANCH  10  11
ATOM     11  C   UNL     1       6.282   3.891  13.037  0.00  0.00    +0.000 C 
BRANCH  11  13
ATOM     12  C   UNL     1       4.572   3.164  11.370  0.00  0.00    +0.000 C 
ATOM     13  C   UNL     1       5.812   2.733  12.153  0.00  0.00    +0.000 C 
ATOM     14  C   UNL     1       6.906   2.258  11.198  0.00  0.00    +0.000 C 
ENDBRANCH  11  13
ENDBRANCH  10  11
ENDBRANCH   6  10
ENDBRANCH   5   8
BRANCH   5  15
ATOM     15  C   UNL     1       6.019   6.795  17.147  0.00  0.00    +0.000 C 
ATOM     16  C   UNL     1       7.182   7.773  16.953  0.00  0.00    +0.000 C 
ATOM     17  C   UNL     1       5.095   6.826  15.933  0.00  0.00    +0.000 C 
ENDBRANCH   5  15
ENDBRANCH   1   5
BRANCH   3  18
ATOM     18  C   UNL     1       3.806   3.742  19.825  0.00  0.00    +0.000 C 
BRANCH  18  19
ATOM     19  C   UNL     1       4.092   2.245  20.041  0.00  0.00    +0.000 C 
ATOM     20  O   UNL     1       4.848   1.839  20.929  0.00  0.00    +0.000 OA
BRANCH  19  21
ATOM     21  C   UNL     1       3.393   1.265  19.129  0.00  0.00    +0.000 C 
ATOM     22  F   UNL     1       3.762   1.396  17.823  0.00  0.00    +0.000 F 
ENDBRANCH  19  21
ENDBRANCH  18  19
BRANCH  18  23
ATOM     23  C   UNL     1       2.313   4.058  19.678  0.00  0.00    +0.000 C 
BRANCH  23  24
ATOM     24  C   UNL     1       1.999   4.761  18.387  0.00  0.00    +0.000 C 
ATOM     25  O   UNL     1       2.294   5.919  18.146  0.00  0.00    +0.000 OA
BRANCH  24  26
ATOM     26  O   UNL     1       1.310   3.998  17.506  0.00  0.00    +0.000 OA
ATOM     27  H   UNL     1       1.150   3.076  17.793  0.00  0.00    +0.000 HD
ENDBRANCH  24  26
ENDBRANCH  23  24
ENDBRANCH  18  23
ENDBRANCH   3  18
TORSDOF 12
ENDMDL
MODEL 7
REMARK VINA RESULT:      -6.7      1.428      1.670
REMARK  Name = 
REMARK  16 active torsions:
REMARK  status: ('A' for Active; 'I' for Inactive)
REMARK    1  A    between atoms: C_1  and  C_2
REMARK    2  A    between atoms: C_2  and  C_3
REMARK    3  A    between atoms: C_2  and  C_4
REMARK    4  A    between atoms: C_4  and  O_5
REMARK    5  A    between atoms: O_5  and  C_6
REMARK    6  A    between atoms: N_8  and  C_9
REMARK    7  A    between atoms: C_9  and  C_10
REMARK    8  A    between atoms: C_9  and  C_22
REMARK    9  A    between atoms: N_12  and  C_13
REMARK   10  A    between atoms: C_13  and  C_14
REMARK   11  A    between atoms: C_13  and  C_18
REMARK   12  A    between atoms: C_14  and  C_15
REMARK   13  A    between atoms: C_15  and  O_17
REMARK   14  A    between atoms: C_18  and  C_20
REMARK   15  A    between atoms: C_22  and  C_23
REMARK   16  A    between atoms: C_22  and  C_24
REMARK                            x       y       z     vdW  Elec       q    Type
REMARK                         _______ _______ _______ _____ _____    ______ ____
ROOT
ATOM      1  C   UNL     1       6.127   4.818  18.979  0.00  0.00    +0.000 C 
ATOM      2  O   UNL     1       6.438   5.212  20.104  0.00  0.00    +0.000 OA
ATOM      3  N   UNL     1       4.918   4.206  18.724  0.00  0.00    +0.000 N 
ATOM      4  H   UNL     1       4.876   3.561  17.935  0.00  0.00    +0.000 HD
ENDROOT
BRANCH   1   5
ATOM      5  C   UNL     1       7.019   5.073  17.740  0.00  0.00    +0.000 C 
BRANCH   5   8
ATOM      6  C   UNL     1       6.862   4.217  15.421  0.00  0.00    +0.000 C 
ATOM      7  O   UNL     1       7.738   4.929  14.956  0.00  0.00    +0.000 OA
ATOM      8  N   UNL     1       6.544   4.126  16.735  0.00  0.00    +0.000 N 
ATOM      9  H   UNL     1       5.717   3.582  16.959  0.00  0.00    +0.000 HD
BRANCH   6  10
ATOM     10  O   UNL     1       5.981   3.471  14.710  0.00  0.00    +0.000 OA
BRANCH  10  11
ATOM     11  C   UNL     1       5.505   4.063  13.492  0.00  0.00    +0.000 C 
BRANCH  11  13
ATOM     12  C   UNL     1       4.401   3.269  11.399  0.00  0.00    +0.000 C 
ATOM     13  C   UNL     1       5.616   3.097  12.311  0.00  0.00    +0.000 C 
ATOM     14  C   UNL     1       6.907   3.300  11.520  0.00  0.00    +0.000 C 
ENDBRANCH  11  13
ENDBRANCH  10  11
ENDBRANCH   6  10
ENDBRANCH   5   8
BRANCH   5  15
ATOM     15  C   UNL     1       7.017   6.524  17.198  0.00  0.00    +0.000 C 
ATOM     16  C   UNL     1       5.618   7.125  17.035  0.00  0.00    +0.000 C 
ATOM     17  C   UNL     1       7.903   7.465  18.011  0.00  0.00    +0.000 C 
ENDBRANCH   5  15
ENDBRANCH   1   5
BRANCH   3  18
ATOM     18  C   UNL     1       3.935   3.979  19.791  0.00  0.00    +0.000 C 
BRANCH  18  19
ATOM     19  C   UNL     1       3.233   2.623  19.593  0.00  0.00    +0.000 C 
ATOM     20  O   UNL     1       2.293   2.256  20.305  0.00  0.00    +0.000 OA
BRANCH  19  21
ATOM     21  C   UNL     1       3.725   1.744  18.467  0.00  0.00    +0.000 C 
ATOM     22  F   UNL     1       2.959   1.841  17.344  0.00  0.00    +0.000 F 
ENDBRANCH  19  21
ENDBRANCH  18  19
BRANCH  18  23
ATOM     23  C   UNL     1       2.958   5.156  19.897  0.00  0.00    +0.000 C 
BRANCH  23  24
ATOM     24  C   UNL     1       2.343   5.513  18.573  0.00  0.00    +0.000 C 
ATOM     25  O   UNL     1       2.544   6.560  17.982  0.00  0.00    +0.000 OA
BRANCH  24  26
ATOM     26  O   UNL     1       1.496   4.570  18.095  0.00  0.00    +0.000 OA
ATOM     27  H   UNL     1       0.971   4.103  18.774  0.00  0.00    +0.000 HD
ENDBRANCH  24  26
ENDBRANCH  23  24
ENDBRANCH  18  23
ENDBRANCH   3  18
TORSDOF 12
ENDMDL
MODEL 8
REMARK VINA RESULT:      -6.7      1.466      2.221
REMARK  Name = 
REMARK  16 active torsions:
REMARK  status: ('A' for Active; 'I' for Inactive)
REMARK    1  A    between atoms: C_1  and  C_2
REMARK    2  A    between atoms: C_2  and  C_3
REMARK    3  A    between atoms: C_2  and  C_4
REMARK    4  A    between atoms: C_4  and  O_5
REMARK    5  A    between atoms: O_5  and  C_6
REMARK    6  A    between atoms: N_8  and  C_9
REMARK    7  A    between atoms: C_9  and  C_10
REMARK    8  A    between atoms: C_9  and  C_22
REMARK    9  A    between atoms: N_12  and  C_13
REMARK   10  A    between atoms: C_13  and  C_14
REMARK   11  A    between atoms: C_13  and  C_18
REMARK   12  A    between atoms: C_14  and  C_15
REMARK   13  A    between atoms: C_15  and  O_17
REMARK   14  A    between atoms: C_18  and  C_20
REMARK   15  A    between atoms: C_22  and  C_23
REMARK   16  A    between atoms: C_22  and  C_24
REMARK                            x       y       z     vdW  Elec       q    Type
REMARK                         _______ _______ _______ _____ _____    ______ ____
ROOT
ATOM      1  C   UNL     1       5.440   4.931  19.030  0.00  0.00    +0.000 C 
ATOM      2  O   UNL     1       5.518   5.537  20.100  0.00  0.00    +0.000 OA
ATOM      3  N   UNL     1       4.292   4.275  18.640  0.00  0.00    +0.000 N 
ATOM      4  H   UNL     1       4.396   3.489  17.998  0.00  0.00    +0.000 HD
ENDROOT
BRANCH   1   5
ATOM      5  C   UNL     1       6.585   4.947  17.988  0.00  0.00    +0.000 C 
BRANCH   5   8
ATOM      6  C   UNL     1       6.636   4.071  15.672  0.00  0.00    +0.000 C 
ATOM      7  O   UNL     1       7.634   4.679  15.321  0.00  0.00    +0.000 OA
ATOM      8  N   UNL     1       6.145   4.037  16.935  0.00  0.00    +0.000 N 
ATOM      9  H   UNL     1       5.244   3.586  17.052  0.00  0.00    +0.000 HD
BRANCH   6  10
ATOM     10  O   UNL     1       5.780   3.408  14.856  0.00  0.00    +0.000 OA
BRANCH  10  11
ATOM     11  C   UNL     1       5.508   4.038  13.596  0.00  0.00    +0.000 C 
BRANCH  11  13
ATOM     12  C   UNL     1       5.102   2.721  11.514  0.00  0.00    +0.000 C 
ATOM     13  C   UNL     1       6.177   3.297  12.436  0.00  0.00    +0.000 C 
ATOM     14  C   UNL     1       7.126   4.199  11.648  0.00  0.00    +0.000 C 
ENDBRANCH  11  13
ENDBRANCH  10  11
ENDBRANCH   6  10
ENDBRANCH   5   8
BRANCH   5  15
ATOM     15  C   UNL     1       6.954   6.339  17.418  0.00  0.00    +0.000 C 
ATOM     16  C   UNL     1       5.743   7.214  17.082  0.00  0.00    +0.000 C 
ATOM     17  C   UNL     1       7.930   7.107  18.306  0.00  0.00    +0.000 C 
ENDBRANCH   5  15
ENDBRANCH   1   5
BRANCH   3  18
ATOM     18  C   UNL     1       3.096   4.252  19.492  0.00  0.00    +0.000 C 
BRANCH  18  19
ATOM     19  C   UNL     1       3.176   3.088  20.496  0.00  0.00    +0.000 C 
ATOM     20  O   UNL     1       3.977   2.157  20.365  0.00  0.00    +0.000 OA
BRANCH  19  21
ATOM     21  C   UNL     1       2.239   3.125  21.680  0.00  0.00    +0.000 C 
ATOM     22  F   UNL     1       1.013   2.597  21.406  0.00  0.00    +0.000 F 
ENDBRANCH  19  21
ENDBRANCH  18  19
BRANCH  18  23
ATOM     23  C   UNL     1       1.819   4.233  18.645  0.00  0.00    +0.000 C 
BRANCH  23  24
ATOM     24  C   UNL     1       1.536   2.877  18.062  0.00  0.00    +0.000 C 
ATOM     25  O   UNL     1       2.286   2.285  17.305  0.00  0.00    +0.000 OA
BRANCH  24  26
ATOM     26  O   UNL     1       0.333   2.370  18.423  0.00  0.00    +0.000 OA
ATOM     27  H   UNL     1       0.333   1.860  19.257  0.00  0.00    +0.000 HD
ENDBRANCH  24  26
ENDBRANCH  23  24
ENDBRANCH  18  23
ENDBRANCH   3  18
TORSDOF 12
ENDMDL
MODEL 9
REMARK VINA RESULT:      -6.7      2.037      3.285
REMARK  Name = 
REMARK  16 active torsions:
REMARK  status: ('A' for Active; 'I' for Inactive)
REMARK    1  A    between atoms: C_1  and  C_2
REMARK    2  A    between atoms: C_2  and  C_3
REMARK    3  A    between atoms: C_2  and  C_4
REMARK    4  A    between atoms: C_4  and  O_5
REMARK    5  A    between atoms: O_5  and  C_6
REMARK    6  A    between atoms: N_8  and  C_9
REMARK    7  A    between atoms: C_9  and  C_10
REMARK    8  A    between atoms: C_9  and  C_22
REMARK    9  A    between atoms: N_12  and  C_13
REMARK   10  A    between atoms: C_13  and  C_14
REMARK   11  A    between atoms: C_13  and  C_18
REMARK   12  A    between atoms: C_14  and  C_15
REMARK   13  A    between atoms: C_15  and  O_17
REMARK   14  A    between atoms: C_18  and  C_20
REMARK   15  A    between atoms: C_22  and  C_23
REMARK   16  A    between atoms: C_22  and  C_24
REMARK                            x       y       z     vdW  Elec       q    Type
REMARK                         _______ _______ _______ _____ _____    ______ ____
ROOT
ATOM      1  C   UNL     1       4.271   3.618  18.127  0.00  0.00    +0.000 C 
ATOM      2  O   UNL     1       4.014   2.668  17.386  0.00  0.00    +0.000 OA
ATOM      3  N   UNL     1       3.849   3.660  19.438  0.00  0.00    +0.000 N 
ATOM      4  H   UNL     1       3.724   4.580  19.861  0.00  0.00    +0.000 HD
ENDROOT
BRANCH   1   5
ATOM      5  C   UNL     1       5.180   4.789  17.682  0.00  0.00    +0.000 C 
BRANCH   5   8
ATOM      6  C   UNL     1       6.883   4.431  15.919  0.00  0.00    +0.000 C 
ATOM      7  O   UNL     1       7.852   4.462  16.661  0.00  0.00    +0.000 OA
ATOM      8  N   UNL     1       5.589   4.449  16.321  0.00  0.00    +0.000 N 
ATOM      9  H   UNL     1       4.894   4.538  15.588  0.00  0.00    +0.000 HD
BRANCH   6  10
ATOM     10  O   UNL     1       6.916   4.479  14.564  0.00  0.00    +0.000 OA
BRANCH  10  11
ATOM     11  C   UNL     1       5.860   3.779  13.891  0.00  0.00    +0.000 C 
BRANCH  11  13
ATOM     12  C   UNL     1       7.389   4.442  12.032  0.00  0.00    +0.000 C 
ATOM     13  C   UNL     1       6.043   3.802  12.372  0.00  0.00    +0.000 C 
ATOM     14  C   UNL     1       5.950   2.404  11.761  0.00  0.00    +0.000 C 
ENDBRANCH  11  13
ENDBRANCH  10  11
ENDBRANCH   6  10
ENDBRANCH   5   8
BRANCH   5  15
ATOM     15  C   UNL     1       4.541   6.198  17.747  0.00  0.00    +0.000 C 
ATOM     16  C   UNL     1       4.929   7.111  16.580  0.00  0.00    +0.000 C 
ATOM     17  C   UNL     1       3.023   6.157  17.902  0.00  0.00    +0.000 C 
ENDBRANCH   5  15
ENDBRANCH   1   5
BRANCH   3  18
ATOM     18  C   UNL     1       3.052   2.573  20.022  0.00  0.00    +0.000 C 
BRANCH  18  19
ATOM     19  C   UNL     1       1.584   3.008  20.176  0.00  0.00    +0.000 C 
ATOM     20  O   UNL     1       1.157   3.538  21.207  0.00  0.00    +0.000 OA
BRANCH  19  21
ATOM     21  C   UNL     1       0.664   2.782  18.999  0.00  0.00    +0.000 C 
ATOM     22  F   UNL     1       0.927   3.614  17.952  0.00  0.00    +0.000 F 
ENDBRANCH  19  21
ENDBRANCH  18  19
BRANCH  18  23
ATOM     23  C   UNL     1       3.676   2.076  21.330  0.00  0.00    +0.000 C 
BRANCH  23  24
ATOM     24  C   UNL     1       4.973   1.349  21.108  0.00  0.00    +0.000 C 
ATOM     25  O   UNL     1       5.790   1.118  21.983  0.00  0.00    +0.000 OA
BRANCH  24  26
ATOM     26  O   UNL     1       5.184   0.996  19.818  0.00  0.00    +0.000 OA
ATOM     27  H   UNL     1       5.125   0.037  19.636  0.00  0.00    +0.000 HD
ENDBRANCH  24  26
ENDBRANCH  23  24
ENDBRANCH  18  23
ENDBRANCH   3  18
TORSDOF 12
ENDMDL
