MODEL 1
REMARK VINA RESULT:      -7.2      0.000      0.000
REMARK  Name = 
REMARK  7 active torsions:
REMARK  status: ('A' for Active; 'I' for Inactive)
REMARK    1  A    between atoms: C_1  and  O_2
REMARK    2  A    between atoms: O_2  and  C_3
REMARK    3  A    between atoms: C_12  and  C_13
REMARK    4  A    between atoms: C_13  and  O_14
REMARK    5  A    between atoms: N_15  and  C_16
REMARK    6  A    between atoms: C_16  and  C_17
REMARK    7  A    between atoms: C_28  and  C_30
REMARK                            x       y       z     vdW  Elec       q    Type
REMARK                         _______ _______ _______ _____ _____    ______ ____
ROOT
ATOM      1  C   UNL     1       0.915   8.642  20.945  0.00  0.00    +0.000 A 
ATOM      2  C   UNL     1       1.164   9.583  19.945  0.00  0.00    +0.000 A 
ATOM      3  C   UNL     1       0.633  10.881  20.009  0.00  0.00    +0.000 A 
ATOM      4  C   UNL     1      -0.184  11.244  21.099  0.00  0.00    +0.000 A 
ATOM      5  C   UNL     1      -0.839  12.425  21.536  0.00  0.00    +0.000 A 
ATOM      6  C   UNL     1      -1.518  12.144  22.705  0.00  0.00    +0.000 A 
ATOM      7  N   UNL     1      -1.232  10.851  23.043  0.00  0.00    +0.000 N 
ATOM      8  C   UNL     1      -0.438  10.273  22.078  0.00  0.00    +0.000 A 
ATOM      9  C   UNL     1       0.100   8.975  22.028  0.00  0.00    +0.000 A 
ATOM     10  C   UNL     1      -2.353  13.077  23.552  0.00  0.00    +0.000 C 
ATOM     11  N   UNL     1      -1.916  14.469  23.266  0.00  0.00    +0.000 NA
ATOM     12  C   UNL     1      -1.855  14.744  21.810  0.00  0.00    +0.000 C 
ATOM     13  C   UNL     1      -0.774  13.886  21.092  0.00  0.00    +0.000 C 
ATOM     14  C   UNL     1       0.684  14.413  21.257  0.00  0.00    +0.000 C 
ATOM     15  N   UNL     1       0.373  15.316  20.131  0.00  0.00    +0.000 N 
ATOM     16  C   UNL     1       1.394  15.905  19.405  0.00  0.00    +0.000 C 
ATOM     17  O   UNL     1       2.569  15.557  19.503  0.00  0.00    +0.000 OA
ATOM     18  C   UNL     1      -0.558  14.283  19.604  0.00  0.00    +0.000 C 
ATOM     19  H   UNL     1      -1.531  10.391  23.890  0.00  0.00    +0.000 HD
ENDROOT
BRANCH  16  20
ATOM     20  C   UNL     1       0.971  17.168  18.667  0.00  0.00    +0.000 C 
ATOM     21  C   UNL     1       1.855  17.454  17.454  0.00  0.00    +0.000 C 
ATOM     22  C   UNL     1       1.072  18.489  16.665  0.00  0.00    +0.000 C 
ATOM     23  C   UNL     1      -0.399  18.200  16.961  0.00  0.00    +0.000 C 
ATOM     24  C   UNL     1      -0.421  17.128  18.052  0.00  0.00    +0.000 C 
ENDBRANCH  16  20
BRANCH   1  26
ATOM     25  C   UNL     1       2.314   7.283  19.579  0.00  0.00    +0.000 C 
ATOM     26  O   UNL     1       1.528   7.430  20.756  0.00  0.00    +0.000 OA
ENDBRANCH   1  26
BRANCH  10  27
ATOM     27  C   UNL     1      -3.861  12.755  23.336  0.00  0.00    +0.000 C 
BRANCH  27  28
ATOM     28  O   UNL     1      -4.396  12.008  24.437  0.00  0.00    +0.000 OA
ATOM     29  H   UNL     1      -5.123  12.543  24.801  0.00  0.00    +0.000 HD
ENDBRANCH  27  28
ENDBRANCH  10  27
BRANCH  11  30
ATOM     30  C   UNL     1      -2.710  15.510  23.944  0.00  0.00    +0.000 C 
BRANCH  30  31
ATOM     31  C   UNL     1      -1.885  16.486  24.743  0.00  0.00    +0.000 A 
ATOM     32  C   UNL     1      -1.555  17.748  24.226  0.00  0.00    +0.000 A 
ATOM     33  C   UNL     1      -0.761  18.631  24.962  0.00  0.00    +0.000 A 
ATOM     34  C   UNL     1      -0.296  18.267  26.226  0.00  0.00    +0.000 A 
ATOM     35  C   UNL     1      -0.646  17.031  26.764  0.00  0.00    +0.000 A 
ATOM     36  C   UNL     1      -1.439  16.158  26.027  0.00  0.00    +0.000 A 
ATOM     37  F   UNL     1      -1.770  14.977  26.569  0.00  0.00    +0.000 F 
ENDBRANCH  30  31
ENDBRANCH  11  30
TORSDOF 6
ENDMDL
MODEL 2
REMARK VINA RESULT:      -7.0      3.727      5.718
REMARK  Name = 
REMARK  7 active torsions:
REMARK  status: ('A' for Active; 'I' for Inactive)
REMARK    1  A    between atoms: C_1  and  O_2
REMARK    2  A    between atoms: O_2  and  C_3
REMARK    3  A    between atoms: C_12  and  C_13
REMARK    4  A    between atoms: C_13  and  O_14
REMARK    5  A    between atoms: N_15  and  C_16
REMARK    6  A    between atoms: C_16  and  C_17
REMARK    7  A    between atoms: C_28  and  C_30
REMARK                            x       y       z     vdW  Elec       q    Type
REMARK                         _______ _______ _______ _____ _____    ______ ____
ROOT
ATOM      1  C   UNL     1       1.350   9.571  17.939  0.00  0.00    +0.000 A 
ATOM      2  C   UNL     1       1.610  10.714  18.695  0.00  0.00    +0.000 A 
ATOM      3  C   UNL     1       0.575  11.556  19.133  0.00  0.00    +0.000 A 
ATOM      4  C   UNL     1      -0.758  11.253  18.791  0.00  0.00    +0.000 A 
ATOM      5  C   UNL     1      -2.037  11.803  19.074  0.00  0.00    +0.000 A 
ATOM      6  C   UNL     1      -2.993  11.048  18.424  0.00  0.00    +0.000 A 
ATOM      7  N   UNL     1      -2.349  10.004  17.820  0.00  0.00    +0.000 N 
ATOM      8  C   UNL     1      -0.990  10.111  18.011  0.00  0.00    +0.000 A 
ATOM      9  C   UNL     1       0.039   9.256  17.580  0.00  0.00    +0.000 A 
ATOM     10  C   UNL     1      -4.493  11.232  18.426  0.00  0.00    +0.000 C 
ATOM     11  N   UNL     1      -4.859  11.999  19.646  0.00  0.00    +0.000 NA
ATOM     12  C   UNL     1      -4.024  13.213  19.810  0.00  0.00    +0.000 C 
ATOM     13  C   UNL     1      -2.526  12.874  20.048  0.00  0.00    +0.000 C 
ATOM     14  C   UNL     1      -2.186  12.439  21.507  0.00  0.00    +0.000 C 
ATOM     15  N   UNL     1      -2.107  13.883  21.806  0.00  0.00    +0.000 N 
ATOM     16  C   UNL     1      -1.439  14.328  22.934  0.00  0.00    +0.000 C 
ATOM     17  O   UNL     1      -0.713  13.601  23.608  0.00  0.00    +0.000 OA
ATOM     18  C   UNL     1      -1.660  14.114  20.407  0.00  0.00    +0.000 C 
ATOM     19  H   UNL     1      -2.801   9.246  17.331  0.00  0.00    +0.000 HD
ENDROOT
BRANCH  16  20
ATOM     20  C   UNL     1      -1.874  15.712  23.397  0.00  0.00    +0.000 C 
ATOM     21  C   UNL     1      -1.226  16.826  22.576  0.00  0.00    +0.000 C 
ATOM     22  C   UNL     1      -2.045  18.059  22.922  0.00  0.00    +0.000 C 
ATOM     23  C   UNL     1      -3.447  17.542  23.235  0.00  0.00    +0.000 C 
ATOM     24  C   UNL     1      -3.358  16.015  23.243  0.00  0.00    +0.000 C 
ENDBRANCH  16  20
BRANCH   1  26
ATOM     25  C   UNL     1       2.478   7.476  18.035  0.00  0.00    +0.000 C 
ATOM     26  O   UNL     1       2.461   8.836  17.615  0.00  0.00    +0.000 OA
ENDBRANCH   1  26
BRANCH  10  27
ATOM     27  C   UNL     1      -4.940  11.831  17.060  0.00  0.00    +0.000 C 
BRANCH  27  28
ATOM     28  O   UNL     1      -4.402  11.081  15.962  0.00  0.00    +0.000 OA
ATOM     29  H   UNL     1      -5.129  10.524  15.632  0.00  0.00    +0.000 HD
ENDBRANCH  27  28
ENDBRANCH  10  27
BRANCH  11  30
ATOM     30  C   UNL     1      -6.287  12.349  19.743  0.00  0.00    +0.000 C 
BRANCH  30  31
ATOM     31  C   UNL     1      -6.759  12.616  21.150  0.00  0.00    +0.000 A 
ATOM     32  C   UNL     1      -6.473  13.831  21.790  0.00  0.00    +0.000 A 
ATOM     33  C   UNL     1      -6.886  14.053  23.106  0.00  0.00    +0.000 A 
ATOM     34  C   UNL     1      -7.597  13.068  23.793  0.00  0.00    +0.000 A 
ATOM     35  C   UNL     1      -7.917  11.872  23.156  0.00  0.00    +0.000 A 
ATOM     36  C   UNL     1      -7.505  11.658  21.845  0.00  0.00    +0.000 A 
ATOM     37  F   UNL     1      -7.831  10.502  21.249  0.00  0.00    +0.000 F 
ENDBRANCH  30  31
ENDBRANCH  11  30
TORSDOF 6
ENDMDL
MODEL 3
REMARK VINA RESULT:      -6.9      3.723      7.393
REMARK  Name = 
REMARK  7 active torsions:
REMARK  status: ('A' for Active; 'I' for Inactive)
REMARK    1  A    between atoms: C_1  and  O_2
REMARK    2  A    between atoms: O_2  and  C_3
REMARK    3  A    between atoms: C_12  and  C_13
REMARK    4  A    between atoms: C_13  and  O_14
REMARK    5  A    between atoms: N_15  and  C_16
REMARK    6  A    between atoms: C_16  and  C_17
REMARK    7  A    between atoms: C_28  and  C_30
REMARK                            x       y       z     vdW  Elec       q    Type
REMARK                         _______ _______ _______ _____ _____    ______ ____
ROOT
ATOM      1  C   UNL     1      -1.199  16.982  25.920  0.00  0.00    +0.000 A 
ATOM      2  C   UNL     1      -0.439  16.224  25.029  0.00  0.00    +0.000 A 
ATOM      3  C   UNL     1      -1.041  15.350  24.110  0.00  0.00    +0.000 A 
ATOM      4  C   UNL     1      -2.444  15.219  24.092  0.00  0.00    +0.000 A 
ATOM      5  C   UNL     1      -3.394  14.511  23.310  0.00  0.00    +0.000 A 
ATOM      6  C   UNL     1      -4.656  14.785  23.799  0.00  0.00    +0.000 A 
ATOM      7  N   UNL     1      -4.516  15.704  24.800  0.00  0.00    +0.000 N 
ATOM      8  C   UNL     1      -3.183  15.974  25.013  0.00  0.00    +0.000 A 
ATOM      9  C   UNL     1      -2.590  16.862  25.928  0.00  0.00    +0.000 A 
ATOM     10  C   UNL     1      -5.988  14.275  23.296  0.00  0.00    +0.000 C 
ATOM     11  N   UNL     1      -5.815  13.868  21.876  0.00  0.00    +0.000 NA
ATOM     12  C   UNL     1      -4.636  12.989  21.690  0.00  0.00    +0.000 C 
ATOM     13  C   UNL     1      -3.299  13.718  22.007  0.00  0.00    +0.000 C 
ATOM     14  C   UNL     1      -2.788  14.654  20.869  0.00  0.00    +0.000 C 
ATOM     15  N   UNL     1      -2.206  13.435  20.272  0.00  0.00    +0.000 N 
ATOM     16  C   UNL     1      -1.197  13.530  19.329  0.00  0.00    +0.000 C 
ATOM     17  O   UNL     1      -0.594  14.577  19.102  0.00  0.00    +0.000 OA
ATOM     18  C   UNL     1      -2.039  12.884  21.643  0.00  0.00    +0.000 C 
ATOM     19  H   UNL     1      -5.277  16.147  25.295  0.00  0.00    +0.000 HD
ENDROOT
BRANCH  16  20
ATOM     20  C   UNL     1      -1.072  12.301  18.439  0.00  0.00    +0.000 C 
ATOM     21  C   UNL     1      -0.173  11.230  19.056  0.00  0.00    +0.000 C 
ATOM     22  C   UNL     1      -0.470   9.986  18.236  0.00  0.00    +0.000 C 
ATOM     23  C   UNL     1      -1.922  10.133  17.784  0.00  0.00    +0.000 C 
ATOM     24  C   UNL     1      -2.367  11.538  18.196  0.00  0.00    +0.000 C 
ENDBRANCH  16  20
BRANCH   1  26
ATOM     25  C   UNL     1      -0.042  17.277  27.980  0.00  0.00    +0.000 C 
ATOM     26  O   UNL     1      -0.469  17.811  26.733  0.00  0.00    +0.000 OA
ENDBRANCH   1  26
BRANCH  10  27
ATOM     27  C   UNL     1      -6.527  13.193  24.276  0.00  0.00    +0.000 C 
BRANCH  27  28
ATOM     28  O   UNL     1      -7.811  13.558  24.800  0.00  0.00    +0.000 OA
ATOM     29  H   UNL     1      -7.705  13.615  25.765  0.00  0.00    +0.000 HD
ENDBRANCH  27  28
ENDBRANCH  10  27
BRANCH  11  30
ATOM     30  C   UNL     1      -7.008  13.251  21.268  0.00  0.00    +0.000 C 
BRANCH  30  31
ATOM     31  C   UNL     1      -6.758  12.638  19.914  0.00  0.00    +0.000 A 
ATOM     32  C   UNL     1      -6.368  13.430  18.823  0.00  0.00    +0.000 A 
ATOM     33  C   UNL     1      -6.173  12.856  17.565  0.00  0.00    +0.000 A 
ATOM     34  C   UNL     1      -6.355  11.484  17.384  0.00  0.00    +0.000 A 
ATOM     35  C   UNL     1      -6.708  10.683  18.468  0.00  0.00    +0.000 A 
ATOM     36  C   UNL     1      -6.898  11.261  19.718  0.00  0.00    +0.000 A 
ATOM     37  F   UNL     1      -7.229  10.469  20.749  0.00  0.00    +0.000 F 
ENDBRANCH  30  31
ENDBRANCH  11  30
TORSDOF 6
ENDMDL
MODEL 4
REMARK VINA RESULT:      -6.9      3.880      7.348
REMARK  Name = 
REMARK  7 active torsions:
REMARK  status: ('A' for Active; 'I' for Inactive)
REMARK    1  A    between atoms: C_1  and  O_2
REMARK    2  A    between atoms: O_2  and  C_3
REMARK    3  A    between atoms: C_12  and  C_13
REMARK    4  A    between atoms: C_13  and  O_14
REMARK    5  A    between atoms: N_15  and  C_16
REMARK    6  A    between atoms: C_16  and  C_17
REMARK    7  A    between atoms: C_28  and  C_30
REMARK                            x       y       z     vdW  Elec       q    Type
REMARK                         _______ _______ _______ _____ _____    ______ ____
ROOT
ATOM      1  C   UNL     1      -1.518  16.396  26.001  0.00  0.00    +0.000 A 
ATOM      2  C   UNL     1      -0.703  15.666  25.136  0.00  0.00    +0.000 A 
ATOM      3  C   UNL     1      -1.244  14.866  24.116  0.00  0.00    +0.000 A 
ATOM      4  C   UNL     1      -2.642  14.782  23.968  0.00  0.00    +0.000 A 
ATOM      5  C   UNL     1      -3.538  14.151  23.064  0.00  0.00    +0.000 A 
ATOM      6  C   UNL     1      -4.831  14.439  23.456  0.00  0.00    +0.000 A 
ATOM      7  N   UNL     1      -4.756  15.294  24.519  0.00  0.00    +0.000 N 
ATOM      8  C   UNL     1      -3.440  15.507  24.864  0.00  0.00    +0.000 A 
ATOM      9  C   UNL     1      -2.907  16.321  25.879  0.00  0.00    +0.000 A 
ATOM     10  C   UNL     1      -6.125  14.002  22.808  0.00  0.00    +0.000 C 
ATOM     11  N   UNL     1      -5.838  13.672  21.387  0.00  0.00    +0.000 NA
ATOM     12  C   UNL     1      -4.671  12.766  21.253  0.00  0.00    +0.000 C 
ATOM     13  C   UNL     1      -3.349  13.432  21.729  0.00  0.00    +0.000 C 
ATOM     14  C   UNL     1      -2.711  14.413  20.699  0.00  0.00    +0.000 C 
ATOM     15  N   UNL     1      -2.113  13.212  20.084  0.00  0.00    +0.000 N 
ATOM     16  C   UNL     1      -1.021  13.328  19.240  0.00  0.00    +0.000 C 
ATOM     17  O   UNL     1      -0.371  14.366  19.131  0.00  0.00    +0.000 OA
ATOM     18  C   UNL     1      -2.084  12.579  21.429  0.00  0.00    +0.000 C 
ATOM     19  H   UNL     1      -5.545  15.732  24.971  0.00  0.00    +0.000 HD
ENDROOT
BRANCH  16  20
ATOM     20  C   UNL     1      -0.850  12.148  18.293  0.00  0.00    +0.000 C 
ATOM     21  C   UNL     1      -0.014  11.027  18.910  0.00  0.00    +0.000 C 
ATOM     22  C   UNL     1      -0.271   9.837  18.001  0.00  0.00    +0.000 C 
ATOM     23  C   UNL     1      -1.684  10.037  17.456  0.00  0.00    +0.000 C 
ATOM     24  C   UNL     1      -2.136  11.425  17.915  0.00  0.00    +0.000 C 
ENDBRANCH  16  20
BRANCH   1  26
ATOM     25  C   UNL     1      -0.810  18.558  26.703  0.00  0.00    +0.000 C 
ATOM     26  O   UNL     1      -0.842  17.153  26.922  0.00  0.00    +0.000 OA
ENDBRANCH   1  26
BRANCH  10  27
ATOM     27  C   UNL     1      -6.780  12.884  23.671  0.00  0.00    +0.000 C 
BRANCH  27  28
ATOM     28  O   UNL     1      -5.960  12.548  24.798  0.00  0.00    +0.000 OA
ATOM     29  H   UNL     1      -5.396  13.323  24.965  0.00  0.00    +0.000 HD
ENDBRANCH  27  28
ENDBRANCH  10  27
BRANCH  11  30
ATOM     30  C   UNL     1      -6.988  13.129  20.641  0.00  0.00    +0.000 C 
BRANCH  30  31
ATOM     31  C   UNL     1      -7.051  13.577  19.203  0.00  0.00    +0.000 A 
ATOM     32  C   UNL     1      -6.905  12.658  18.152  0.00  0.00    +0.000 A 
ATOM     33  C   UNL     1      -6.932  13.091  16.825  0.00  0.00    +0.000 A 
ATOM     34  C   UNL     1      -7.115  14.443  16.531  0.00  0.00    +0.000 A 
ATOM     35  C   UNL     1      -7.296  15.358  17.565  0.00  0.00    +0.000 A 
ATOM     36  C   UNL     1      -7.271  14.921  18.885  0.00  0.00    +0.000 A 
ATOM     37  F   UNL     1      -7.456  15.819  19.863  0.00  0.00    +0.000 F 
ENDBRANCH  30  31
ENDBRANCH  11  30
TORSDOF 6
ENDMDL
MODEL 5
REMARK VINA RESULT:      -6.6      2.810      6.243
REMARK  Name = 
REMARK  7 active torsions:
REMARK  status: ('A' for Active; 'I' for Inactive)
REMARK    1  A    between atoms: C_1  and  O_2
REMARK    2  A    between atoms: O_2  and  C_3
REMARK    3  A    between atoms: C_12  and  C_13
REMARK    4  A    between atoms: C_13  and  O_14
REMARK    5  A    between atoms: N_15  and  C_16
REMARK    6  A    between atoms: C_16  and  C_17
REMARK    7  A    between atoms: C_28  and  C_30
REMARK                            x       y       z     vdW  Elec       q    Type
REMARK                         _______ _______ _______ _____ _____    ______ ____
ROOT
ATOM      1  C   UNL     1       0.947   8.724  21.017  0.00  0.00    +0.000 A 
ATOM      2  C   UNL     1      -0.327   8.778  21.584  0.00  0.00    +0.000 A 
ATOM      3  C   UNL     1      -0.987  10.000  21.791  0.00  0.00    +0.000 A 
ATOM      4  C   UNL     1      -0.348  11.203  21.434  0.00  0.00    +0.000 A 
ATOM      5  C   UNL     1      -0.690  12.582  21.435  0.00  0.00    +0.000 A 
ATOM      6  C   UNL     1       0.391  13.302  20.967  0.00  0.00    +0.000 A 
ATOM      7  N   UNL     1       1.353  12.405  20.600  0.00  0.00    +0.000 N 
ATOM      8  C   UNL     1       0.941  11.123  20.888  0.00  0.00    +0.000 A 
ATOM      9  C   UNL     1       1.604   9.903  20.665  0.00  0.00    +0.000 A 
ATOM     10  C   UNL     1       0.509  14.798  20.777  0.00  0.00    +0.000 C 
ATOM     11  N   UNL     1      -0.864  15.352  20.646  0.00  0.00    +0.000 NA
ATOM     12  C   UNL     1      -1.763  14.873  21.724  0.00  0.00    +0.000 C 
ATOM     13  C   UNL     1      -2.000  13.337  21.656  0.00  0.00    +0.000 C 
ATOM     14  C   UNL     1      -3.041  12.891  20.584  0.00  0.00    +0.000 C 
ATOM     15  N   UNL     1      -4.064  13.201  21.602  0.00  0.00    +0.000 N 
ATOM     16  C   UNL     1      -5.340  12.674  21.494  0.00  0.00    +0.000 C 
ATOM     17  O   UNL     1      -5.626  11.778  20.703  0.00  0.00    +0.000 OA
ATOM     18  C   UNL     1      -3.080  12.834  22.655  0.00  0.00    +0.000 C 
ATOM     19  H   UNL     1       2.228  12.639  20.155  0.00  0.00    +0.000 HD
ENDROOT
BRANCH  16  20
ATOM     20  C   UNL     1      -6.395  13.461  22.260  0.00  0.00    +0.000 C 
ATOM     21  C   UNL     1      -6.823  12.756  23.546  0.00  0.00    +0.000 C 
ATOM     22  C   UNL     1      -7.561  13.833  24.325  0.00  0.00    +0.000 C 
ATOM     23  C   UNL     1      -6.913  15.152  23.910  0.00  0.00    +0.000 C 
ATOM     24  C   UNL     1      -5.948  14.825  22.769  0.00  0.00    +0.000 C 
ENDBRANCH  16  20
BRANCH   1  26
ATOM     25  C   UNL     1       2.288   7.240  19.725  0.00  0.00    +0.000 C 
ATOM     26  O   UNL     1       1.445   7.457  20.851  0.00  0.00    +0.000 OA
ENDBRANCH   1  26
BRANCH  10  27
ATOM     27  C   UNL     1       1.401  15.391  21.907  0.00  0.00    +0.000 C 
BRANCH  27  28
ATOM     28  O   UNL     1       2.434  14.473  22.290  0.00  0.00    +0.000 OA
ATOM     29  H   UNL     1       1.993  13.757  22.780  0.00  0.00    +0.000 HD
ENDBRANCH  27  28
ENDBRANCH  10  27
BRANCH  11  30
ATOM     30  C   UNL     1      -0.923  16.822  20.554  0.00  0.00    +0.000 C 
BRANCH  30  31
ATOM     31  C   UNL     1      -0.493  17.371  19.217  0.00  0.00    +0.000 A 
ATOM     32  C   UNL     1       0.841  17.276  18.793  0.00  0.00    +0.000 A 
ATOM     33  C   UNL     1       1.235  17.819  17.568  0.00  0.00    +0.000 A 
ATOM     34  C   UNL     1       0.300  18.453  16.749  0.00  0.00    +0.000 A 
ATOM     35  C   UNL     1      -1.034  18.523  17.145  0.00  0.00    +0.000 A 
ATOM     36  C   UNL     1      -1.420  17.978  18.365  0.00  0.00    +0.000 A 
ATOM     37  F   UNL     1      -2.711  18.049  18.721  0.00  0.00    +0.000 F 
ENDBRANCH  30  31
ENDBRANCH  11  30
TORSDOF 6
ENDMDL
MODEL 6
REMARK VINA RESULT:      -6.6      2.408      6.074
REMARK  Name = 
REMARK  7 active torsions:
REMARK  status: ('A' for Active; 'I' for Inactive)
REMARK    1  A    between atoms: C_1  and  O_2
REMARK    2  A    between atoms: O_2  and  C_3
REMARK    3  A    between atoms: C_12  and  C_13
REMARK    4  A    between atoms: C_13  and  O_14
REMARK    5  A    between atoms: N_15  and  C_16
REMARK    6  A    between atoms: C_16  and  C_17
REMARK    7  A    between atoms: C_28  and  C_30
REMARK                            x       y       z     vdW  Elec       q    Type
REMARK                         _______ _______ _______ _____ _____    ______ ____
ROOT
ATOM      1  C   UNL     1       0.589   9.026  21.348  0.00  0.00    +0.000 A 
ATOM      2  C   UNL     1      -0.427   9.384  22.234  0.00  0.00    +0.000 A 
ATOM      3  C   UNL     1      -0.747  10.729  22.480  0.00  0.00    +0.000 A 
ATOM      4  C   UNL     1      -0.018  11.746  21.832  0.00  0.00    +0.000 A 
ATOM      5  C   UNL     1      -0.069  13.164  21.777  0.00  0.00    +0.000 A 
ATOM      6  C   UNL     1       0.947  13.608  20.954  0.00  0.00    +0.000 A 
ATOM      7  N   UNL     1       1.566  12.505  20.437  0.00  0.00    +0.000 N 
ATOM      8  C   UNL     1       1.014  11.360  20.964  0.00  0.00    +0.000 A 
ATOM      9  C   UNL     1       1.332  10.015  20.702  0.00  0.00    +0.000 A 
ATOM     10  C   UNL     1       1.294  15.030  20.577  0.00  0.00    +0.000 C 
ATOM     11  N   UNL     1       0.077  15.864  20.768  0.00  0.00    +0.000 NA
ATOM     12  C   UNL     1      -0.542  15.645  22.097  0.00  0.00    +0.000 C 
ATOM     13  C   UNL     1      -1.084  14.197  22.265  0.00  0.00    +0.000 C 
ATOM     14  C   UNL     1      -2.458  13.937  21.576  0.00  0.00    +0.000 C 
ATOM     15  N   UNL     1      -3.059  14.511  22.797  0.00  0.00    +0.000 N 
ATOM     16  C   UNL     1      -4.388  14.271  23.102  0.00  0.00    +0.000 C 
ATOM     17  O   UNL     1      -5.062  13.421  22.522  0.00  0.00    +0.000 OA
ATOM     18  C   UNL     1      -1.902  13.990  23.571  0.00  0.00    +0.000 C 
ATOM     19  H   UNL     1       2.301  12.520  19.745  0.00  0.00    +0.000 HD
ENDROOT
BRANCH  16  20
ATOM     20  C   UNL     1      -4.999  15.305  24.037  0.00  0.00    +0.000 C 
ATOM     21  C   UNL     1      -3.949  16.250  24.619  0.00  0.00    +0.000 C 
ATOM     22  C   UNL     1      -4.766  17.396  25.194  0.00  0.00    +0.000 C 
ATOM     23  C   UNL     1      -6.018  17.480  24.323  0.00  0.00    +0.000 C 
ATOM     24  C   UNL     1      -5.981  16.271  23.387  0.00  0.00    +0.000 C 
ENDBRANCH  16  20
BRANCH   1  26
ATOM     25  C   UNL     1       1.805   7.256  20.320  0.00  0.00    +0.000 C 
ATOM     26  O   UNL     1       0.761   7.675  21.190  0.00  0.00    +0.000 OA
ENDBRANCH   1  26
BRANCH  10  27
ATOM     27  C   UNL     1       2.574  15.469  21.345  0.00  0.00    +0.000 C 
BRANCH  27  28
ATOM     28  O   UNL     1       2.919  14.522  22.366  0.00  0.00    +0.000 OA
ATOM     29  H   UNL     1       2.927  13.649  21.935  0.00  0.00    +0.000 HD
ENDBRANCH  27  28
ENDBRANCH  10  27
BRANCH  11  30
ATOM     30  C   UNL     1       0.282  17.305  20.537  0.00  0.00    +0.000 C 
BRANCH  30  31
ATOM     31  C   UNL     1       0.327  17.692  19.080  0.00  0.00    +0.000 A 
ATOM     32  C   UNL     1       1.529  17.651  18.357  0.00  0.00    +0.000 A 
ATOM     33  C   UNL     1       1.564  18.045  17.018  0.00  0.00    +0.000 A 
ATOM     34  C   UNL     1       0.398  18.473  16.382  0.00  0.00    +0.000 A 
ATOM     35  C   UNL     1      -0.807  18.485  17.080  0.00  0.00    +0.000 A 
ATOM     36  C   UNL     1      -0.836  18.089  18.413  0.00  0.00    +0.000 A 
ATOM     37  F   UNL     1      -2.010  18.100  19.061  0.00  0.00    +0.000 F 
ENDBRANCH  30  31
ENDBRANCH  11  30
TORSDOF 6
ENDMDL
MODEL 7
REMARK VINA RESULT:      -6.6      3.308      7.314
REMARK  Name = 
REMARK  7 active torsions:
REMARK  status: ('A' for Active; 'I' for Inactive)
REMARK    1  A    between atoms: C_1  and  O_2
REMARK    2  A    between atoms: O_2  and  C_3
REMARK    3  A    between atoms: C_12  and  C_13
REMARK    4  A    between atoms: C_13  and  O_14
REMARK    5  A    between atoms: N_15  and  C_16
REMARK    6  A    between atoms: C_16  and  C_17
REMARK    7  A    between atoms: C_28  and  C_30
REMARK                            x       y       z     vdW  Elec       q    Type
REMARK                         _______ _______ _______ _____ _____    ______ ____
ROOT
ATOM      1  C   UNL     1      -5.204  14.297  23.008  0.00  0.00    +0.000 A 
ATOM      2  C   UNL     1      -4.936  13.019  22.518  0.00  0.00    +0.000 A 
ATOM      3  C   UNL     1      -3.838  12.768  21.680  0.00  0.00    +0.000 A 
ATOM      4  C   UNL     1      -2.992  13.832  21.308  0.00  0.00    +0.000 A 
ATOM      5  C   UNL     1      -1.798  13.971  20.552  0.00  0.00    +0.000 A 
ATOM      6  C   UNL     1      -1.443  15.305  20.535  0.00  0.00    +0.000 A 
ATOM      7  N   UNL     1      -2.333  15.976  21.325  0.00  0.00    +0.000 N 
ATOM      8  C   UNL     1      -3.295  15.111  21.795  0.00  0.00    +0.000 A 
ATOM      9  C   UNL     1      -4.385  15.368  22.645  0.00  0.00    +0.000 A 
ATOM     10  C   UNL     1      -0.247  15.949  19.869  0.00  0.00    +0.000 C 
ATOM     11  N   UNL     1       0.794  14.903  19.688  0.00  0.00    +0.000 NA
ATOM     12  C   UNL     1       0.245  13.676  19.062  0.00  0.00    +0.000 C 
ATOM     13  C   UNL     1      -0.804  12.969  19.966  0.00  0.00    +0.000 C 
ATOM     14  C   UNL     1      -0.193  12.113  21.117  0.00  0.00    +0.000 C 
ATOM     15  N   UNL     1      -0.055  11.045  20.107  0.00  0.00    +0.000 N 
ATOM     16  C   UNL     1       0.105   9.727  20.501  0.00  0.00    +0.000 C 
ATOM     17  O   UNL     1      -0.071   9.351  21.658  0.00  0.00    +0.000 OA
ATOM     18  C   UNL     1      -1.258  11.586  19.421  0.00  0.00    +0.000 C 
ATOM     19  H   UNL     1      -2.281  16.957  21.559  0.00  0.00    +0.000 HD
ENDROOT
BRANCH  16  20
ATOM     20  C   UNL     1       0.748   8.844  19.440  0.00  0.00    +0.000 C 
ATOM     21  C   UNL     1       1.516   9.658  18.399  0.00  0.00    +0.000 C 
ATOM     22  C   UNL     1       2.367   8.623  17.681  0.00  0.00    +0.000 C 
ATOM     23  C   UNL     1       2.654   7.540  18.720  0.00  0.00    +0.000 C 
ATOM     24  C   UNL     1       1.812   7.882  19.951  0.00  0.00    +0.000 C 
ENDBRANCH  16  20
BRANCH   1  26
ATOM     25  C   UNL     1      -7.006  13.169  24.079  0.00  0.00    +0.000 C 
ATOM     26  O   UNL     1      -6.292  14.376  23.838  0.00  0.00    +0.000 OA
ENDBRANCH   1  26
BRANCH  10  27
ATOM     27  C   UNL     1      -0.715  16.703  18.590  0.00  0.00    +0.000 C 
BRANCH  27  28
ATOM     28  O   UNL     1      -1.974  17.357  18.803  0.00  0.00    +0.000 OA
ATOM     29  H   UNL     1      -2.637  16.649  18.889  0.00  0.00    +0.000 HD
ENDBRANCH  27  28
ENDBRANCH  10  27
BRANCH  11  30
ATOM     30  C   UNL     1       1.991  15.353  18.956  0.00  0.00    +0.000 C 
BRANCH  30  31
ATOM     31  C   UNL     1       3.270  15.245  19.747  0.00  0.00    +0.000 A 
ATOM     32  C   UNL     1       3.344  14.441  20.895  0.00  0.00    +0.000 A 
ATOM     33  C   UNL     1       4.525  14.376  21.639  0.00  0.00    +0.000 A 
ATOM     34  C   UNL     1       5.647  15.104  21.239  0.00  0.00    +0.000 A 
ATOM     35  C   UNL     1       5.595  15.877  20.082  0.00  0.00    +0.000 A 
ATOM     36  C   UNL     1       4.417  15.936  19.345  0.00  0.00    +0.000 A 
ATOM     37  F   UNL     1       4.394  16.680  18.229  0.00  0.00    +0.000 F 
ENDBRANCH  30  31
ENDBRANCH  11  30
TORSDOF 6
ENDMDL
MODEL 8
REMARK VINA RESULT:      -6.6      3.520      5.518
REMARK  Name = 
REMARK  7 active torsions:
REMARK  status: ('A' for Active; 'I' for Inactive)
REMARK    1  A    between atoms: C_1  and  O_2
REMARK    2  A    between atoms: O_2  and  C_3
REMARK    3  A    between atoms: C_12  and  C_13
REMARK    4  A    between atoms: C_13  and  O_14
REMARK    5  A    between atoms: N_15  and  C_16
REMARK    6  A    between atoms: C_16  and  C_17
REMARK    7  A    between atoms: C_28  and  C_30
REMARK                            x       y       z     vdW  Elec       q    Type
REMARK                         _______ _______ _______ _____ _____    ______ ____
ROOT
ATOM      1  C   UNL     1       0.727   9.935  17.968  0.00  0.00    +0.000 A 
ATOM      2  C   UNL     1       1.095  11.043  18.732  0.00  0.00    +0.000 A 
ATOM      3  C   UNL     1       0.136  11.916  19.270  0.00  0.00    +0.000 A 
ATOM      4  C   UNL     1      -1.231  11.682  19.023  0.00  0.00    +0.000 A 
ATOM      5  C   UNL     1      -2.458  12.279  19.418  0.00  0.00    +0.000 A 
ATOM      6  C   UNL     1      -3.494  11.587  18.823  0.00  0.00    +0.000 A 
ATOM      7  N   UNL     1      -2.947  10.535  18.145  0.00  0.00    +0.000 N 
ATOM      8  C   UNL     1      -1.574  10.576  18.233  0.00  0.00    +0.000 A 
ATOM      9  C   UNL     1      -0.621   9.689  17.702  0.00  0.00    +0.000 A 
ATOM     10  C   UNL     1      -4.980  11.837  18.945  0.00  0.00    +0.000 C 
ATOM     11  N   UNL     1      -5.217  12.582  20.210  0.00  0.00    +0.000 NA
ATOM     12  C   UNL     1      -4.317  13.754  20.341  0.00  0.00    +0.000 C 
ATOM     13  C   UNL     1      -2.822  13.341  20.455  0.00  0.00    +0.000 C 
ATOM     14  C   UNL     1      -2.394  12.849  21.871  0.00  0.00    +0.000 C 
ATOM     15  N   UNL     1      -2.226  14.278  22.202  0.00  0.00    +0.000 N 
ATOM     16  C   UNL     1      -1.455  14.659  23.287  0.00  0.00    +0.000 C 
ATOM     17  O   UNL     1      -0.714  13.881  23.884  0.00  0.00    +0.000 OA
ATOM     18  C   UNL     1      -1.875  14.531  20.779  0.00  0.00    +0.000 C 
ATOM     19  H   UNL     1      -3.469   9.812  17.671  0.00  0.00    +0.000 HD
ENDROOT
BRANCH  16  20
ATOM     20  C   UNL     1      -1.788  16.046  23.818  0.00  0.00    +0.000 C 
ATOM     21  C   UNL     1      -3.287  16.341  23.766  0.00  0.00    +0.000 C 
ATOM     22  C   UNL     1      -3.451  17.562  24.655  0.00  0.00    +0.000 C 
ATOM     23  C   UNL     1      -2.346  17.453  25.705  0.00  0.00    +0.000 C 
ATOM     24  C   UNL     1      -1.462  16.276  25.288  0.00  0.00    +0.000 C 
ENDBRANCH  16  20
BRANCH   1  26
ATOM     25  C   UNL     1       2.243   8.161  18.436  0.00  0.00    +0.000 C 
ATOM     26  O   UNL     1       1.775   9.161  17.541  0.00  0.00    +0.000 OA
ENDBRANCH   1  26
BRANCH  10  27
ATOM     27  C   UNL     1      -5.500  12.496  17.634  0.00  0.00    +0.000 C 
BRANCH  27  28
ATOM     28  O   UNL     1      -6.555  11.723  17.045  0.00  0.00    +0.000 OA
ATOM     29  H   UNL     1      -7.288  12.342  16.884  0.00  0.00    +0.000 HD
ENDBRANCH  27  28
ENDBRANCH  10  27
BRANCH  11  30
ATOM     30  C   UNL     1      -6.616  12.992  20.425  0.00  0.00    +0.000 C 
BRANCH  30  31
ATOM     31  C   UNL     1      -6.789  14.049  21.487  0.00  0.00    +0.000 A 
ATOM     32  C   UNL     1      -7.039  15.386  21.143  0.00  0.00    +0.000 A 
ATOM     33  C   UNL     1      -7.163  16.361  22.135  0.00  0.00    +0.000 A 
ATOM     34  C   UNL     1      -7.049  16.011  23.481  0.00  0.00    +0.000 A 
ATOM     35  C   UNL     1      -6.835  14.681  23.835  0.00  0.00    +0.000 A 
ATOM     36  C   UNL     1      -6.715  13.715  22.843  0.00  0.00    +0.000 A 
ATOM     37  F   UNL     1      -6.519  12.439  23.208  0.00  0.00    +0.000 F 
ENDBRANCH  30  31
ENDBRANCH  11  30
TORSDOF 6
ENDMDL
MODEL 9
REMARK VINA RESULT:      -6.5      3.382      7.602
REMARK  Name = 
REMARK  7 active torsions:
REMARK  status: ('A' for Active; 'I' for Inactive)
REMARK    1  A    between atoms: C_1  and  O_2
REMARK    2  A    between atoms: O_2  and  C_3
REMARK    3  A    between atoms: C_12  and  C_13
REMARK    4  A    between atoms: C_13  and  O_14
REMARK    5  A    between atoms: N_15  and  C_16
REMARK    6  A    between atoms: C_16  and  C_17
REMARK    7  A    between atoms: C_28  and  C_30
REMARK                            x       y       z     vdW  Elec       q    Type
REMARK                         _______ _______ _______ _____ _____    ______ ____
ROOT
ATOM      1  C   UNL     1       3.280  16.942  19.895  0.00  0.00    +0.000 A 
ATOM      2  C   UNL     1       3.770  15.637  19.856  0.00  0.00    +0.000 A 
ATOM      3  C   UNL     1       2.927  14.530  20.045  0.00  0.00    +0.000 A 
ATOM      4  C   UNL     1       1.555  14.737  20.296  0.00  0.00    +0.000 A 
ATOM      5  C   UNL     1       0.414  13.912  20.479  0.00  0.00    +0.000 A 
ATOM      6  C   UNL     1      -0.680  14.722  20.707  0.00  0.00    +0.000 A 
ATOM      7  N   UNL     1      -0.263  16.017  20.586  0.00  0.00    +0.000 N 
ATOM      8  C   UNL     1       1.093  16.059  20.353  0.00  0.00    +0.000 A 
ATOM      9  C   UNL     1       1.928  17.172  20.152  0.00  0.00    +0.000 A 
ATOM     10  C   UNL     1      -2.116  14.312  20.950  0.00  0.00    +0.000 C 
ATOM     11  N   UNL     1      -2.306  12.952  20.379  0.00  0.00    +0.000 NA
ATOM     12  C   UNL     1      -1.247  12.012  20.818  0.00  0.00    +0.000 C 
ATOM     13  C   UNL     1       0.159  12.417  20.290  0.00  0.00    +0.000 C 
ATOM     14  C   UNL     1       0.426  12.031  18.803  0.00  0.00    +0.000 C 
ATOM     15  N   UNL     1       0.792  10.699  19.325  0.00  0.00    +0.000 N 
ATOM     16  C   UNL     1       1.550   9.830  18.558  0.00  0.00    +0.000 C 
ATOM     17  O   UNL     1       2.129  10.180  17.532  0.00  0.00    +0.000 OA
ATOM     18  C   UNL     1       1.257  11.354  20.576  0.00  0.00    +0.000 C 
ATOM     19  H   UNL     1      -0.863  16.829  20.629  0.00  0.00    +0.000 HD
ENDROOT
BRANCH  16  20
ATOM     20  C   UNL     1       1.403   8.369  18.960  0.00  0.00    +0.000 C 
ATOM     21  C   UNL     1       2.484   7.487  18.339  0.00  0.00    +0.000 C 
ATOM     22  C   UNL     1       2.400   6.193  19.131  0.00  0.00    +0.000 C 
ATOM     23  C   UNL     1       1.921   6.598  20.524  0.00  0.00    +0.000 C 
ATOM     24  C   UNL     1       1.564   8.084  20.447  0.00  0.00    +0.000 C 
ENDBRANCH  16  20
BRANCH   1  26
ATOM     25  C   UNL     1       5.176  18.144  20.689  0.00  0.00    +0.000 C 
ATOM     26  O   UNL     1       4.220  17.913  19.662  0.00  0.00    +0.000 OA
ENDBRANCH   1  26
BRANCH  10  27
ATOM     27  C   UNL     1      -2.455  14.494  22.458  0.00  0.00    +0.000 C 
BRANCH  27  28
ATOM     28  O   UNL     1      -1.318  14.967  23.194  0.00  0.00    +0.000 OA
ATOM     29  H   UNL     1      -1.653  15.649  23.802  0.00  0.00    +0.000 HD
ENDBRANCH  27  28
ENDBRANCH  10  27
BRANCH  11  30
ATOM     30  C   UNL     1      -3.636  12.367  20.625  0.00  0.00    +0.000 C 
BRANCH  30  31
ATOM     31  C   UNL     1      -4.569  12.445  19.442  0.00  0.00    +0.000 A 
ATOM     32  C   UNL     1      -5.664  13.322  19.441  0.00  0.00    +0.000 A 
ATOM     33  C   UNL     1      -6.540  13.360  18.354  0.00  0.00    +0.000 A 
ATOM     34  C   UNL     1      -6.327  12.530  17.253  0.00  0.00    +0.000 A 
ATOM     35  C   UNL     1      -5.224  11.680  17.229  0.00  0.00    +0.000 A 
ATOM     36  C   UNL     1      -4.354  11.649  18.313  0.00  0.00    +0.000 A 
ATOM     37  F   UNL     1      -3.294  10.829  18.263  0.00  0.00    +0.000 F 
ENDBRANCH  30  31
ENDBRANCH  11  30
TORSDOF 6
ENDMDL
