MODEL 1
REMARK VINA RESULT:      -7.1      0.000      0.000
REMARK  Name = 
REMARK  5 active torsions:
REMARK  status: ('A' for Active; 'I' for Inactive)
REMARK    1  A    between atoms: C_1  and  C_2
REMARK    2  A    between atoms: C_5  and  N_6
REMARK    3  A    between atoms: N_9  and  C_10
REMARK    4  A    between atoms: N_9  and  C_11
REMARK    5  A    between atoms: C_15  and  C_16
REMARK                            x       y       z     vdW  Elec       q    Type
REMARK                         _______ _______ _______ _____ _____    ______ ____
ROOT
ATOM      1  C   UNL     1      -0.186   9.225  21.782  0.00  0.00    +0.000 C 
ATOM      2  C   UNL     1       0.706   8.743  20.673  0.00  0.00    +0.000 A 
ATOM      3  C   UNL     1       1.293   7.490  20.836  0.00  0.00    +0.000 A 
ATOM      4  C   UNL     1       2.167   6.961  19.876  0.00  0.00    +0.000 A 
ATOM      5  C   UNL     1       2.767   5.701  20.028  0.00  0.00    +0.000 A 
ATOM      6  C   UNL     1       3.689   5.297  19.072  0.00  0.00    +0.000 A 
ATOM      7  C   UNL     1       3.930   6.060  17.941  0.00  0.00    +0.000 A 
ATOM      8  N   UNL     1       4.797   5.628  16.952  0.00  0.00    +0.000 N 
ATOM      9  C   UNL     1       5.518   4.362  16.952  0.00  0.00    +0.000 C 
ATOM     10  C   UNL     1       5.054   6.482  15.797  0.00  0.00    +0.000 C 
ATOM     11  N   UNL     1       3.293   7.253  17.804  0.00  0.00    +0.000 NA
ATOM     12  C   UNL     1       2.445   7.724  18.738  0.00  0.00    +0.000 A 
ATOM     13  N   UNL     1       1.878   8.940  18.576  0.00  0.00    +0.000 NA
ATOM     14  C   UNL     1       1.020   9.457  19.508  0.00  0.00    +0.000 A 
ENDROOT
BRANCH  14  15
ATOM     15  C   UNL     1       0.540  10.849  19.256  0.00  0.00    +0.000 A 
ATOM     16  C   UNL     1       1.346  11.982  19.483  0.00  0.00    +0.000 A 
ATOM     17  C   UNL     1       0.983  13.257  19.034  0.00  0.00    +0.000 A 
ATOM     18  C   UNL     1      -0.247  13.449  18.423  0.00  0.00    +0.000 A 
ATOM     19  C   UNL     1      -1.121  12.373  18.292  0.00  0.00    +0.000 A 
ATOM     20  C   UNL     1      -0.729  11.088  18.701  0.00  0.00    +0.000 A 
ENDBRANCH  14  15
BRANCH   5  21
ATOM     21  N   UNL     1       2.651   4.930  21.208  0.00  0.00    +0.000 N 
ATOM     22  H   UNL     1       3.536   4.656  21.615  0.00  0.00    +0.000 HD
ATOM     23  H   UNL     1       2.039   5.339  21.903  0.00  0.00    +0.000 HD
ENDBRANCH   5  21
TORSDOF 2
ENDMDL
MODEL 2
REMARK VINA RESULT:      -7.0      0.308      1.085
REMARK  Name = 
REMARK  5 active torsions:
REMARK  status: ('A' for Active; 'I' for Inactive)
REMARK    1  A    between atoms: C_1  and  C_2
REMARK    2  A    between atoms: C_5  and  N_6
REMARK    3  A    between atoms: N_9  and  C_10
REMARK    4  A    between atoms: N_9  and  C_11
REMARK    5  A    between atoms: C_15  and  C_16
REMARK                            x       y       z     vdW  Elec       q    Type
REMARK                         _______ _______ _______ _____ _____    ______ ____
ROOT
ATOM      1  C   UNL     1      -0.104   9.521  21.422  0.00  0.00    +0.000 C 
ATOM      2  C   UNL     1       0.795   8.951  20.362  0.00  0.00    +0.000 A 
ATOM      3  C   UNL     1       1.345   7.695  20.609  0.00  0.00    +0.000 A 
ATOM      4  C   UNL     1       2.221   7.088  19.699  0.00  0.00    +0.000 A 
ATOM      5  C   UNL     1       2.784   5.824  19.936  0.00  0.00    +0.000 A 
ATOM      6  C   UNL     1       3.712   5.341  19.024  0.00  0.00    +0.000 A 
ATOM      7  C   UNL     1       3.994   6.029  17.855  0.00  0.00    +0.000 A 
ATOM      8  N   UNL     1       4.868   5.517  16.911  0.00  0.00    +0.000 N 
ATOM      9  C   UNL     1       5.553   4.235  16.999  0.00  0.00    +0.000 C 
ATOM     10  C   UNL     1       5.168   6.295  15.713  0.00  0.00    +0.000 C 
ATOM     11  N   UNL     1       3.393   7.228  17.637  0.00  0.00    +0.000 NA
ATOM     12  C   UNL     1       2.541   7.775  18.524  0.00  0.00    +0.000 A 
ATOM     13  N   UNL     1       2.010   8.993  18.280  0.00  0.00    +0.000 NA
ATOM     14  C   UNL     1       1.149   9.587  19.163  0.00  0.00    +0.000 A 
ENDROOT
BRANCH  14  15
ATOM     15  C   UNL     1       0.712  10.974  18.821  0.00  0.00    +0.000 A 
ATOM     16  C   UNL     1      -0.611  11.279  18.443  0.00  0.00    +0.000 A 
ATOM     17  C   UNL     1      -1.072  12.597  18.348  0.00  0.00    +0.000 A 
ATOM     18  C   UNL     1      -0.193  13.653  18.539  0.00  0.00    +0.000 A 
ATOM     19  C   UNL     1       1.150  13.385  18.793  0.00  0.00    +0.000 A 
ATOM     20  C   UNL     1       1.595  12.061  18.935  0.00  0.00    +0.000 A 
ENDBRANCH  14  15
BRANCH   5  21
ATOM     21  N   UNL     1       2.625   5.126  21.157  0.00  0.00    +0.000 N 
ATOM     22  H   UNL     1       3.379   4.486  21.372  0.00  0.00    +0.000 HD
ATOM     23  H   UNL     1       2.419   5.728  21.945  0.00  0.00    +0.000 HD
ENDBRANCH   5  21
TORSDOF 2
ENDMDL
MODEL 3
REMARK VINA RESULT:      -6.8      2.168      7.298
REMARK  Name = 
REMARK  5 active torsions:
REMARK  status: ('A' for Active; 'I' for Inactive)
REMARK    1  A    between atoms: C_1  and  C_2
REMARK    2  A    between atoms: C_5  and  N_6
REMARK    3  A    between atoms: N_9  and  C_10
REMARK    4  A    between atoms: N_9  and  C_11
REMARK    5  A    between atoms: C_15  and  C_16
REMARK                            x       y       z     vdW  Elec       q    Type
REMARK                         _______ _______ _______ _____ _____    ______ ____
ROOT
ATOM      1  C   UNL     1       3.591   6.089  17.388  0.00  0.00    +0.000 C 
ATOM      2  C   UNL     1       2.761   6.816  18.407  0.00  0.00    +0.000 A 
ATOM      3  C   UNL     1       2.507   8.164  18.167  0.00  0.00    +0.000 A 
ATOM      4  C   UNL     1       1.770   8.942  19.071  0.00  0.00    +0.000 A 
ATOM      5  C   UNL     1       1.508  10.302  18.843  0.00  0.00    +0.000 A 
ATOM      6  C   UNL     1       0.849  11.015  19.835  0.00  0.00    +0.000 A 
ATOM      7  C   UNL     1       0.363  10.385  20.969  0.00  0.00    +0.000 A 
ATOM      8  N   UNL     1      -0.354  11.080  21.928  0.00  0.00    +0.000 N 
ATOM      9  C   UNL     1      -0.703  12.493  21.865  0.00  0.00    +0.000 C 
ATOM     10  C   UNL     1      -0.812  10.386  23.127  0.00  0.00    +0.000 C 
ATOM     11  N   UNL     1       0.594   9.056  21.133  0.00  0.00    +0.000 NA
ATOM     12  C   UNL     1       1.291   8.334  20.235  0.00  0.00    +0.000 A 
ATOM     13  N   UNL     1       1.536   7.026  20.472  0.00  0.00    +0.000 NA
ATOM     14  C   UNL     1       2.249   6.262  19.589  0.00  0.00    +0.000 A 
ENDROOT
BRANCH  14  15
ATOM     15  C   UNL     1       2.532   4.858  20.016  0.00  0.00    +0.000 A 
ATOM     16  C   UNL     1       3.665   4.147  19.576  0.00  0.00    +0.000 A 
ATOM     17  C   UNL     1       4.049   2.929  20.150  0.00  0.00    +0.000 A 
ATOM     18  C   UNL     1       3.252   2.342  21.122  0.00  0.00    +0.000 A 
ATOM     19  C   UNL     1       2.060   2.960  21.492  0.00  0.00    +0.000 A 
ATOM     20  C   UNL     1       1.707   4.204  20.947  0.00  0.00    +0.000 A 
ENDBRANCH  14  15
BRANCH   5  21
ATOM     21  N   UNL     1       2.072  11.026  17.766  0.00  0.00    +0.000 N 
ATOM     22  H   UNL     1       1.691  11.956  17.645  0.00  0.00    +0.000 HD
ATOM     23  H   UNL     1       3.085  11.042  17.774  0.00  0.00    +0.000 HD
ENDBRANCH   5  21
TORSDOF 2
ENDMDL
MODEL 4
REMARK VINA RESULT:      -6.8      1.833      6.503
REMARK  Name = 
REMARK  5 active torsions:
REMARK  status: ('A' for Active; 'I' for Inactive)
REMARK    1  A    between atoms: C_1  and  C_2
REMARK    2  A    between atoms: C_5  and  N_6
REMARK    3  A    between atoms: N_9  and  C_10
REMARK    4  A    between atoms: N_9  and  C_11
REMARK    5  A    between atoms: C_15  and  C_16
REMARK                            x       y       z     vdW  Elec       q    Type
REMARK                         _______ _______ _______ _____ _____    ______ ____
ROOT
ATOM      1  C   UNL     1       2.030   5.116  20.918  0.00  0.00    +0.000 C 
ATOM      2  C   UNL     1       1.822   6.532  20.462  0.00  0.00    +0.000 A 
ATOM      3  C   UNL     1       1.069   7.358  21.294  0.00  0.00    +0.000 A 
ATOM      4  C   UNL     1       0.789   8.687  20.947  0.00  0.00    +0.000 A 
ATOM      5  C   UNL     1       0.031   9.529  21.774  0.00  0.00    +0.000 A 
ATOM      6  C   UNL     1      -0.274  10.801  21.308  0.00  0.00    +0.000 A 
ATOM      7  C   UNL     1       0.247  11.270  20.113  0.00  0.00    +0.000 A 
ATOM      8  N   UNL     1       0.001  12.561  19.678  0.00  0.00    +0.000 N 
ATOM      9  C   UNL     1      -0.776  13.563  20.395  0.00  0.00    +0.000 C 
ATOM     10  C   UNL     1       0.534  13.001  18.392  0.00  0.00    +0.000 C 
ATOM     11  N   UNL     1       1.017  10.441  19.361  0.00  0.00    +0.000 NA
ATOM     12  C   UNL     1       1.282   9.175  19.733  0.00  0.00    +0.000 A 
ATOM     13  N   UNL     1       2.012   8.377  18.923  0.00  0.00    +0.000 NA
ATOM     14  C   UNL     1       2.293   7.081  19.261  0.00  0.00    +0.000 A 
ENDROOT
BRANCH  14  15
ATOM     15  C   UNL     1       3.025   6.279  18.235  0.00  0.00    +0.000 A 
ATOM     16  C   UNL     1       4.201   6.740  17.611  0.00  0.00    +0.000 A 
ATOM     17  C   UNL     1       5.006   5.904  16.829  0.00  0.00    +0.000 A 
ATOM     18  C   UNL     1       4.605   4.600  16.574  0.00  0.00    +0.000 A 
ATOM     19  C   UNL     1       3.386   4.151  17.075  0.00  0.00    +0.000 A 
ATOM     20  C   UNL     1       2.609   4.980  17.898  0.00  0.00    +0.000 A 
ENDBRANCH  14  15
BRANCH   5  21
ATOM     21  N   UNL     1      -0.621   9.076  22.946  0.00  0.00    +0.000 N 
ATOM     22  H   UNL     1      -1.380   8.429  22.776  0.00  0.00    +0.000 HD
ATOM     23  H   UNL     1       0.012   8.723  23.652  0.00  0.00    +0.000 HD
ENDBRANCH   5  21
TORSDOF 2
ENDMDL
MODEL 5
REMARK VINA RESULT:      -6.8      1.831      3.562
REMARK  Name = 
REMARK  5 active torsions:
REMARK  status: ('A' for Active; 'I' for Inactive)
REMARK    1  A    between atoms: C_1  and  C_2
REMARK    2  A    between atoms: C_5  and  N_6
REMARK    3  A    between atoms: N_9  and  C_10
REMARK    4  A    between atoms: N_9  and  C_11
REMARK    5  A    between atoms: C_15  and  C_16
REMARK                            x       y       z     vdW  Elec       q    Type
REMARK                         _______ _______ _______ _____ _____    ______ ____
ROOT
ATOM      1  C   UNL     1       1.655  10.322  18.268  0.00  0.00    +0.000 C 
ATOM      2  C   UNL     1       1.872   8.974  18.894  0.00  0.00    +0.000 A 
ATOM      3  C   UNL     1       2.667   8.072  18.191  0.00  0.00    +0.000 A 
ATOM      4  C   UNL     1       2.906   6.778  18.671  0.00  0.00    +0.000 A 
ATOM      5  C   UNL     1       3.704   5.859  17.972  0.00  0.00    +0.000 A 
ATOM      6  C   UNL     1       3.811   4.570  18.478  0.00  0.00    +0.000 A 
ATOM      7  C   UNL     1       3.242   4.227  19.693  0.00  0.00    +0.000 A 
ATOM      8  N   UNL     1       3.404   2.962  20.233  0.00  0.00    +0.000 N 
ATOM      9  C   UNL     1       4.181   1.882  19.640  0.00  0.00    +0.000 C 
ATOM     10  C   UNL     1       2.753   2.630  21.496  0.00  0.00    +0.000 C 
ATOM     11  N   UNL     1       2.516   5.158  20.366  0.00  0.00    +0.000 NA
ATOM     12  C   UNL     1       2.322   6.400  19.884  0.00  0.00    +0.000 A 
ATOM     13  N   UNL     1       1.548   7.271  20.570  0.00  0.00    +0.000 NA
ATOM     14  C   UNL     1       1.318   8.538  20.107  0.00  0.00    +0.000 A 
ENDROOT
BRANCH  14  15
ATOM     15  C   UNL     1       0.368   9.367  20.909  0.00  0.00    +0.000 A 
ATOM     16  C   UNL     1       0.154   9.154  22.285  0.00  0.00    +0.000 A 
ATOM     17  C   UNL     1      -0.552  10.066  23.078  0.00  0.00    +0.000 A 
ATOM     18  C   UNL     1      -1.145  11.176  22.494  0.00  0.00    +0.000 A 
ATOM     19  C   UNL     1      -1.056  11.350  21.115  0.00  0.00    +0.000 A 
ATOM     20  C   UNL     1      -0.305  10.458  20.334  0.00  0.00    +0.000 A 
ENDBRANCH  14  15
BRANCH   5  21
ATOM     21  N   UNL     1       4.215   6.110  16.677  0.00  0.00    +0.000 N 
ATOM     22  H   UNL     1       3.597   5.831  15.925  0.00  0.00    +0.000 HD
ATOM     23  H   UNL     1       4.547   7.058  16.548  0.00  0.00    +0.000 HD
ENDBRANCH   5  21
TORSDOF 2
ENDMDL
MODEL 6
REMARK VINA RESULT:      -6.8      2.152      7.322
REMARK  Name = 
REMARK  5 active torsions:
REMARK  status: ('A' for Active; 'I' for Inactive)
REMARK    1  A    between atoms: C_1  and  C_2
REMARK    2  A    between atoms: C_5  and  N_6
REMARK    3  A    between atoms: N_9  and  C_10
REMARK    4  A    between atoms: N_9  and  C_11
REMARK    5  A    between atoms: C_15  and  C_16
REMARK                            x       y       z     vdW  Elec       q    Type
REMARK                         _______ _______ _______ _____ _____    ______ ____
ROOT
ATOM      1  C   UNL     1       3.573   6.365  17.431  0.00  0.00    +0.000 C 
ATOM      2  C   UNL     1       2.730   7.100  18.434  0.00  0.00    +0.000 A 
ATOM      3  C   UNL     1       2.469   8.444  18.176  0.00  0.00    +0.000 A 
ATOM      4  C   UNL     1       1.721   9.229  19.063  0.00  0.00    +0.000 A 
ATOM      5  C   UNL     1       1.452  10.584  18.816  0.00  0.00    +0.000 A 
ATOM      6  C   UNL     1       0.781  11.305  19.793  0.00  0.00    +0.000 A 
ATOM      7  C   UNL     1       0.289  10.687  20.931  0.00  0.00    +0.000 A 
ATOM      8  N   UNL     1      -0.440  11.389  21.876  0.00  0.00    +0.000 N 
ATOM      9  C   UNL     1      -0.797  12.799  21.792  0.00  0.00    +0.000 C 
ATOM     10  C   UNL     1      -0.903  10.707  23.080  0.00  0.00    +0.000 C 
ATOM     11  N   UNL     1       0.527   9.361  21.114  0.00  0.00    +0.000 NA
ATOM     12  C   UNL     1       1.235   8.632  20.231  0.00  0.00    +0.000 A 
ATOM     13  N   UNL     1       1.486   7.329  20.487  0.00  0.00    +0.000 NA
ATOM     14  C   UNL     1       2.212   6.558  19.619  0.00  0.00    +0.000 A 
ENDROOT
BRANCH  14  15
ATOM     15  C   UNL     1       2.499   5.162  20.066  0.00  0.00    +0.000 A 
ATOM     16  C   UNL     1       1.562   4.385  20.775  0.00  0.00    +0.000 A 
ATOM     17  C   UNL     1       1.741   3.014  20.989  0.00  0.00    +0.000 A 
ATOM     18  C   UNL     1       2.914   2.398  20.578  0.00  0.00    +0.000 A 
ATOM     19  C   UNL     1       3.915   3.163  19.983  0.00  0.00    +0.000 A 
ATOM     20  C   UNL     1       3.707   4.527  19.728  0.00  0.00    +0.000 A 
ENDBRANCH  14  15
BRANCH   5  21
ATOM     21  N   UNL     1       2.021  11.297  17.734  0.00  0.00    +0.000 N 
ATOM     22  H   UNL     1       2.313  12.238  17.965  0.00  0.00    +0.000 HD
ATOM     23  H   UNL     1       2.756  10.791  17.255  0.00  0.00    +0.000 HD
ENDBRANCH   5  21
TORSDOF 2
ENDMDL
MODEL 7
REMARK VINA RESULT:      -6.5      1.795      3.590
REMARK  Name = 
REMARK  5 active torsions:
REMARK  status: ('A' for Active; 'I' for Inactive)
REMARK    1  A    between atoms: C_1  and  C_2
REMARK    2  A    between atoms: C_5  and  N_6
REMARK    3  A    between atoms: N_9  and  C_10
REMARK    4  A    between atoms: N_9  and  C_11
REMARK    5  A    between atoms: C_15  and  C_16
REMARK                            x       y       z     vdW  Elec       q    Type
REMARK                         _______ _______ _______ _____ _____    ______ ____
ROOT
ATOM      1  C   UNL     1       2.067  10.247  17.835  0.00  0.00    +0.000 C 
ATOM      2  C   UNL     1       2.205   8.927  18.538  0.00  0.00    +0.000 A 
ATOM      3  C   UNL     1       2.938   7.939  17.885  0.00  0.00    +0.000 A 
ATOM      4  C   UNL     1       3.101   6.661  18.438  0.00  0.00    +0.000 A 
ATOM      5  C   UNL     1       3.835   5.656  17.791  0.00  0.00    +0.000 A 
ATOM      6  C   UNL     1       3.866   4.394  18.370  0.00  0.00    +0.000 A 
ATOM      7  C   UNL     1       3.288   4.158  19.606  0.00  0.00    +0.000 A 
ATOM      8  N   UNL     1       3.376   2.919  20.217  0.00  0.00    +0.000 N 
ATOM      9  C   UNL     1       4.080   1.760  19.685  0.00  0.00    +0.000 C 
ATOM     10  C   UNL     1       2.716   2.702  21.501  0.00  0.00    +0.000 C 
ATOM     11  N   UNL     1       2.626   5.170  20.226  0.00  0.00    +0.000 NA
ATOM     12  C   UNL     1       2.504   6.391  19.674  0.00  0.00    +0.000 A 
ATOM     13  N   UNL     1       1.792   7.347  20.311  0.00  0.00    +0.000 NA
ATOM     14  C   UNL     1       1.636   8.597  19.776  0.00  0.00    +0.000 A 
ENDROOT
BRANCH  14  15
ATOM     15  C   UNL     1       0.746   9.528  20.533  0.00  0.00    +0.000 A 
ATOM     16  C   UNL     1      -0.139  10.418  19.894  0.00  0.00    +0.000 A 
ATOM     17  C   UNL     1      -1.127  11.118  20.595  0.00  0.00    +0.000 A 
ATOM     18  C   UNL     1      -1.199  11.015  21.977  0.00  0.00    +0.000 A 
ATOM     19  C   UNL     1      -0.261  10.238  22.652  0.00  0.00    +0.000 A 
ATOM     20  C   UNL     1       0.697   9.502  21.938  0.00  0.00    +0.000 A 
ENDBRANCH  14  15
BRANCH   5  21
ATOM     21  N   UNL     1       4.349   5.800  16.480  0.00  0.00    +0.000 N 
ATOM     22  H   UNL     1       3.662   6.076  15.791  0.00  0.00    +0.000 HD
ATOM     23  H   UNL     1       5.175   6.384  16.430  0.00  0.00    +0.000 HD
ENDBRANCH   5  21
TORSDOF 2
ENDMDL
MODEL 8
REMARK VINA RESULT:      -6.5      1.738      6.517
REMARK  Name = 
REMARK  5 active torsions:
REMARK  status: ('A' for Active; 'I' for Inactive)
REMARK    1  A    between atoms: C_1  and  C_2
REMARK    2  A    between atoms: C_5  and  N_6
REMARK    3  A    between atoms: N_9  and  C_10
REMARK    4  A    between atoms: N_9  and  C_11
REMARK    5  A    between atoms: C_15  and  C_16
REMARK                            x       y       z     vdW  Elec       q    Type
REMARK                         _______ _______ _______ _____ _____    ______ ____
ROOT
ATOM      1  C   UNL     1       2.110   4.902  20.895  0.00  0.00    +0.000 C 
ATOM      2  C   UNL     1       1.929   6.322  20.440  0.00  0.00    +0.000 A 
ATOM      3  C   UNL     1       1.112   7.136  21.221  0.00  0.00    +0.000 A 
ATOM      4  C   UNL     1       0.851   8.466  20.868  0.00  0.00    +0.000 A 
ATOM      5  C   UNL     1       0.029   9.297  21.645  0.00  0.00    +0.000 A 
ATOM      6  C   UNL     1      -0.247  10.572  21.170  0.00  0.00    +0.000 A 
ATOM      7  C   UNL     1       0.358  11.056  20.022  0.00  0.00    +0.000 A 
ATOM      8  N   UNL     1       0.138  12.351  19.583  0.00  0.00    +0.000 N 
ATOM      9  C   UNL     1      -0.695  13.341  20.251  0.00  0.00    +0.000 C 
ATOM     10  C   UNL     1       0.763  12.806  18.345  0.00  0.00    +0.000 C 
ATOM     11  N   UNL     1       1.187  10.239  19.321  0.00  0.00    +0.000 NA
ATOM     12  C   UNL     1       1.430   8.970  19.699  0.00  0.00    +0.000 A 
ATOM     13  N   UNL     1       2.223   8.184  18.937  0.00  0.00    +0.000 NA
ATOM     14  C   UNL     1       2.485   6.886  19.282  0.00  0.00    +0.000 A 
ENDROOT
BRANCH  14  15
ATOM     15  C   UNL     1       3.296   6.098  18.305  0.00  0.00    +0.000 A 
ATOM     16  C   UNL     1       3.053   4.736  18.044  0.00  0.00    +0.000 A 
ATOM     17  C   UNL     1       3.654   4.064  16.973  0.00  0.00    +0.000 A 
ATOM     18  C   UNL     1       4.590   4.718  16.186  0.00  0.00    +0.000 A 
ATOM     19  C   UNL     1       4.944   6.029  16.493  0.00  0.00    +0.000 A 
ATOM     20  C   UNL     1       4.302   6.711  17.539  0.00  0.00    +0.000 A 
ENDBRANCH  14  15
BRANCH   5  21
ATOM     21  N   UNL     1      -0.706   8.829  22.760  0.00  0.00    +0.000 N 
ATOM     22  H   UNL     1      -1.659   9.168  22.803  0.00  0.00    +0.000 HD
ATOM     23  H   UNL     1      -0.668   7.824  22.879  0.00  0.00    +0.000 HD
ENDBRANCH   5  21
TORSDOF 2
ENDMDL
MODEL 9
REMARK VINA RESULT:      -6.4      2.049      7.239
REMARK  Name = 
REMARK  5 active torsions:
REMARK  status: ('A' for Active; 'I' for Inactive)
REMARK    1  A    between atoms: C_1  and  C_2
REMARK    2  A    between atoms: C_5  and  N_6
REMARK    3  A    between atoms: N_9  and  C_10
REMARK    4  A    between atoms: N_9  and  C_11
REMARK    5  A    between atoms: C_15  and  C_16
REMARK                            x       y       z     vdW  Elec       q    Type
REMARK                         _______ _______ _______ _____ _____    ______ ____
ROOT
ATOM      1  C   UNL     1       4.269   6.744  16.428  0.00  0.00    +0.000 C 
ATOM      2  C   UNL     1       3.364   7.156  17.555  0.00  0.00    +0.000 A 
ATOM      3  C   UNL     1       2.984   8.495  17.601  0.00  0.00    +0.000 A 
ATOM      4  C   UNL     1       2.168   8.989  18.628  0.00  0.00    +0.000 A 
ATOM      5  C   UNL     1       1.778  10.337  18.687  0.00  0.00    +0.000 A 
ATOM      6  C   UNL     1       1.045  10.756  19.789  0.00  0.00    +0.000 A 
ATOM      7  C   UNL     1       0.612   9.855  20.747  0.00  0.00    +0.000 A 
ATOM      8  N   UNL     1      -0.177  10.259  21.812  0.00  0.00    +0.000 N 
ATOM      9  C   UNL     1      -0.659  11.614  22.042  0.00  0.00    +0.000 C 
ATOM     10  C   UNL     1      -0.576   9.284  22.821  0.00  0.00    +0.000 C 
ATOM     11  N   UNL     1       0.968   8.549  20.631  0.00  0.00    +0.000 NA
ATOM     12  C   UNL     1       1.738   8.104  19.621  0.00  0.00    +0.000 A 
ATOM     13  N   UNL     1       2.106   6.804  19.580  0.00  0.00    +0.000 NA
ATOM     14  C   UNL     1       2.897   6.316  18.576  0.00  0.00    +0.000 A 
ENDROOT
BRANCH  14  15
ATOM     15  C   UNL     1       3.309   4.885  18.702  0.00  0.00    +0.000 A 
ATOM     16  C   UNL     1       4.413   4.480  19.478  0.00  0.00    +0.000 A 
ATOM     17  C   UNL     1       4.657   3.136  19.780  0.00  0.00    +0.000 A 
ATOM     18  C   UNL     1       3.852   2.147  19.233  0.00  0.00    +0.000 A 
ATOM     19  C   UNL     1       2.827   2.507  18.362  0.00  0.00    +0.000 A 
ATOM     20  C   UNL     1       2.557   3.860  18.103  0.00  0.00    +0.000 A 
ENDBRANCH  14  15
BRANCH   5  21
ATOM     21  N   UNL     1       2.280  11.324  17.807  0.00  0.00    +0.000 N 
ATOM     22  H   UNL     1       3.157  11.736  18.100  0.00  0.00    +0.000 HD
ATOM     23  H   UNL     1       2.321  11.023  16.840  0.00  0.00    +0.000 HD
ENDBRANCH   5  21
TORSDOF 2
ENDMDL
