MODEL 1
REMARK VINA RESULT:      -7.8      0.000      0.000
REMARK  Name = 
REMARK  6 active torsions:
REMARK  status: ('A' for Active; 'I' for Inactive)
REMARK    1  A    between atoms: N_1  and  C_2
REMARK    2  A    between atoms: C_2  and  C_3
REMARK    3  A    between atoms: C_2  and  C_19
REMARK    4  A    between atoms: C_3  and  C_4
REMARK    5  A    between atoms: C_13  and  C_14
REMARK    6  A    between atoms: C_19  and  C_20
REMARK                            x       y       z     vdW  Elec       q    Type
REMARK                         _______ _______ _______ _____ _____    ______ ____
ROOT
ATOM      1  C   UNL     1       7.622   8.877  17.774  0.00  0.00    +0.000 C 
ENDROOT
BRANCH   1   2
ATOM      2  C   UNL     1       7.787   7.408  18.163  0.00  0.00    +0.000 C 
ATOM      3  O   UNL     1       8.692   7.097  18.923  0.00  0.00    +0.000 OA
ATOM      4  N   UNL     1       6.939   6.430  17.696  0.00  0.00    +0.000 N 
ATOM      5  C   UNL     1       5.881   6.701  16.732  0.00  0.00    +0.000 C 
ATOM      6  C   UNL     1       4.517   6.531  17.421  0.00  0.00    +0.000 C 
ATOM      7  N   UNL     1       4.518   5.327  18.256  0.00  0.00    +0.000 N 
ATOM      8  C   UNL     1       5.614   4.635  18.607  0.00  0.00    +0.000 A 
ATOM      9  N   UNL     1       5.298   3.563  19.358  0.00  0.00    +0.000 NA
ATOM     10  N   UNL     1       3.979   3.583  19.517  0.00  0.00    +0.000 NA
ATOM     11  C   UNL     1       3.507   4.661  18.853  0.00  0.00    +0.000 A 
ATOM     12  C   UNL     1       7.001   5.056  18.212  0.00  0.00    +0.000 C 
BRANCH  11  13
ATOM     13  C   UNL     1       2.046   5.015  18.797  0.00  0.00    +0.000 C 
ATOM     14  F   UNL     1       1.284   4.214  19.624  0.00  0.00    +0.000 F 
ATOM     15  F   UNL     1       1.887   6.332  19.186  0.00  0.00    +0.000 F 
ATOM     16  F   UNL     1       1.589   4.870  17.501  0.00  0.00    +0.000 F 
ENDBRANCH  11  13
ENDBRANCH   1   2
BRANCH   1  17
ATOM     17  C   UNL     1       8.798   9.802  18.191  0.00  0.00    +0.000 C 
BRANCH  17  18
ATOM     18  N   UNL     1       9.028   9.772  19.643  0.00  0.00    +0.000 NA
ATOM     19  H   UNL     1       9.234  10.715  20.035  0.00  0.00    +0.000 HD
ATOM     20  H   UNL     1       9.829   9.139  19.873  0.00  0.00    +0.000 HD
ENDBRANCH  17  18
BRANCH  17  21
ATOM     21  C   UNL     1       8.527  11.266  17.778  0.00  0.00    +0.000 C 
BRANCH  21  22
ATOM     22  C   UNL     1       9.507  12.215  18.441  0.00  0.00    +0.000 A 
ATOM     23  C   UNL     1       9.037  13.151  19.380  0.00  0.00    +0.000 A 
ATOM     24  C   UNL     1       9.920  14.042  19.998  0.00  0.00    +0.000 A 
ATOM     25  F   UNL     1       9.452  14.937  20.902  0.00  0.00    +0.000 F 
ATOM     26  C   UNL     1      11.281  14.008  19.686  0.00  0.00    +0.000 A 
ATOM     27  F   UNL     1      12.138  14.873  20.285  0.00  0.00    +0.000 F 
ATOM     28  C   UNL     1      11.762  13.081  18.757  0.00  0.00    +0.000 A 
ATOM     29  C   UNL     1      10.884  12.185  18.136  0.00  0.00    +0.000 A 
ATOM     30  F   UNL     1      11.379  11.299  17.234  0.00  0.00    +0.000 F 
ENDBRANCH  21  22
ENDBRANCH  17  21
ENDBRANCH   1  17
TORSDOF 6
ENDMDL
MODEL 2
REMARK VINA RESULT:      -7.8      5.380      7.961
REMARK  Name = 
REMARK  6 active torsions:
REMARK  status: ('A' for Active; 'I' for Inactive)
REMARK    1  A    between atoms: N_1  and  C_2
REMARK    2  A    between atoms: C_2  and  C_3
REMARK    3  A    between atoms: C_2  and  C_19
REMARK    4  A    between atoms: C_3  and  C_4
REMARK    5  A    between atoms: C_13  and  C_14
REMARK    6  A    between atoms: C_19  and  C_20
REMARK                            x       y       z     vdW  Elec       q    Type
REMARK                         _______ _______ _______ _____ _____    ______ ____
ROOT
ATOM      1  C   UNL     1       1.249   3.459  19.583  0.00  0.00    +0.000 C 
ENDROOT
BRANCH   1   2
ATOM      2  C   UNL     1       1.735   3.648  18.146  0.00  0.00    +0.000 C 
ATOM      3  O   UNL     1       0.952   4.074  17.310  0.00  0.00    +0.000 OA
ATOM      4  N   UNL     1       3.029   3.370  17.771  0.00  0.00    +0.000 N 
ATOM      5  C   UNL     1       4.007   2.793  18.685  0.00  0.00    +0.000 C 
ATOM      6  C   UNL     1       5.092   3.838  18.986  0.00  0.00    +0.000 C 
ATOM      7  N   UNL     1       5.491   4.525  17.755  0.00  0.00    +0.000 N 
ATOM      8  C   UNL     1       4.821   4.471  16.592  0.00  0.00    +0.000 A 
ATOM      9  N   UNL     1       5.442   5.183  15.633  0.00  0.00    +0.000 NA
ATOM     10  N   UNL     1       6.515   5.728  16.197  0.00  0.00    +0.000 NA
ATOM     11  C   UNL     1       6.539   5.333  17.489  0.00  0.00    +0.000 A 
ATOM     12  C   UNL     1       3.529   3.720  16.435  0.00  0.00    +0.000 C 
BRANCH  11  13
ATOM     13  C   UNL     1       7.617   5.746  18.454  0.00  0.00    +0.000 C 
ATOM     14  F   UNL     1       8.581   4.770  18.606  0.00  0.00    +0.000 F 
ATOM     15  F   UNL     1       8.222   6.897  17.986  0.00  0.00    +0.000 F 
ATOM     16  F   UNL     1       7.052   6.004  19.688  0.00  0.00    +0.000 F 
ENDBRANCH  11  13
ENDBRANCH   1   2
BRANCH   1  17
ATOM     17  C   UNL     1       2.064   4.229  20.658  0.00  0.00    +0.000 C 
BRANCH  17  18
ATOM     18  N   UNL     1       2.326   3.399  21.843  0.00  0.00    +0.000 NA
ATOM     19  H   UNL     1       3.114   2.735  21.699  0.00  0.00    +0.000 HD
ATOM     20  H   UNL     1       1.474   2.848  22.099  0.00  0.00    +0.000 HD
ENDBRANCH  17  18
BRANCH  17  21
ATOM     21  C   UNL     1       1.315   5.500  21.118  0.00  0.00    +0.000 C 
BRANCH  21  22
ATOM     22  C   UNL     1       1.621   6.677  20.211  0.00  0.00    +0.000 A 
ATOM     23  C   UNL     1       2.531   6.515  19.151  0.00  0.00    +0.000 A 
ATOM     24  C   UNL     1       2.836   7.587  18.306  0.00  0.00    +0.000 A 
ATOM     25  F   UNL     1       3.714   7.415  17.289  0.00  0.00    +0.000 F 
ATOM     26  C   UNL     1       2.235   8.832  18.511  0.00  0.00    +0.000 A 
ATOM     27  F   UNL     1       2.531   9.873  17.692  0.00  0.00    +0.000 F 
ATOM     28  C   UNL     1       1.326   9.005  19.558  0.00  0.00    +0.000 A 
ATOM     29  C   UNL     1       1.015   7.935  20.406  0.00  0.00    +0.000 A 
ATOM     30  F   UNL     1       0.133   8.135  21.419  0.00  0.00    +0.000 F 
ENDBRANCH  21  22
ENDBRANCH  17  21
ENDBRANCH   1  17
TORSDOF 6
ENDMDL
MODEL 3
REMARK VINA RESULT:      -7.7      4.454      7.896
REMARK  Name = 
REMARK  6 active torsions:
REMARK  status: ('A' for Active; 'I' for Inactive)
REMARK    1  A    between atoms: N_1  and  C_2
REMARK    2  A    between atoms: C_2  and  C_3
REMARK    3  A    between atoms: C_2  and  C_19
REMARK    4  A    between atoms: C_3  and  C_4
REMARK    5  A    between atoms: C_13  and  C_14
REMARK    6  A    between atoms: C_19  and  C_20
REMARK                            x       y       z     vdW  Elec       q    Type
REMARK                         _______ _______ _______ _____ _____    ______ ____
ROOT
ATOM      1  C   UNL     1       2.431   3.666  19.283  0.00  0.00    +0.000 C 
ENDROOT
BRANCH   1   2
ATOM      2  C   UNL     1       3.301   3.308  18.078  0.00  0.00    +0.000 C 
ATOM      3  O   UNL     1       2.765   2.856  17.077  0.00  0.00    +0.000 OA
ATOM      4  N   UNL     1       4.664   3.496  18.082  0.00  0.00    +0.000 N 
ATOM      5  C   UNL     1       5.392   3.962  19.255  0.00  0.00    +0.000 C 
ATOM      6  C   UNL     1       5.932   5.375  18.983  0.00  0.00    +0.000 C 
ATOM      7  N   UNL     1       6.502   5.449  17.635  0.00  0.00    +0.000 N 
ATOM      8  C   UNL     1       6.326   4.529  16.673  0.00  0.00    +0.000 A 
ATOM      9  N   UNL     1       6.992   4.858  15.551  0.00  0.00    +0.000 NA
ATOM     10  N   UNL     1       7.582   6.025  15.785  0.00  0.00    +0.000 NA
ATOM     11  C   UNL     1       7.277   6.387  17.051  0.00  0.00    +0.000 A 
ATOM     12  C   UNL     1       5.463   3.314  16.862  0.00  0.00    +0.000 C 
BRANCH  11  13
ATOM     13  C   UNL     1       7.775   7.658  17.683  0.00  0.00    +0.000 C 
ATOM     14  F   UNL     1       8.619   8.361  16.845  0.00  0.00    +0.000 F 
ATOM     15  F   UNL     1       6.692   8.459  17.995  0.00  0.00    +0.000 F 
ATOM     16  F   UNL     1       8.460   7.354  18.844  0.00  0.00    +0.000 F 
ENDBRANCH  11  13
ENDBRANCH   1   2
BRANCH   1  17
ATOM     17  C   UNL     1       1.716   5.042  19.191  0.00  0.00    +0.000 C 
BRANCH  17  18
ATOM     18  N   UNL     1       1.308   5.355  17.814  0.00  0.00    +0.000 NA
ATOM     19  H   UNL     1       1.688   4.677  17.121  0.00  0.00    +0.000 HD
ATOM     20  H   UNL     1       1.629   6.314  17.546  0.00  0.00    +0.000 HD
ENDBRANCH  17  18
BRANCH  17  21
ATOM     21  C   UNL     1       2.635   6.180  19.690  0.00  0.00    +0.000 C 
BRANCH  21  22
ATOM     22  C   UNL     1       1.855   7.463  19.904  0.00  0.00    +0.000 A 
ATOM     23  C   UNL     1       1.111   7.632  21.085  0.00  0.00    +0.000 A 
ATOM     24  C   UNL     1       0.376   8.802  21.301  0.00  0.00    +0.000 A 
ATOM     25  F   UNL     1      -0.335   8.950  22.445  0.00  0.00    +0.000 F 
ATOM     26  C   UNL     1       0.378   9.816  20.341  0.00  0.00    +0.000 A 
ATOM     27  F   UNL     1      -0.335  10.953  20.550  0.00  0.00    +0.000 F 
ATOM     28  C   UNL     1       1.116   9.663  19.164  0.00  0.00    +0.000 A 
ATOM     29  C   UNL     1       1.855   8.495  18.942  0.00  0.00    +0.000 A 
ATOM     30  F   UNL     1       2.557   8.372  17.787  0.00  0.00    +0.000 F 
ENDBRANCH  21  22
ENDBRANCH  17  21
ENDBRANCH   1  17
TORSDOF 6
ENDMDL
MODEL 4
REMARK VINA RESULT:      -7.7      5.640      9.658
REMARK  Name = 
REMARK  6 active torsions:
REMARK  status: ('A' for Active; 'I' for Inactive)
REMARK    1  A    between atoms: N_1  and  C_2
REMARK    2  A    between atoms: C_2  and  C_3
REMARK    3  A    between atoms: C_2  and  C_19
REMARK    4  A    between atoms: C_3  and  C_4
REMARK    5  A    between atoms: C_13  and  C_14
REMARK    6  A    between atoms: C_19  and  C_20
REMARK                            x       y       z     vdW  Elec       q    Type
REMARK                         _______ _______ _______ _____ _____    ______ ____
ROOT
ATOM      1  C   UNL     1       3.289   7.530  17.605  0.00  0.00    +0.000 C 
ENDROOT
BRANCH   1   2
ATOM      2  C   UNL     1       2.438   7.737  18.858  0.00  0.00    +0.000 C 
ATOM      3  O   UNL     1       2.591   6.980  19.805  0.00  0.00    +0.000 OA
ATOM      4  N   UNL     1       1.520   8.757  18.955  0.00  0.00    +0.000 N 
ATOM      5  C   UNL     1       1.225   9.658  17.850  0.00  0.00    +0.000 C 
ATOM      6  C   UNL     1       1.735  11.066  18.198  0.00  0.00    +0.000 C 
ATOM      7  N   UNL     1       1.397  11.399  19.584  0.00  0.00    +0.000 N 
ATOM      8  C   UNL     1       0.971  10.520  20.505  0.00  0.00    +0.000 A 
ATOM      9  N   UNL     1       0.716  11.124  21.680  0.00  0.00    +0.000 NA
ATOM     10  N   UNL     1       1.011  12.410  21.520  0.00  0.00    +0.000 NA
ATOM     11  C   UNL     1       1.433  12.574  20.247  0.00  0.00    +0.000 A 
ATOM     12  C   UNL     1       0.837   9.050  20.222  0.00  0.00    +0.000 C 
BRANCH  11  13
ATOM     13  C   UNL     1       1.852  13.906  19.687  0.00  0.00    +0.000 C 
ATOM     14  F   UNL     1       1.121  14.254  18.568  0.00  0.00    +0.000 F 
ATOM     15  F   UNL     1       1.672  14.877  20.654  0.00  0.00    +0.000 F 
ATOM     16  F   UNL     1       3.189  13.856  19.341  0.00  0.00    +0.000 F 
ENDBRANCH  11  13
ENDBRANCH   1   2
BRANCH   1  17
ATOM     17  C   UNL     1       4.467   6.530  17.770  0.00  0.00    +0.000 C 
BRANCH  17  18
ATOM     18  N   UNL     1       5.704   7.038  17.158  0.00  0.00    +0.000 NA
ATOM     19  H   UNL     1       5.754   6.844  16.137  0.00  0.00    +0.000 HD
ATOM     20  H   UNL     1       6.541   6.608  17.616  0.00  0.00    +0.000 HD
ENDBRANCH  17  18
BRANCH  17  21
ATOM     21  C   UNL     1       4.134   5.168  17.120  0.00  0.00    +0.000 C 
BRANCH  21  22
ATOM     22  C   UNL     1       3.449   4.241  18.107  0.00  0.00    +0.000 A 
ATOM     23  C   UNL     1       2.129   3.822  17.861  0.00  0.00    +0.000 A 
ATOM     24  C   UNL     1       1.474   2.975  18.760  0.00  0.00    +0.000 A 
ATOM     25  F   UNL     1       0.202   2.580  18.509  0.00  0.00    +0.000 F 
ATOM     26  C   UNL     1       2.130   2.536  19.912  0.00  0.00    +0.000 A 
ATOM     27  F   UNL     1       1.494   1.714  20.786  0.00  0.00    +0.000 F 
ATOM     28  C   UNL     1       3.443   2.942  20.167  0.00  0.00    +0.000 A 
ATOM     29  C   UNL     1       4.105   3.788  19.270  0.00  0.00    +0.000 A 
ATOM     30  F   UNL     1       5.379   4.170  19.547  0.00  0.00    +0.000 F 
ENDBRANCH  21  22
ENDBRANCH  17  21
ENDBRANCH   1  17
TORSDOF 6
ENDMDL
MODEL 5
REMARK VINA RESULT:      -7.7      7.446     10.204
REMARK  Name = 
REMARK  6 active torsions:
REMARK  status: ('A' for Active; 'I' for Inactive)
REMARK    1  A    between atoms: N_1  and  C_2
REMARK    2  A    between atoms: C_2  and  C_3
REMARK    3  A    between atoms: C_2  and  C_19
REMARK    4  A    between atoms: C_3  and  C_4
REMARK    5  A    between atoms: C_13  and  C_14
REMARK    6  A    between atoms: C_19  and  C_20
REMARK                            x       y       z     vdW  Elec       q    Type
REMARK                         _______ _______ _______ _____ _____    ______ ____
ROOT
ATOM      1  C   UNL     1       0.728   9.647  19.468  0.00  0.00    +0.000 C 
ENDROOT
BRANCH   1   2
ATOM      2  C   UNL     1      -0.442  10.431  18.877  0.00  0.00    +0.000 C 
ATOM      3  O   UNL     1      -1.004   9.993  17.883  0.00  0.00    +0.000 OA
ATOM      4  N   UNL     1      -0.892  11.604  19.438  0.00  0.00    +0.000 N 
ATOM      5  C   UNL     1      -0.238  12.233  20.577  0.00  0.00    +0.000 C 
ATOM      6  C   UNL     1      -1.164  12.146  21.801  0.00  0.00    +0.000 C 
ATOM      7  N   UNL     1      -2.540  12.471  21.419  0.00  0.00    +0.000 N 
ATOM      8  C   UNL     1      -2.991  12.548  20.156  0.00  0.00    +0.000 A 
ATOM      9  N   UNL     1      -4.292  12.890  20.118  0.00  0.00    +0.000 NA
ATOM     10  N   UNL     1      -4.693  13.006  21.380  0.00  0.00    +0.000 NA
ATOM     11  C   UNL     1      -3.628  12.744  22.169  0.00  0.00    +0.000 A 
ATOM     12  C   UNL     1      -2.122  12.254  18.966  0.00  0.00    +0.000 C 
BRANCH  11  13
ATOM     13  C   UNL     1      -3.692  12.784  23.672  0.00  0.00    +0.000 C 
ATOM     14  F   UNL     1      -2.847  13.737  24.204  0.00  0.00    +0.000 F 
ATOM     15  F   UNL     1      -4.986  13.072  24.060  0.00  0.00    +0.000 F 
ATOM     16  F   UNL     1      -3.334  11.548  24.178  0.00  0.00    +0.000 F 
ENDBRANCH  11  13
ENDBRANCH   1   2
BRANCH   1  17
ATOM     17  C   UNL     1       1.930   9.435  18.505  0.00  0.00    +0.000 C 
BRANCH  17  18
ATOM     18  N   UNL     1       2.023  10.507  17.504  0.00  0.00    +0.000 NA
ATOM     19  H   UNL     1       1.101  10.735  17.076  0.00  0.00    +0.000 HD
ATOM     20  H   UNL     1       2.682  10.235  16.738  0.00  0.00    +0.000 HD
ENDBRANCH  17  18
BRANCH  17  21
ATOM     21  C   UNL     1       1.812   8.087  17.758  0.00  0.00    +0.000 C 
BRANCH  21  22
ATOM     22  C   UNL     1       2.930   7.141  18.152  0.00  0.00    +0.000 A 
ATOM     23  C   UNL     1       4.084   7.062  17.352  0.00  0.00    +0.000 A 
ATOM     24  C   UNL     1       5.124   6.191  17.690  0.00  0.00    +0.000 A 
ATOM     25  F   UNL     1       6.230   6.127  16.909  0.00  0.00    +0.000 F 
ATOM     26  C   UNL     1       5.024   5.390  18.830  0.00  0.00    +0.000 A 
ATOM     27  F   UNL     1       6.034   4.544  19.158  0.00  0.00    +0.000 F 
ATOM     28  C   UNL     1       3.884   5.461  19.636  0.00  0.00    +0.000 A 
ATOM     29  C   UNL     1       2.840   6.333  19.305  0.00  0.00    +0.000 A 
ATOM     30  F   UNL     1       1.743   6.376  20.104  0.00  0.00    +0.000 F 
ENDBRANCH  21  22
ENDBRANCH  17  21
ENDBRANCH   1  17
TORSDOF 6
ENDMDL
MODEL 6
REMARK VINA RESULT:      -7.6      5.592      8.095
REMARK  Name = 
REMARK  6 active torsions:
REMARK  status: ('A' for Active; 'I' for Inactive)
REMARK    1  A    between atoms: N_1  and  C_2
REMARK    2  A    between atoms: C_2  and  C_3
REMARK    3  A    between atoms: C_2  and  C_19
REMARK    4  A    between atoms: C_3  and  C_4
REMARK    5  A    between atoms: C_13  and  C_14
REMARK    6  A    between atoms: C_19  and  C_20
REMARK                            x       y       z     vdW  Elec       q    Type
REMARK                         _______ _______ _______ _____ _____    ______ ____
ROOT
ATOM      1  C   UNL     1       1.596   2.606  20.428  0.00  0.00    +0.000 C 
ENDROOT
BRANCH   1   2
ATOM      2  C   UNL     1       1.900   2.593  18.931  0.00  0.00    +0.000 C 
ATOM      3  O   UNL     1       0.977   2.725  18.141  0.00  0.00    +0.000 OA
ATOM      4  N   UNL     1       3.181   2.454  18.448  0.00  0.00    +0.000 N 
ATOM      5  C   UNL     1       4.328   2.220  19.314  0.00  0.00    +0.000 C 
ATOM      6  C   UNL     1       5.236   3.460  19.292  0.00  0.00    +0.000 C 
ATOM      7  N   UNL     1       5.386   3.954  17.921  0.00  0.00    +0.000 N 
ATOM      8  C   UNL     1       4.627   3.576  16.880  0.00  0.00    +0.000 A 
ATOM      9  N   UNL     1       5.018   4.181  15.742  0.00  0.00    +0.000 NA
ATOM     10  N   UNL     1       6.027   4.984  16.064  0.00  0.00    +0.000 NA
ATOM     11  C   UNL     1       6.245   4.851  17.391  0.00  0.00    +0.000 A 
ATOM     12  C   UNL     1       3.480   2.617  17.018  0.00  0.00    +0.000 C 
BRANCH  11  13
ATOM     13  C   UNL     1       7.321   5.603  18.125  0.00  0.00    +0.000 C 
ATOM     14  F   UNL     1       7.813   6.661  17.387  0.00  0.00    +0.000 F 
ATOM     15  F   UNL     1       6.800   6.092  19.308  0.00  0.00    +0.000 F 
ATOM     16  F   UNL     1       8.364   4.743  18.413  0.00  0.00    +0.000 F 
ENDBRANCH  11  13
ENDBRANCH   1   2
BRANCH   1  17
ATOM     17  C   UNL     1       1.207   3.995  21.007  0.00  0.00    +0.000 C 
BRANCH  17  18
ATOM     18  N   UNL     1       0.228   4.686  20.155  0.00  0.00    +0.000 NA
ATOM     19  H   UNL     1      -0.534   4.057  19.830  0.00  0.00    +0.000 HD
ATOM     20  H   UNL     1       0.699   5.094  19.315  0.00  0.00    +0.000 HD
ENDBRANCH  17  18
BRANCH  17  21
ATOM     21  C   UNL     1       2.448   4.904  21.150  0.00  0.00    +0.000 C 
BRANCH  21  22
ATOM     22  C   UNL     1       2.375   6.086  20.202  0.00  0.00    +0.000 A 
ATOM     23  C   UNL     1       3.033   6.019  18.960  0.00  0.00    +0.000 A 
ATOM     24  C   UNL     1       2.988   7.099  18.073  0.00  0.00    +0.000 A 
ATOM     25  F   UNL     1       3.627   7.018  16.880  0.00  0.00    +0.000 F 
ATOM     26  C   UNL     1       2.284   8.256  18.415  0.00  0.00    +0.000 A 
ATOM     27  F   UNL     1       2.240   9.305  17.554  0.00  0.00    +0.000 F 
ATOM     28  C   UNL     1       1.623   8.334  19.643  0.00  0.00    +0.000 A 
ATOM     29  C   UNL     1       1.662   7.256  20.535  0.00  0.00    +0.000 A 
ATOM     30  F   UNL     1       1.015   7.364  21.724  0.00  0.00    +0.000 F 
ENDBRANCH  21  22
ENDBRANCH  17  21
ENDBRANCH   1  17
TORSDOF 6
ENDMDL
MODEL 7
REMARK VINA RESULT:      -7.6      5.065      7.997
REMARK  Name = 
REMARK  6 active torsions:
REMARK  status: ('A' for Active; 'I' for Inactive)
REMARK    1  A    between atoms: N_1  and  C_2
REMARK    2  A    between atoms: C_2  and  C_3
REMARK    3  A    between atoms: C_2  and  C_19
REMARK    4  A    between atoms: C_3  and  C_4
REMARK    5  A    between atoms: C_13  and  C_14
REMARK    6  A    between atoms: C_19  and  C_20
REMARK                            x       y       z     vdW  Elec       q    Type
REMARK                         _______ _______ _______ _____ _____    ______ ____
ROOT
ATOM      1  C   UNL     1       2.963   6.964  18.473  0.00  0.00    +0.000 C 
ENDROOT
BRANCH   1   2
ATOM      2  C   UNL     1       2.080   7.522  19.589  0.00  0.00    +0.000 C 
ATOM      3  O   UNL     1       2.077   6.961  20.675  0.00  0.00    +0.000 OA
ATOM      4  N   UNL     1       1.303   8.643  19.412  0.00  0.00    +0.000 N 
ATOM      5  C   UNL     1       1.191   9.330  18.132  0.00  0.00    +0.000 C 
ATOM      6  C   UNL     1       1.866  10.707  18.240  0.00  0.00    +0.000 C 
ATOM      7  N   UNL     1       1.499  11.354  19.503  0.00  0.00    +0.000 N 
ATOM      8  C   UNL     1       0.910  10.737  20.540  0.00  0.00    +0.000 A 
ATOM      9  N   UNL     1       0.673  11.594  21.551  0.00  0.00    +0.000 NA
ATOM     10  N   UNL     1       1.146  12.775  21.168  0.00  0.00    +0.000 NA
ATOM     11  C   UNL     1       1.655  12.626  19.926  0.00  0.00    +0.000 A 
ATOM     12  C   UNL     1       0.596   9.268  20.538  0.00  0.00    +0.000 C 
BRANCH  11  13
ATOM     13  C   UNL     1       2.279  13.756  19.153  0.00  0.00    +0.000 C 
ATOM     14  F   UNL     1       2.649  14.804  19.971  0.00  0.00    +0.000 F 
ATOM     15  F   UNL     1       3.402  13.287  18.499  0.00  0.00    +0.000 F 
ATOM     16  F   UNL     1       1.375  14.224  18.218  0.00  0.00    +0.000 F 
ENDBRANCH  11  13
ENDBRANCH   1   2
BRANCH   1  17
ATOM     17  C   UNL     1       2.584   5.539  17.985  0.00  0.00    +0.000 C 
BRANCH  17  18
ATOM     18  N   UNL     1       2.151   4.679  19.097  0.00  0.00    +0.000 NA
ATOM     19  H   UNL     1       2.945   4.369  19.694  0.00  0.00    +0.000 HD
ATOM     20  H   UNL     1       1.663   3.828  18.732  0.00  0.00    +0.000 HD
ENDBRANCH  17  18
BRANCH  17  21
ATOM     21  C   UNL     1       3.779   4.855  17.285  0.00  0.00    +0.000 C 
BRANCH  21  22
ATOM     22  C   UNL     1       5.085   5.544  17.629  0.00  0.00    +0.000 A 
ATOM     23  C   UNL     1       5.793   5.151  18.780  0.00  0.00    +0.000 A 
ATOM     24  C   UNL     1       6.995   5.777  19.123  0.00  0.00    +0.000 A 
ATOM     25  F   UNL     1       7.665   5.387  20.235  0.00  0.00    +0.000 F 
ATOM     26  C   UNL     1       7.505   6.800  18.320  0.00  0.00    +0.000 A 
ATOM     27  F   UNL     1       8.672   7.409  18.653  0.00  0.00    +0.000 F 
ATOM     28  C   UNL     1       6.815   7.198  17.172  0.00  0.00    +0.000 A 
ATOM     29  C   UNL     1       5.611   6.574  16.822  0.00  0.00    +0.000 A 
ATOM     30  F   UNL     1       4.960   6.985  15.704  0.00  0.00    +0.000 F 
ENDBRANCH  21  22
ENDBRANCH  17  21
ENDBRANCH   1  17
TORSDOF 6
ENDMDL
MODEL 8
REMARK VINA RESULT:      -7.5      7.365     10.213
REMARK  Name = 
REMARK  6 active torsions:
REMARK  status: ('A' for Active; 'I' for Inactive)
REMARK    1  A    between atoms: N_1  and  C_2
REMARK    2  A    between atoms: C_2  and  C_3
REMARK    3  A    between atoms: C_2  and  C_19
REMARK    4  A    between atoms: C_3  and  C_4
REMARK    5  A    between atoms: C_13  and  C_14
REMARK    6  A    between atoms: C_19  and  C_20
REMARK                            x       y       z     vdW  Elec       q    Type
REMARK                         _______ _______ _______ _____ _____    ______ ____
ROOT
ATOM      1  C   UNL     1       0.688   9.525  19.329  0.00  0.00    +0.000 C 
ENDROOT
BRANCH   1   2
ATOM      2  C   UNL     1      -0.455  10.357  18.748  0.00  0.00    +0.000 C 
ATOM      3  O   UNL     1      -1.025   9.955  17.743  0.00  0.00    +0.000 OA
ATOM      4  N   UNL     1      -0.871  11.532  19.329  0.00  0.00    +0.000 N 
ATOM      5  C   UNL     1      -0.203  12.119  20.483  0.00  0.00    +0.000 C 
ATOM      6  C   UNL     1      -1.137  12.037  21.700  0.00  0.00    +0.000 C 
ATOM      7  N   UNL     1      -2.501  12.413  21.319  0.00  0.00    +0.000 N 
ATOM      8  C   UNL     1      -2.943  12.527  20.056  0.00  0.00    +0.000 A 
ATOM      9  N   UNL     1      -4.233  12.911  20.019  0.00  0.00    +0.000 NA
ATOM     10  N   UNL     1      -4.636  13.016  21.281  0.00  0.00    +0.000 NA
ATOM     11  C   UNL     1      -3.584  12.705  22.070  0.00  0.00    +0.000 A 
ATOM     12  C   UNL     1      -2.078  12.229  18.864  0.00  0.00    +0.000 C 
BRANCH  11  13
ATOM     13  C   UNL     1      -3.653  12.719  23.572  0.00  0.00    +0.000 C 
ATOM     14  F   UNL     1      -2.880  13.723  24.120  0.00  0.00    +0.000 F 
ATOM     15  F   UNL     1      -4.966  12.909  23.960  0.00  0.00    +0.000 F 
ATOM     16  F   UNL     1      -3.210  11.505  24.062  0.00  0.00    +0.000 F 
ENDBRANCH  11  13
ENDBRANCH   1   2
BRANCH   1  17
ATOM     17  C   UNL     1       1.962   9.451  18.444  0.00  0.00    +0.000 C 
BRANCH  17  18
ATOM     18  N   UNL     1       2.096  10.632  17.578  0.00  0.00    +0.000 NA
ATOM     19  H   UNL     1       1.996  10.400  16.568  0.00  0.00    +0.000 HD
ATOM     20  H   UNL     1       3.027  11.086  17.721  0.00  0.00    +0.000 HD
ENDBRANCH  17  18
BRANCH  17  21
ATOM     21  C   UNL     1       1.941   8.195  17.544  0.00  0.00    +0.000 C 
BRANCH  21  22
ATOM     22  C   UNL     1       2.804   7.090  18.122  0.00  0.00    +0.000 A 
ATOM     23  C   UNL     1       2.398   6.439  19.301  0.00  0.00    +0.000 A 
ATOM     24  C   UNL     1       3.181   5.423  19.857  0.00  0.00    +0.000 A 
ATOM     25  F   UNL     1       2.776   4.806  20.994  0.00  0.00    +0.000 F 
ATOM     26  C   UNL     1       4.377   5.045  19.242  0.00  0.00    +0.000 A 
ATOM     27  F   UNL     1       5.138   4.059  19.783  0.00  0.00    +0.000 F 
ATOM     28  C   UNL     1       4.790   5.681  18.068  0.00  0.00    +0.000 A 
ATOM     29  C   UNL     1       4.010   6.697  17.505  0.00  0.00    +0.000 A 
ATOM     30  F   UNL     1       4.441   7.300  16.367  0.00  0.00    +0.000 F 
ENDBRANCH  21  22
ENDBRANCH  17  21
ENDBRANCH   1  17
TORSDOF 6
ENDMDL
MODEL 9
REMARK VINA RESULT:      -7.5      4.808      7.754
REMARK  Name = 
REMARK  6 active torsions:
REMARK  status: ('A' for Active; 'I' for Inactive)
REMARK    1  A    between atoms: N_1  and  C_2
REMARK    2  A    between atoms: C_2  and  C_3
REMARK    3  A    between atoms: C_2  and  C_19
REMARK    4  A    between atoms: C_3  and  C_4
REMARK    5  A    between atoms: C_13  and  C_14
REMARK    6  A    between atoms: C_19  and  C_20
REMARK                            x       y       z     vdW  Elec       q    Type
REMARK                         _______ _______ _______ _____ _____    ______ ____
ROOT
ATOM      1  C   UNL     1       2.296   3.393  20.252  0.00  0.00    +0.000 C 
ENDROOT
BRANCH   1   2
ATOM      2  C   UNL     1       2.599   3.260  18.760  0.00  0.00    +0.000 C 
ATOM      3  O   UNL     1       1.669   3.125  17.979  0.00  0.00    +0.000 OA
ATOM      4  N   UNL     1       3.884   3.306  18.270  0.00  0.00    +0.000 N 
ATOM      5  C   UNL     1       5.054   3.394  19.135  0.00  0.00    +0.000 C 
ATOM      6  C   UNL     1       5.713   4.769  18.951  0.00  0.00    +0.000 C 
ATOM      7  N   UNL     1       5.771   5.118  17.529  0.00  0.00    +0.000 N 
ATOM      8  C   UNL     1       5.098   4.486  16.554  0.00  0.00    +0.000 A 
ATOM      9  N   UNL     1       5.371   5.015  15.346  0.00  0.00    +0.000 NA
ATOM     10  N   UNL     1       6.211   6.024  15.552  0.00  0.00    +0.000 NA
ATOM     11  C   UNL     1       6.448   6.090  16.881  0.00  0.00    +0.000 A 
ATOM     12  C   UNL     1       4.150   3.353  16.826  0.00  0.00    +0.000 C 
BRANCH  11  13
ATOM     13  C   UNL     1       7.363   7.110  17.502  0.00  0.00    +0.000 C 
ATOM     14  F   UNL     1       8.247   7.643  16.584  0.00  0.00    +0.000 F 
ATOM     15  F   UNL     1       6.601   8.135  18.030  0.00  0.00    +0.000 F 
ATOM     16  F   UNL     1       8.087   6.516  18.518  0.00  0.00    +0.000 F 
ENDBRANCH  11  13
ENDBRANCH   1   2
BRANCH   1  17
ATOM     17  C   UNL     1       1.820   4.802  20.702  0.00  0.00    +0.000 C 
BRANCH  17  18
ATOM     18  N   UNL     1       0.569   5.194  20.036  0.00  0.00    +0.000 NA
ATOM     19  H   UNL     1       0.390   6.218  20.094  0.00  0.00    +0.000 HD
ATOM     20  H   UNL     1      -0.245   4.693  20.461  0.00  0.00    +0.000 HD
ENDBRANCH  17  18
BRANCH  17  21
ATOM     21  C   UNL     1       2.887   5.874  20.392  0.00  0.00    +0.000 C 
BRANCH  21  22
ATOM     22  C   UNL     1       2.252   7.141  19.851  0.00  0.00    +0.000 A 
ATOM     23  C   UNL     1       1.534   7.982  20.720  0.00  0.00    +0.000 A 
ATOM     24  C   UNL     1       0.932   9.150  20.243  0.00  0.00    +0.000 A 
ATOM     25  F   UNL     1       0.244   9.950  21.093  0.00  0.00    +0.000 F 
ATOM     26  C   UNL     1       1.044   9.493  18.893  0.00  0.00    +0.000 A 
ATOM     27  F   UNL     1       0.459  10.628  18.429  0.00  0.00    +0.000 F 
ATOM     28  C   UNL     1       1.758   8.670  18.020  0.00  0.00    +0.000 A 
ATOM     29  C   UNL     1       2.364   7.499  18.491  0.00  0.00    +0.000 A 
ATOM     30  F   UNL     1       3.047   6.715  17.617  0.00  0.00    +0.000 F 
ENDBRANCH  21  22
ENDBRANCH  17  21
ENDBRANCH   1  17
TORSDOF 6
ENDMDL
