MODEL 1
REMARK VINA RESULT:      -7.1      0.000      0.000
REMARK  Name = 
REMARK  5 active torsions:
REMARK  status: ('A' for Active; 'I' for Inactive)
REMARK    1  A    between atoms: O_1  and  C_2
REMARK    2  A    between atoms: C_2  and  CA_3
REMARK    3  A    between atoms: C_5  and  O_6
REMARK    4  A    between atoms: C_7  and  C_8
REMARK    5  A    between atoms: C_12  and  O_13
REMARK                            x       y       z     vdW  Elec       q    Type
REMARK                         _______ _______ _______ _____ _____    ______ ____
ROOT
ATOM      1  C   UNL     1       4.156   3.396  17.831  0.00  0.00    +0.000 A 
ATOM      2  C   UNL     1       3.605   2.202  17.396  0.00  0.00    +0.000 A 
ATOM      3  N   UNL     1       2.405   2.011  18.026  0.00  0.00    +0.000 N 
ATOM      4  C   UNL     1       2.149   3.054  18.877  0.00  0.00    +0.000 A 
ATOM      5  C   UNL     1       1.106   3.349  19.736  0.00  0.00    +0.000 A 
ATOM      6  N   UNL     1       1.162   4.463  20.472  0.00  0.00    +0.000 NA
ATOM      7  C   UNL     1       2.243   5.248  20.324  0.00  0.00    +0.000 A 
ATOM      8  N   UNL     1       3.297   5.068  19.509  0.00  0.00    +0.000 NA
ATOM      9  C   UNL     1       3.226   3.931  18.781  0.00  0.00    +0.000 A 
ATOM     10  H   UNL     1       1.809   1.209  17.886  0.00  0.00    +0.000 HD
ENDROOT
BRANCH   1  14
ATOM     11  CA  UNL     1       7.276   5.288  18.107  0.00  0.00    +0.000 C 
ATOM     12  C   UNL     1       6.450   6.236  17.245  0.00  0.00    +0.000 C 
ATOM     13  C   UNL     1       5.303   5.375  16.709  0.00  0.00    +0.000 C 
ATOM     14  C   UNL     1       5.456   4.015  17.427  0.00  0.00    +0.000 C 
ATOM     15  N   UNL     1       6.262   4.354  18.618  0.00  0.00    +0.000 NA
ATOM     16  H   UNL     1       6.711   3.523  19.001  0.00  0.00    +0.000 HD
BRANCH  13  17
ATOM     17  O   UNL     1       5.409   5.284  15.289  0.00  0.00    +0.000 OA
ATOM     18  H   UNL     1       5.509   4.348  15.050  0.00  0.00    +0.000 HD
ENDBRANCH  13  17
BRANCH  11  19
ATOM     19  C   UNL     1       8.071   6.028  19.190  0.00  0.00    +0.000 C 
BRANCH  19  20
ATOM     20  O   UNL     1       7.891   5.398  20.455  0.00  0.00    +0.000 OA
ATOM     21  H   UNL     1       6.932   5.379  20.622  0.00  0.00    +0.000 HD
ENDBRANCH  19  20
ENDBRANCH  11  19
ENDBRANCH   1  14
BRANCH   5  22
ATOM     22  O   UNL     1      -0.012   2.576  19.902  0.00  0.00    +0.000 OA
ATOM     23  H   UNL     1       0.265   1.653  19.935  0.00  0.00    +0.000 HD
ENDBRANCH   5  22
TORSDOF 5
ENDMDL
MODEL 2
REMARK VINA RESULT:      -7.1      1.522      3.173
REMARK  Name = 
REMARK  5 active torsions:
REMARK  status: ('A' for Active; 'I' for Inactive)
REMARK    1  A    between atoms: O_1  and  C_2
REMARK    2  A    between atoms: C_2  and  CA_3
REMARK    3  A    between atoms: C_5  and  O_6
REMARK    4  A    between atoms: C_7  and  C_8
REMARK    5  A    between atoms: C_12  and  O_13
REMARK                            x       y       z     vdW  Elec       q    Type
REMARK                         _______ _______ _______ _____ _____    ______ ____
ROOT
ATOM      1  C   UNL     1       4.076   5.370  18.719  0.00  0.00    +0.000 A 
ATOM      2  C   UNL     1       3.298   6.167  19.542  0.00  0.00    +0.000 A 
ATOM      3  N   UNL     1       2.190   5.461  19.925  0.00  0.00    +0.000 N 
ATOM      4  C   UNL     1       2.214   4.209  19.368  0.00  0.00    +0.000 A 
ATOM      5  C   UNL     1       1.357   3.125  19.424  0.00  0.00    +0.000 A 
ATOM      6  N   UNL     1       1.653   2.022  18.729  0.00  0.00    +0.000 NA
ATOM      7  C   UNL     1       2.789   2.030  18.012  0.00  0.00    +0.000 A 
ATOM      8  N   UNL     1       3.699   3.015  17.904  0.00  0.00    +0.000 NA
ATOM      9  C   UNL     1       3.375   4.125  18.606  0.00  0.00    +0.000 A 
ATOM     10  H   UNL     1       1.461   5.823  20.522  0.00  0.00    +0.000 HD
ENDROOT
BRANCH   1  14
ATOM     11  CA  UNL     1       6.725   5.401  16.193  0.00  0.00    +0.000 C 
ATOM     12  C   UNL     1       7.396   4.584  17.292  0.00  0.00    +0.000 C 
ATOM     13  C   UNL     1       6.569   4.867  18.549  0.00  0.00    +0.000 C 
ATOM     14  C   UNL     1       5.373   5.713  18.056  0.00  0.00    +0.000 C 
ATOM     15  N   UNL     1       5.315   5.404  16.612  0.00  0.00    +0.000 NA
ATOM     16  H   UNL     1       4.800   6.124  16.107  0.00  0.00    +0.000 HD
BRANCH  13  17
ATOM     17  O   UNL     1       7.386   5.540  19.506  0.00  0.00    +0.000 OA
ATOM     18  H   UNL     1       7.415   6.482  19.273  0.00  0.00    +0.000 HD
ENDBRANCH  13  17
BRANCH  11  19
ATOM     19  C   UNL     1       6.978   4.820  14.797  0.00  0.00    +0.000 C 
BRANCH  19  20
ATOM     20  O   UNL     1       7.966   5.585  14.112  0.00  0.00    +0.000 OA
ATOM     21  H   UNL     1       8.811   5.119  14.234  0.00  0.00    +0.000 HD
ENDBRANCH  19  20
ENDBRANCH  11  19
ENDBRANCH   1  14
BRANCH   5  22
ATOM     22  O   UNL     1       0.198   3.082  20.152  0.00  0.00    +0.000 OA
ATOM     23  H   UNL     1      -0.466   3.606  19.688  0.00  0.00    +0.000 HD
ENDBRANCH   5  22
TORSDOF 5
ENDMDL
MODEL 3
REMARK VINA RESULT:      -7.0      2.006      5.802
REMARK  Name = 
REMARK  5 active torsions:
REMARK  status: ('A' for Active; 'I' for Inactive)
REMARK    1  A    between atoms: O_1  and  C_2
REMARK    2  A    between atoms: C_2  and  CA_3
REMARK    3  A    between atoms: C_5  and  O_6
REMARK    4  A    between atoms: C_7  and  C_8
REMARK    5  A    between atoms: C_12  and  O_13
REMARK                            x       y       z     vdW  Elec       q    Type
REMARK                         _______ _______ _______ _____ _____    ______ ____
ROOT
ATOM      1  C   UNL     1       4.843   4.551  17.527  0.00  0.00    +0.000 A 
ATOM      2  C   UNL     1       4.506   5.350  16.446  0.00  0.00    +0.000 A 
ATOM      3  N   UNL     1       5.403   6.380  16.360  0.00  0.00    +0.000 N 
ATOM      4  C   UNL     1       6.328   6.285  17.366  0.00  0.00    +0.000 A 
ATOM      5  C   UNL     1       7.420   7.051  17.733  0.00  0.00    +0.000 A 
ATOM      6  N   UNL     1       8.130   6.702  18.810  0.00  0.00    +0.000 NA
ATOM      7  C   UNL     1       7.739   5.605  19.479  0.00  0.00    +0.000 A 
ATOM      8  N   UNL     1       6.712   4.781  19.200  0.00  0.00    +0.000 NA
ATOM      9  C   UNL     1       6.001   5.157  18.113  0.00  0.00    +0.000 A 
ATOM     10  H   UNL     1       5.372   7.107  15.659  0.00  0.00    +0.000 HD
ENDROOT
BRANCH   1  14
ATOM     11  CA  UNL     1       2.126   2.365  18.638  0.00  0.00    +0.000 C 
ATOM     12  C   UNL     1       2.863   2.586  19.954  0.00  0.00    +0.000 C 
ATOM     13  C   UNL     1       4.240   3.118  19.545  0.00  0.00    +0.000 C 
ATOM     14  C   UNL     1       4.151   3.318  18.015  0.00  0.00    +0.000 C 
ATOM     15  N   UNL     1       2.696   3.409  17.773  0.00  0.00    +0.000 NA
ATOM     16  H   UNL     1       2.478   3.214  16.796  0.00  0.00    +0.000 HD
BRANCH  13  17
ATOM     17  O   UNL     1       5.241   2.180  19.939  0.00  0.00    +0.000 OA
ATOM     18  H   UNL     1       5.859   2.628  20.539  0.00  0.00    +0.000 HD
ENDBRANCH  13  17
BRANCH  11  19
ATOM     19  C   UNL     1       0.604   2.431  18.805  0.00  0.00    +0.000 C 
BRANCH  19  20
ATOM     20  O   UNL     1       0.266   3.078  20.029  0.00  0.00    +0.000 OA
ATOM     21  H   UNL     1       1.008   3.670  20.243  0.00  0.00    +0.000 HD
ENDBRANCH  19  20
ENDBRANCH  11  19
ENDBRANCH   1  14
BRANCH   5  22
ATOM     22  O   UNL     1       7.850   8.167  17.067  0.00  0.00    +0.000 OA
ATOM     23  H   UNL     1       8.579   8.552  17.568  0.00  0.00    +0.000 HD
ENDBRANCH   5  22
TORSDOF 5
ENDMDL
MODEL 4
REMARK VINA RESULT:      -6.8      2.372      5.767
REMARK  Name = 
REMARK  5 active torsions:
REMARK  status: ('A' for Active; 'I' for Inactive)
REMARK    1  A    between atoms: O_1  and  C_2
REMARK    2  A    between atoms: C_2  and  CA_3
REMARK    3  A    between atoms: C_5  and  O_6
REMARK    4  A    between atoms: C_7  and  C_8
REMARK    5  A    between atoms: C_12  and  O_13
REMARK                            x       y       z     vdW  Elec       q    Type
REMARK                         _______ _______ _______ _____ _____    ______ ____
ROOT
ATOM      1  C   UNL     1       4.304   5.816  18.345  0.00  0.00    +0.000 A 
ATOM      2  C   UNL     1       3.872   6.542  17.248  0.00  0.00    +0.000 A 
ATOM      3  N   UNL     1       4.823   6.472  16.267  0.00  0.00    +0.000 N 
ATOM      4  C   UNL     1       5.884   5.718  16.693  0.00  0.00    +0.000 A 
ATOM      5  C   UNL     1       7.083   5.345  16.112  0.00  0.00    +0.000 A 
ATOM      6  N   UNL     1       7.946   4.604  16.815  0.00  0.00    +0.000 NA
ATOM      7  C   UNL     1       7.588   4.253  18.061  0.00  0.00    +0.000 A 
ATOM      8  N   UNL     1       6.446   4.541  18.712  0.00  0.00    +0.000 NA
ATOM      9  C   UNL     1       5.592   5.299  17.988  0.00  0.00    +0.000 A 
ATOM     10  H   UNL     1       4.750   6.925  15.368  0.00  0.00    +0.000 HD
ENDROOT
BRANCH   1  14
ATOM     11  CA  UNL     1       2.245   4.209  20.909  0.00  0.00    +0.000 C 
ATOM     12  C   UNL     1       1.329   5.353  20.491  0.00  0.00    +0.000 C 
ATOM     13  C   UNL     1       2.242   6.334  19.750  0.00  0.00    +0.000 C 
ATOM     14  C   UNL     1       3.605   5.611  19.652  0.00  0.00    +0.000 C 
ATOM     15  N   UNL     1       3.245   4.189  19.830  0.00  0.00    +0.000 NA
ATOM     16  H   UNL     1       4.056   3.642  20.113  0.00  0.00    +0.000 HD
BRANCH  13  17
ATOM     17  O   UNL     1       2.300   7.561  20.476  0.00  0.00    +0.000 OA
ATOM     18  H   UNL     1       3.122   8.019  20.237  0.00  0.00    +0.000 HD
ENDBRANCH  13  17
BRANCH  11  19
ATOM     19  C   UNL     1       1.483   2.893  21.101  0.00  0.00    +0.000 C 
BRANCH  19  20
ATOM     20  O   UNL     1       1.812   2.307  22.358  0.00  0.00    +0.000 OA
ATOM     21  H   UNL     1       1.224   2.715  23.017  0.00  0.00    +0.000 HD
ENDBRANCH  19  20
ENDBRANCH  11  19
ENDBRANCH   1  14
BRANCH   5  22
ATOM     22  O   UNL     1       7.473   5.678  14.843  0.00  0.00    +0.000 OA
ATOM     23  H   UNL     1       6.992   5.114  14.225  0.00  0.00    +0.000 HD
ENDBRANCH   5  22
TORSDOF 5
ENDMDL
MODEL 5
REMARK VINA RESULT:      -6.6      1.208      1.268
REMARK  Name = 
REMARK  5 active torsions:
REMARK  status: ('A' for Active; 'I' for Inactive)
REMARK    1  A    between atoms: O_1  and  C_2
REMARK    2  A    between atoms: C_2  and  CA_3
REMARK    3  A    between atoms: C_5  and  O_6
REMARK    4  A    between atoms: C_7  and  C_8
REMARK    5  A    between atoms: C_12  and  O_13
REMARK                            x       y       z     vdW  Elec       q    Type
REMARK                         _______ _______ _______ _____ _____    ______ ____
ROOT
ATOM      1  C   UNL     1       4.062   3.735  17.781  0.00  0.00    +0.000 A 
ATOM      2  C   UNL     1       3.037   3.898  16.864  0.00  0.00    +0.000 A 
ATOM      3  N   UNL     1       1.848   3.587  17.467  0.00  0.00    +0.000 N 
ATOM      4  C   UNL     1       2.064   3.215  18.768  0.00  0.00    +0.000 A 
ATOM      5  C   UNL     1       1.229   2.808  19.794  0.00  0.00    +0.000 A 
ATOM      6  N   UNL     1       1.760   2.479  20.975  0.00  0.00    +0.000 NA
ATOM      7  C   UNL     1       3.094   2.573  21.101  0.00  0.00    +0.000 A 
ATOM      8  N   UNL     1       3.991   2.974  20.182  0.00  0.00    +0.000 NA
ATOM      9  C   UNL     1       3.436   3.292  18.991  0.00  0.00    +0.000 A 
ATOM     10  H   UNL     1       0.950   3.618  17.007  0.00  0.00    +0.000 HD
ENDROOT
BRANCH   1  14
ATOM     11  CA  UNL     1       7.433   5.057  18.314  0.00  0.00    +0.000 C 
ATOM     12  C   UNL     1       7.053   5.773  17.023  0.00  0.00    +0.000 C 
ATOM     13  C   UNL     1       5.860   4.984  16.477  0.00  0.00    +0.000 C 
ATOM     14  C   UNL     1       5.528   3.951  17.577  0.00  0.00    +0.000 C 
ATOM     15  N   UNL     1       6.139   4.540  18.786  0.00  0.00    +0.000 NA
ATOM     16  H   UNL     1       6.285   3.830  19.503  0.00  0.00    +0.000 HD
BRANCH  13  17
ATOM     17  O   UNL     1       6.220   4.392  15.230  0.00  0.00    +0.000 OA
ATOM     18  H   UNL     1       6.031   5.030  14.523  0.00  0.00    +0.000 HD
ENDBRANCH  13  17
BRANCH  11  19
ATOM     19  C   UNL     1       8.153   5.982  19.303  0.00  0.00    +0.000 C 
BRANCH  19  20
ATOM     20  O   UNL     1       8.111   5.433  20.617  0.00  0.00    +0.000 OA
ATOM     21  H   UNL     1       8.113   4.466  20.514  0.00  0.00    +0.000 HD
ENDBRANCH  19  20
ENDBRANCH  11  19
ENDBRANCH   1  14
BRANCH   5  22
ATOM     22  O   UNL     1      -0.133   2.711  19.700  0.00  0.00    +0.000 OA
ATOM     23  H   UNL     1      -0.387   1.815  19.952  0.00  0.00    +0.000 HD
ENDBRANCH   5  22
TORSDOF 5
ENDMDL
MODEL 6
REMARK VINA RESULT:      -6.6      2.851      6.070
REMARK  Name = 
REMARK  5 active torsions:
REMARK  status: ('A' for Active; 'I' for Inactive)
REMARK    1  A    between atoms: O_1  and  C_2
REMARK    2  A    between atoms: C_2  and  CA_3
REMARK    3  A    between atoms: C_5  and  O_6
REMARK    4  A    between atoms: C_7  and  C_8
REMARK    5  A    between atoms: C_12  and  O_13
REMARK                            x       y       z     vdW  Elec       q    Type
REMARK                         _______ _______ _______ _____ _____    ______ ____
ROOT
ATOM      1  C   UNL     1       5.812   5.292  17.246  0.00  0.00    +0.000 A 
ATOM      2  C   UNL     1       6.814   6.225  17.457  0.00  0.00    +0.000 A 
ATOM      3  N   UNL     1       7.558   6.344  16.314  0.00  0.00    +0.000 N 
ATOM      4  C   UNL     1       7.072   5.503  15.347  0.00  0.00    +0.000 A 
ATOM      5  C   UNL     1       7.447   5.232  14.043  0.00  0.00    +0.000 A 
ATOM      6  N   UNL     1       6.770   4.314  13.347  0.00  0.00    +0.000 NA
ATOM      7  C   UNL     1       5.743   3.705  13.962  0.00  0.00    +0.000 A 
ATOM      8  N   UNL     1       5.282   3.905  15.210  0.00  0.00    +0.000 NA
ATOM      9  C   UNL     1       5.987   4.830  15.901  0.00  0.00    +0.000 A 
ATOM     10  H   UNL     1       8.353   6.956  16.212  0.00  0.00    +0.000 HD
ENDROOT
BRANCH   1  14
ATOM     11  CA  UNL     1       3.356   3.088  18.830  0.00  0.00    +0.000 C 
ATOM     12  C   UNL     1       2.434   4.106  18.169  0.00  0.00    +0.000 C 
ATOM     13  C   UNL     1       3.337   5.300  17.848  0.00  0.00    +0.000 C 
ATOM     14  C   UNL     1       4.764   4.828  18.207  0.00  0.00    +0.000 C 
ATOM     15  N   UNL     1       4.647   3.355  18.177  0.00  0.00    +0.000 NA
ATOM     16  H   UNL     1       5.404   2.920  18.704  0.00  0.00    +0.000 HD
BRANCH  13  17
ATOM     17  O   UNL     1       2.904   6.431  18.605  0.00  0.00    +0.000 OA
ATOM     18  H   UNL     1       3.596   7.110  18.560  0.00  0.00    +0.000 HD
ENDBRANCH  13  17
BRANCH  11  19
ATOM     19  C   UNL     1       2.845   1.651  18.675  0.00  0.00    +0.000 C 
BRANCH  19  20
ATOM     20  O   UNL     1       3.925   0.769  18.379  0.00  0.00    +0.000 OA
ATOM     21  H   UNL     1       4.742   1.248  18.600  0.00  0.00    +0.000 HD
ENDBRANCH  19  20
ENDBRANCH  11  19
ENDBRANCH   1  14
BRANCH   5  22
ATOM     22  O   UNL     1       8.482   5.841  13.386  0.00  0.00    +0.000 OA
ATOM     23  H   UNL     1       8.809   5.231  12.714  0.00  0.00    +0.000 HD
ENDBRANCH   5  22
TORSDOF 5
ENDMDL
MODEL 7
REMARK VINA RESULT:      -6.5      1.190      1.204
REMARK  Name = 
REMARK  5 active torsions:
REMARK  status: ('A' for Active; 'I' for Inactive)
REMARK    1  A    between atoms: O_1  and  C_2
REMARK    2  A    between atoms: C_2  and  CA_3
REMARK    3  A    between atoms: C_5  and  O_6
REMARK    4  A    between atoms: C_7  and  C_8
REMARK    5  A    between atoms: C_12  and  O_13
REMARK                            x       y       z     vdW  Elec       q    Type
REMARK                         _______ _______ _______ _____ _____    ______ ____
ROOT
ATOM      1  C   UNL     1       4.196   3.410  17.866  0.00  0.00    +0.000 A 
ATOM      2  C   UNL     1       3.684   2.132  17.717  0.00  0.00    +0.000 A 
ATOM      3  N   UNL     1       2.563   2.008  18.492  0.00  0.00    +0.000 N 
ATOM      4  C   UNL     1       2.321   3.180  19.159  0.00  0.00    +0.000 A 
ATOM      5  C   UNL     1       1.347   3.584  20.054  0.00  0.00    +0.000 A 
ATOM      6  N   UNL     1       1.400   4.818  20.564  0.00  0.00    +0.000 NA
ATOM      7  C   UNL     1       2.409   5.609  20.163  0.00  0.00    +0.000 A 
ATOM      8  N   UNL     1       3.392   5.328  19.289  0.00  0.00    +0.000 NA
ATOM      9  C   UNL     1       3.326   4.071  18.793  0.00  0.00    +0.000 A 
ATOM     10  H   UNL     1       2.010   1.167  18.564  0.00  0.00    +0.000 HD
ENDROOT
BRANCH   1  14
ATOM     11  CA  UNL     1       7.021   5.672  17.320  0.00  0.00    +0.000 C 
ATOM     12  C   UNL     1       6.096   6.101  16.187  0.00  0.00    +0.000 C 
ATOM     13  C   UNL     1       5.092   4.953  16.047  0.00  0.00    +0.000 C 
ATOM     14  C   UNL     1       5.410   4.001  17.222  0.00  0.00    +0.000 C 
ATOM     15  N   UNL     1       6.130   4.872  18.175  0.00  0.00    +0.000 NA
ATOM     16  H   UNL     1       6.677   4.318  18.831  0.00  0.00    +0.000 HD
BRANCH  13  17
ATOM     17  O   UNL     1       5.248   4.347  14.765  0.00  0.00    +0.000 OA
ATOM     18  H   UNL     1       5.508   3.420  14.896  0.00  0.00    +0.000 HD
ENDBRANCH  13  17
BRANCH  11  19
ATOM     19  C   UNL     1       7.677   6.868  18.020  0.00  0.00    +0.000 C 
BRANCH  19  20
ATOM     20  O   UNL     1       7.734   7.988  17.141  0.00  0.00    +0.000 OA
ATOM     21  H   UNL     1       6.857   8.409  17.172  0.00  0.00    +0.000 HD
ENDBRANCH  19  20
ENDBRANCH  11  19
ENDBRANCH   1  14
BRANCH   5  22
ATOM     22  O   UNL     1       0.301   2.806  20.473  0.00  0.00    +0.000 OA
ATOM     23  H   UNL     1       0.432   1.916  20.124  0.00  0.00    +0.000 HD
ENDBRANCH   5  22
TORSDOF 5
ENDMDL
MODEL 8
REMARK VINA RESULT:      -6.5      2.095      5.624
REMARK  Name = 
REMARK  5 active torsions:
REMARK  status: ('A' for Active; 'I' for Inactive)
REMARK    1  A    between atoms: O_1  and  C_2
REMARK    2  A    between atoms: C_2  and  CA_3
REMARK    3  A    between atoms: C_5  and  O_6
REMARK    4  A    between atoms: C_7  and  C_8
REMARK    5  A    between atoms: C_12  and  O_13
REMARK                            x       y       z     vdW  Elec       q    Type
REMARK                         _______ _______ _______ _____ _____    ______ ____
ROOT
ATOM      1  C   UNL     1       4.515   4.640  18.221  0.00  0.00    +0.000 A 
ATOM      2  C   UNL     1       4.193   3.743  17.215  0.00  0.00    +0.000 A 
ATOM      3  N   UNL     1       5.053   3.924  16.167  0.00  0.00    +0.000 N 
ATOM      4  C   UNL     1       5.939   4.929  16.453  0.00  0.00    +0.000 A 
ATOM      5  C   UNL     1       6.986   5.504  15.755  0.00  0.00    +0.000 A 
ATOM      6  N   UNL     1       7.664   6.513  16.311  0.00  0.00    +0.000 NA
ATOM      7  C   UNL     1       7.288   6.909  17.537  0.00  0.00    +0.000 A 
ATOM      8  N   UNL     1       6.305   6.411  18.309  0.00  0.00    +0.000 NA
ATOM      9  C   UNL     1       5.625   5.398  17.725  0.00  0.00    +0.000 A 
ATOM     10  H   UNL     1       5.023   3.397  15.306  0.00  0.00    +0.000 HD
ENDROOT
BRANCH   1  14
ATOM     11  CA  UNL     1       2.368   3.919  21.096  0.00  0.00    +0.000 C 
ATOM     12  C   UNL     1       1.599   5.068  20.453  0.00  0.00    +0.000 C 
ATOM     13  C   UNL     1       2.605   5.729  19.507  0.00  0.00    +0.000 C 
ATOM     14  C   UNL     1       3.851   4.817  19.550  0.00  0.00    +0.000 C 
ATOM     15  N   UNL     1       3.308   3.530  20.034  0.00  0.00    +0.000 NA
ATOM     16  H   UNL     1       4.049   2.945  20.418  0.00  0.00    +0.000 HD
BRANCH  13  17
ATOM     17  O   UNL     1       2.860   7.061  19.951  0.00  0.00    +0.000 OA
ATOM     18  H   UNL     1       2.054   7.587  19.819  0.00  0.00    +0.000 HD
ENDBRANCH  13  17
BRANCH  11  19
ATOM     19  C   UNL     1       1.442   2.794  21.576  0.00  0.00    +0.000 C 
BRANCH  19  20
ATOM     20  O   UNL     1       0.376   2.600  20.650  0.00  0.00    +0.000 OA
ATOM     21  H   UNL     1       0.759   2.699  19.761  0.00  0.00    +0.000 HD
ENDBRANCH  19  20
ENDBRANCH  11  19
ENDBRANCH   1  14
BRANCH   5  22
ATOM     22  O   UNL     1       7.400   5.117  14.509  0.00  0.00    +0.000 OA
ATOM     23  H   UNL     1       7.474   4.155  14.504  0.00  0.00    +0.000 HD
ENDBRANCH   5  22
TORSDOF 5
ENDMDL
MODEL 9
REMARK VINA RESULT:      -6.5      2.491      5.876
REMARK  Name = 
REMARK  5 active torsions:
REMARK  status: ('A' for Active; 'I' for Inactive)
REMARK    1  A    between atoms: O_1  and  C_2
REMARK    2  A    between atoms: C_2  and  CA_3
REMARK    3  A    between atoms: C_5  and  O_6
REMARK    4  A    between atoms: C_7  and  C_8
REMARK    5  A    between atoms: C_12  and  O_13
REMARK                            x       y       z     vdW  Elec       q    Type
REMARK                         _______ _______ _______ _____ _____    ______ ____
ROOT
ATOM      1  C   UNL     1       5.687   5.170  18.086  0.00  0.00    +0.000 A 
ATOM      2  C   UNL     1       6.790   5.982  18.293  0.00  0.00    +0.000 A 
ATOM      3  N   UNL     1       7.486   6.094  17.120  0.00  0.00    +0.000 N 
ATOM      4  C   UNL     1       6.869   5.367  16.136  0.00  0.00    +0.000 A 
ATOM      5  C   UNL     1       7.151   5.139  14.801  0.00  0.00    +0.000 A 
ATOM      6  N   UNL     1       6.349   4.339  14.092  0.00  0.00    +0.000 NA
ATOM      7  C   UNL     1       5.294   3.802  14.728  0.00  0.00    +0.000 A 
ATOM      8  N   UNL     1       4.918   3.971  16.008  0.00  0.00    +0.000 NA
ATOM      9  C   UNL     1       5.748   4.776  16.710  0.00  0.00    +0.000 A 
ATOM     10  H   UNL     1       8.336   6.627  17.010  0.00  0.00    +0.000 HD
ENDROOT
BRANCH   1  14
ATOM     11  CA  UNL     1       2.962   3.237  19.579  0.00  0.00    +0.000 C 
ATOM     12  C   UNL     1       2.219   4.508  19.184  0.00  0.00    +0.000 C 
ATOM     13  C   UNL     1       3.320   5.546  18.950  0.00  0.00    +0.000 C 
ATOM     14  C   UNL     1       4.644   4.758  19.075  0.00  0.00    +0.000 C 
ATOM     15  N   UNL     1       4.226   3.361  18.837  0.00  0.00    +0.000 NA
ATOM     16  H   UNL     1       4.916   2.708  19.206  0.00  0.00    +0.000 HD
BRANCH  13  17
ATOM     17  O   UNL     1       3.188   6.593  19.911  0.00  0.00    +0.000 OA
ATOM     18  H   UNL     1       3.989   7.142  19.876  0.00  0.00    +0.000 HD
ENDBRANCH  13  17
BRANCH  11  19
ATOM     19  C   UNL     1       2.157   1.970  19.267  0.00  0.00    +0.000 C 
BRANCH  19  20
ATOM     20  O   UNL     1       2.231   1.665  17.877  0.00  0.00    +0.000 OA
ATOM     21  H   UNL     1       3.174   1.551  17.668  0.00  0.00    +0.000 HD
ENDBRANCH  19  20
ENDBRANCH  11  19
ENDBRANCH   1  14
BRANCH   5  22
ATOM     22  O   UNL     1       8.210   5.679  14.123  0.00  0.00    +0.000 OA
ATOM     23  H   UNL     1       8.928   5.034  14.127  0.00  0.00    +0.000 HD
ENDBRANCH   5  22
TORSDOF 5
ENDMDL
