MODEL 1
REMARK VINA RESULT:      -8.1      0.000      0.000
REMARK  Name = 
REMARK  4 active torsions:
REMARK  status: ('A' for Active; 'I' for Inactive)
REMARK    1  A    between atoms: C_1  and  C_2
REMARK    2  A    between atoms: C_8  and  C_9
REMARK    3  A    between atoms: C_16  and  C_17
REMARK    4  A    between atoms: C_17  and  N_18
REMARK                            x       y       z     vdW  Elec       q    Type
REMARK                         _______ _______ _______ _____ _____    ______ ____
ROOT
ATOM      1  C   UNL     1       4.811   7.557  16.398  0.00  0.00    +0.000 C 
ATOM      2  C   UNL     1       4.393   6.602  17.449  0.00  0.00    +0.000 A 
ATOM      3  O   UNL     1       3.162   6.870  17.953  0.00  0.00    +0.000 OA
ATOM      4  C   UNL     1       2.867   5.910  18.849  0.00  0.00    +0.000 A 
ATOM      5  C   UNL     1       1.665   5.841  19.541  0.00  0.00    +0.000 A 
ATOM      6  C   UNL     1       1.502   4.765  20.414  0.00  0.00    +0.000 A 
ATOM      7  C   UNL     1       2.501   3.795  20.587  0.00  0.00    +0.000 A 
ATOM      8  C   UNL     1       2.331   2.644  21.493  0.00  0.00    +0.000 A 
ATOM      9  C   UNL     1       1.092   2.421  22.317  0.00  0.00    +0.000 C 
ATOM     10  C   UNL     1       3.331   1.756  21.575  0.00  0.00    +0.000 A 
ATOM     11  C   UNL     1       4.587   1.861  20.826  0.00  0.00    +0.000 A 
ATOM     12  O   UNL     1       5.457   1.005  20.948  0.00  0.00    +0.000 OA
ATOM     13  O   UNL     1       4.730   2.957  19.996  0.00  0.00    +0.000 OA
ATOM     14  C   UNL     1       3.709   3.925  19.856  0.00  0.00    +0.000 A 
ATOM     15  C   UNL     1       3.912   5.004  18.965  0.00  0.00    +0.000 A 
ATOM     16  C   UNL     1       4.939   5.468  18.053  0.00  0.00    +0.000 A 
ENDROOT
BRANCH  16  17
ATOM     17  C   UNL     1       6.263   4.816  17.739  0.00  0.00    +0.000 C 
BRANCH  17  18
ATOM     18  N   UNL     1       6.442   4.548  16.318  0.00  0.00    +0.000 N 
ATOM     19  C   UNL     1       7.212   5.307  15.487  0.00  0.00    +0.000 C 
ATOM     20  O   UNL     1       7.866   6.309  15.718  0.00  0.00    +0.000 OA
ATOM     21  C   UNL     1       7.040   4.785  14.140  0.00  0.00    +0.000 A 
ATOM     22  C   UNL     1       7.742   5.063  12.983  0.00  0.00    +0.000 A 
ATOM     23  C   UNL     1       7.356   4.384  11.825  0.00  0.00    +0.000 A 
ATOM     24  C   UNL     1       6.260   3.499  11.843  0.00  0.00    +0.000 A 
ATOM     25  C   UNL     1       5.549   3.256  13.029  0.00  0.00    +0.000 A 
ATOM     26  C   UNL     1       5.989   3.893  14.176  0.00  0.00    +0.000 A 
ATOM     27  C   UNL     1       5.545   3.815  15.574  0.00  0.00    +0.000 C 
ATOM     28  O   UNL     1       4.527   3.257  15.925  0.00  0.00    +0.000 OA
ENDBRANCH  17  18
ENDBRANCH  16  17
TORSDOF 2
ENDMDL
MODEL 2
REMARK VINA RESULT:      -8.1      2.648      4.901
REMARK  Name = 
REMARK  4 active torsions:
REMARK  status: ('A' for Active; 'I' for Inactive)
REMARK    1  A    between atoms: C_1  and  C_2
REMARK    2  A    between atoms: C_8  and  C_9
REMARK    3  A    between atoms: C_16  and  C_17
REMARK    4  A    between atoms: C_17  and  N_18
REMARK                            x       y       z     vdW  Elec       q    Type
REMARK                         _______ _______ _______ _____ _____    ______ ____
ROOT
ATOM      1  C   UNL     1       4.059   1.062  17.909  0.00  0.00    +0.000 C 
ATOM      2  C   UNL     1       3.464   2.352  18.328  0.00  0.00    +0.000 A 
ATOM      3  O   UNL     1       2.651   2.237  19.408  0.00  0.00    +0.000 OA
ATOM      4  C   UNL     1       2.221   3.471  19.730  0.00  0.00    +0.000 A 
ATOM      5  C   UNL     1       1.394   3.743  20.813  0.00  0.00    +0.000 A 
ATOM      6  C   UNL     1       1.062   5.081  21.030  0.00  0.00    +0.000 A 
ATOM      7  C   UNL     1       1.538   6.105  20.199  0.00  0.00    +0.000 A 
ATOM      8  C   UNL     1       1.208   7.524  20.432  0.00  0.00    +0.000 A 
ATOM      9  C   UNL     1       0.325   7.990  21.557  0.00  0.00    +0.000 C 
ATOM     10  C   UNL     1       1.730   8.435  19.599  0.00  0.00    +0.000 A 
ATOM     11  C   UNL     1       2.602   8.110  18.466  0.00  0.00    +0.000 A 
ATOM     12  O   UNL     1       3.047   9.000  17.749  0.00  0.00    +0.000 OA
ATOM     13  O   UNL     1       2.883   6.772  18.258  0.00  0.00    +0.000 OA
ATOM     14  C   UNL     1       2.374   5.762  19.106  0.00  0.00    +0.000 A 
ATOM     15  C   UNL     1       2.729   4.417  18.852  0.00  0.00    +0.000 A 
ATOM     16  C   UNL     1       3.541   3.680  17.904  0.00  0.00    +0.000 A 
ENDROOT
BRANCH  16  17
ATOM     17  C   UNL     1       4.375   4.229  16.772  0.00  0.00    +0.000 C 
BRANCH  17  18
ATOM     18  N   UNL     1       5.296   5.273  17.199  0.00  0.00    +0.000 N 
ATOM     19  C   UNL     1       5.529   6.421  16.500  0.00  0.00    +0.000 C 
ATOM     20  O   UNL     1       5.068   6.803  15.439  0.00  0.00    +0.000 OA
ATOM     21  C   UNL     1       6.588   7.141  17.192  0.00  0.00    +0.000 A 
ATOM     22  C   UNL     1       7.047   8.433  17.014  0.00  0.00    +0.000 A 
ATOM     23  C   UNL     1       8.079   8.863  17.851  0.00  0.00    +0.000 A 
ATOM     24  C   UNL     1       8.652   7.985  18.793  0.00  0.00    +0.000 A 
ATOM     25  C   UNL     1       8.181   6.671  18.934  0.00  0.00    +0.000 A 
ATOM     26  C   UNL     1       7.118   6.287  18.136  0.00  0.00    +0.000 A 
ATOM     27  C   UNL     1       6.337   5.045  18.071  0.00  0.00    +0.000 C 
ATOM     28  O   UNL     1       6.652   4.023  18.644  0.00  0.00    +0.000 OA
ENDBRANCH  17  18
ENDBRANCH  16  17
TORSDOF 2
ENDMDL
MODEL 3
REMARK VINA RESULT:      -8.0      3.112      7.431
REMARK  Name = 
REMARK  4 active torsions:
REMARK  status: ('A' for Active; 'I' for Inactive)
REMARK    1  A    between atoms: C_1  and  C_2
REMARK    2  A    between atoms: C_8  and  C_9
REMARK    3  A    between atoms: C_16  and  C_17
REMARK    4  A    between atoms: C_17  and  N_18
REMARK                            x       y       z     vdW  Elec       q    Type
REMARK                         _______ _______ _______ _____ _____    ______ ____
ROOT
ATOM      1  C   UNL     1       0.651   4.329  20.489  0.00  0.00    +0.000 C 
ATOM      2  C   UNL     1       1.814   4.460  19.582  0.00  0.00    +0.000 A 
ATOM      3  O   UNL     1       1.913   3.441  18.692  0.00  0.00    +0.000 OA
ATOM      4  C   UNL     1       2.962   3.697  17.889  0.00  0.00    +0.000 A 
ATOM      5  C   UNL     1       3.343   2.882  16.831  0.00  0.00    +0.000 A 
ATOM      6  C   UNL     1       4.437   3.304  16.075  0.00  0.00    +0.000 A 
ATOM      7  C   UNL     1       5.122   4.493  16.363  0.00  0.00    +0.000 A 
ATOM      8  C   UNL     1       6.267   4.957  15.559  0.00  0.00    +0.000 A 
ATOM      9  C   UNL     1       6.809   4.193  14.381  0.00  0.00    +0.000 C 
ATOM     10  C   UNL     1       6.843   6.119  15.896  0.00  0.00    +0.000 A 
ATOM     11  C   UNL     1       6.411   6.955  17.021  0.00  0.00    +0.000 A 
ATOM     12  O   UNL     1       6.985   8.010  17.266  0.00  0.00    +0.000 OA
ATOM     13  O   UNL     1       5.347   6.491  17.771  0.00  0.00    +0.000 OA
ATOM     14  C   UNL     1       4.688   5.279  17.462  0.00  0.00    +0.000 A 
ATOM     15  C   UNL     1       3.585   4.882  18.254  0.00  0.00    +0.000 A 
ATOM     16  C   UNL     1       2.841   5.386  19.391  0.00  0.00    +0.000 A 
ENDROOT
BRANCH  16  17
ATOM     17  C   UNL     1       3.055   6.679  20.140  0.00  0.00    +0.000 C 
BRANCH  17  18
ATOM     18  N   UNL     1       2.031   7.675  19.859  0.00  0.00    +0.000 N 
ATOM     19  C   UNL     1       1.907   8.330  18.668  0.00  0.00    +0.000 C 
ATOM     20  O   UNL     1       2.575   8.248  17.653  0.00  0.00    +0.000 OA
ATOM     21  C   UNL     1       0.848   9.316  18.825  0.00  0.00    +0.000 A 
ATOM     22  C   UNL     1       0.202  10.085  17.875  0.00  0.00    +0.000 A 
ATOM     23  C   UNL     1      -0.802  10.943  18.327  0.00  0.00    +0.000 A 
ATOM     24  C   UNL     1      -1.093  11.048  19.702  0.00  0.00    +0.000 A 
ATOM     25  C   UNL     1      -0.403  10.272  20.646  0.00  0.00    +0.000 A 
ATOM     26  C   UNL     1       0.545   9.385  20.168  0.00  0.00    +0.000 A 
ATOM     27  C   UNL     1       1.383   8.385  20.844  0.00  0.00    +0.000 C 
ATOM     28  O   UNL     1       1.493   8.306  22.050  0.00  0.00    +0.000 OA
ENDBRANCH  17  18
ENDBRANCH  16  17
TORSDOF 2
ENDMDL
MODEL 4
REMARK VINA RESULT:      -7.9      2.637      4.966
REMARK  Name = 
REMARK  4 active torsions:
REMARK  status: ('A' for Active; 'I' for Inactive)
REMARK    1  A    between atoms: C_1  and  C_2
REMARK    2  A    between atoms: C_8  and  C_9
REMARK    3  A    between atoms: C_16  and  C_17
REMARK    4  A    between atoms: C_17  and  N_18
REMARK                            x       y       z     vdW  Elec       q    Type
REMARK                         _______ _______ _______ _____ _____    ______ ____
ROOT
ATOM      1  C   UNL     1       3.901   0.933  18.037  0.00  0.00    +0.000 C 
ATOM      2  C   UNL     1       3.358   2.259  18.408  0.00  0.00    +0.000 A 
ATOM      3  O   UNL     1       2.581   2.224  19.520  0.00  0.00    +0.000 OA
ATOM      4  C   UNL     1       2.196   3.485  19.791  0.00  0.00    +0.000 A 
ATOM      5  C   UNL     1       1.418   3.837  20.886  0.00  0.00    +0.000 A 
ATOM      6  C   UNL     1       1.130   5.193  21.044  0.00  0.00    +0.000 A 
ATOM      7  C   UNL     1       1.603   6.159  20.144  0.00  0.00    +0.000 A 
ATOM      8  C   UNL     1       1.320   7.596  20.312  0.00  0.00    +0.000 A 
ATOM      9  C   UNL     1       0.491   8.146  21.441  0.00  0.00    +0.000 C 
ATOM     10  C   UNL     1       1.835   8.448  19.414  0.00  0.00    +0.000 A 
ATOM     11  C   UNL     1       2.656   8.039  18.270  0.00  0.00    +0.000 A 
ATOM     12  O   UNL     1       3.098   8.877  17.492  0.00  0.00    +0.000 OA
ATOM     13  O   UNL     1       2.893   6.685  18.124  0.00  0.00    +0.000 OA
ATOM     14  C   UNL     1       2.388   5.735  19.042  0.00  0.00    +0.000 A 
ATOM     15  C   UNL     1       2.698   4.369  18.847  0.00  0.00    +0.000 A 
ATOM     16  C   UNL     1       3.454   3.560  17.912  0.00  0.00    +0.000 A 
ENDROOT
BRANCH  16  17
ATOM     17  C   UNL     1       4.261   4.026  16.723  0.00  0.00    +0.000 C 
BRANCH  17  18
ATOM     18  N   UNL     1       5.321   4.956  17.085  0.00  0.00    +0.000 N 
ATOM     19  C   UNL     1       6.026   4.896  18.252  0.00  0.00    +0.000 C 
ATOM     20  O   UNL     1       5.933   4.123  19.188  0.00  0.00    +0.000 OA
ATOM     21  C   UNL     1       6.904   6.056  18.287  0.00  0.00    +0.000 A 
ATOM     22  C   UNL     1       7.952   6.353  19.138  0.00  0.00    +0.000 A 
ATOM     23  C   UNL     1       8.636   7.549  18.914  0.00  0.00    +0.000 A 
ATOM     24  C   UNL     1       8.226   8.430  17.893  0.00  0.00    +0.000 A 
ATOM     25  C   UNL     1       7.142   8.114  17.060  0.00  0.00    +0.000 A 
ATOM     26  C   UNL     1       6.519   6.895  17.262  0.00  0.00    +0.000 A 
ATOM     27  C   UNL     1       5.430   6.218  16.545  0.00  0.00    +0.000 C 
ATOM     28  O   UNL     1       4.746   6.756  15.700  0.00  0.00    +0.000 OA
ENDBRANCH  17  18
ENDBRANCH  16  17
TORSDOF 2
ENDMDL
MODEL 5
REMARK VINA RESULT:      -7.8      7.887     11.169
REMARK  Name = 
REMARK  4 active torsions:
REMARK  status: ('A' for Active; 'I' for Inactive)
REMARK    1  A    between atoms: C_1  and  C_2
REMARK    2  A    between atoms: C_8  and  C_9
REMARK    3  A    between atoms: C_16  and  C_17
REMARK    4  A    between atoms: C_17  and  N_18
REMARK                            x       y       z     vdW  Elec       q    Type
REMARK                         _______ _______ _______ _____ _____    ______ ____
ROOT
ATOM      1  C   UNL     1      -1.430  14.366  24.034  0.00  0.00    +0.000 C 
ATOM      2  C   UNL     1      -2.179  13.737  22.923  0.00  0.00    +0.000 A 
ATOM      3  O   UNL     1      -3.507  13.618  23.176  0.00  0.00    +0.000 OA
ATOM      4  C   UNL     1      -4.087  13.092  22.081  0.00  0.00    +0.000 A 
ATOM      5  C   UNL     1      -5.452  12.863  21.965  0.00  0.00    +0.000 A 
ATOM      6  C   UNL     1      -5.901  12.340  20.752  0.00  0.00    +0.000 A 
ATOM      7  C   UNL     1      -5.021  12.058  19.697  0.00  0.00    +0.000 A 
ATOM      8  C   UNL     1      -5.488  11.523  18.405  0.00  0.00    +0.000 A 
ATOM      9  C   UNL     1      -6.932  11.215  18.114  0.00  0.00    +0.000 C 
ATOM     10  C   UNL     1      -4.575  11.308  17.447  0.00  0.00    +0.000 A 
ATOM     11  C   UNL     1      -3.141  11.565  17.605  0.00  0.00    +0.000 A 
ATOM     12  O   UNL     1      -2.365  11.349  16.680  0.00  0.00    +0.000 OA
ATOM     13  O   UNL     1      -2.725  12.051  18.831  0.00  0.00    +0.000 OA
ATOM     14  C   UNL     1      -3.637  12.309  19.880  0.00  0.00    +0.000 A 
ATOM     15  C   UNL     1      -3.144  12.836  21.096  0.00  0.00    +0.000 A 
ATOM     16  C   UNL     1      -1.870  13.242  21.655  0.00  0.00    +0.000 A 
ENDROOT
BRANCH  16  17
ATOM     17  C   UNL     1      -0.518  13.236  20.982  0.00  0.00    +0.000 C 
BRANCH  17  18
ATOM     18  N   UNL     1      -0.042  11.895  20.675  0.00  0.00    +0.000 N 
ATOM     19  C   UNL     1       0.190  10.932  21.613  0.00  0.00    +0.000 C 
ATOM     20  O   UNL     1       0.073  10.970  22.825  0.00  0.00    +0.000 OA
ATOM     21  C   UNL     1       0.763   9.785  20.924  0.00  0.00    +0.000 A 
ATOM     22  C   UNL     1       0.985   8.497  21.374  0.00  0.00    +0.000 A 
ATOM     23  C   UNL     1       1.538   7.592  20.466  0.00  0.00    +0.000 A 
ATOM     24  C   UNL     1       1.900   8.006  19.169  0.00  0.00    +0.000 A 
ATOM     25  C   UNL     1       1.685   9.328  18.747  0.00  0.00    +0.000 A 
ATOM     26  C   UNL     1       1.079  10.190  19.644  0.00  0.00    +0.000 A 
ATOM     27  C   UNL     1       0.641  11.587  19.520  0.00  0.00    +0.000 C 
ATOM     28  O   UNL     1       0.928  12.299  18.581  0.00  0.00    +0.000 OA
ENDBRANCH  17  18
ENDBRANCH  16  17
TORSDOF 2
ENDMDL
MODEL 6
REMARK VINA RESULT:      -7.7      7.263     10.193
REMARK  Name = 
REMARK  4 active torsions:
REMARK  status: ('A' for Active; 'I' for Inactive)
REMARK    1  A    between atoms: C_1  and  C_2
REMARK    2  A    between atoms: C_8  and  C_9
REMARK    3  A    between atoms: C_16  and  C_17
REMARK    4  A    between atoms: C_17  and  N_18
REMARK                            x       y       z     vdW  Elec       q    Type
REMARK                         _______ _______ _______ _____ _____    ______ ____
ROOT
ATOM      1  C   UNL     1      -1.653  10.060  17.045  0.00  0.00    +0.000 C 
ATOM      2  C   UNL     1      -2.038  10.934  18.176  0.00  0.00    +0.000 A 
ATOM      3  O   UNL     1      -3.372  11.174  18.233  0.00  0.00    +0.000 OA
ATOM      4  C   UNL     1      -3.608  11.923  19.327  0.00  0.00    +0.000 A 
ATOM      5  C   UNL     1      -4.874  12.331  19.726  0.00  0.00    +0.000 A 
ATOM      6  C   UNL     1      -4.953  13.079  20.901  0.00  0.00    +0.000 A 
ATOM      7  C   UNL     1      -3.812  13.404  21.648  0.00  0.00    +0.000 A 
ATOM      8  C   UNL     1      -3.886  14.178  22.902  0.00  0.00    +0.000 A 
ATOM      9  C   UNL     1      -5.178  14.698  23.472  0.00  0.00    +0.000 C 
ATOM     10  C   UNL     1      -2.744  14.419  23.560  0.00  0.00    +0.000 A 
ATOM     11  C   UNL     1      -1.424  13.969  23.109  0.00  0.00    +0.000 A 
ATOM     12  O   UNL     1      -0.422  14.223  23.768  0.00  0.00    +0.000 OA
ATOM     13  O   UNL     1      -1.377  13.260  21.923  0.00  0.00    +0.000 OA
ATOM     14  C   UNL     1      -2.546  12.962  21.185  0.00  0.00    +0.000 A 
ATOM     15  C   UNL     1      -2.426  12.206  19.996  0.00  0.00    +0.000 A 
ATOM     16  C   UNL     1      -1.375  11.570  19.227  0.00  0.00    +0.000 A 
ENDROOT
BRANCH  16  17
ATOM     17  C   UNL     1       0.100  11.510  19.544  0.00  0.00    +0.000 C 
BRANCH  17  18
ATOM     18  N   UNL     1       0.642  10.160  19.475  0.00  0.00    +0.000 N 
ATOM     19  C   UNL     1       0.718   9.311  20.540  0.00  0.00    +0.000 C 
ATOM     20  O   UNL     1       0.388   9.475  21.702  0.00  0.00    +0.000 OA
ATOM     21  C   UNL     1       1.419   8.117  20.092  0.00  0.00    +0.000 A 
ATOM     22  C   UNL     1       1.576   6.893  20.714  0.00  0.00    +0.000 A 
ATOM     23  C   UNL     1       2.294   5.915  20.022  0.00  0.00    +0.000 A 
ATOM     24  C   UNL     1       2.873   6.200  18.770  0.00  0.00    +0.000 A 
ATOM     25  C   UNL     1       2.717   7.461  18.174  0.00  0.00    +0.000 A 
ATOM     26  C   UNL     1       1.951   8.394  18.850  0.00  0.00    +0.000 A 
ATOM     27  C   UNL     1       1.522   9.754  18.498  0.00  0.00    +0.000 C 
ATOM     28  O   UNL     1       1.960  10.372  17.550  0.00  0.00    +0.000 OA
ENDBRANCH  17  18
ENDBRANCH  16  17
TORSDOF 2
ENDMDL
MODEL 7
REMARK VINA RESULT:      -7.7      4.337      7.097
REMARK  Name = 
REMARK  4 active torsions:
REMARK  status: ('A' for Active; 'I' for Inactive)
REMARK    1  A    between atoms: C_1  and  C_2
REMARK    2  A    between atoms: C_8  and  C_9
REMARK    3  A    between atoms: C_16  and  C_17
REMARK    4  A    between atoms: C_17  and  N_18
REMARK                            x       y       z     vdW  Elec       q    Type
REMARK                         _______ _______ _______ _____ _____    ______ ____
ROOT
ATOM      1  C   UNL     1       3.074   7.392  17.054  0.00  0.00    +0.000 C 
ATOM      2  C   UNL     1       2.313   8.227  18.011  0.00  0.00    +0.000 A 
ATOM      3  O   UNL     1       1.669   9.263  17.418  0.00  0.00    +0.000 OA
ATOM      4  C   UNL     1       0.969   9.909  18.369  0.00  0.00    +0.000 A 
ATOM      5  C   UNL     1       0.155  11.006  18.119  0.00  0.00    +0.000 A 
ATOM      6  C   UNL     1      -0.528  11.545  19.209  0.00  0.00    +0.000 A 
ATOM      7  C   UNL     1      -0.404  11.007  20.499  0.00  0.00    +0.000 A 
ATOM      8  C   UNL     1      -1.136  11.558  21.655  0.00  0.00    +0.000 A 
ATOM      9  C   UNL     1      -2.056  12.744  21.557  0.00  0.00    +0.000 C 
ATOM     10  C   UNL     1      -0.972  10.962  22.844  0.00  0.00    +0.000 A 
ATOM     11  C   UNL     1      -0.105   9.802  23.070  0.00  0.00    +0.000 A 
ATOM     12  O   UNL     1      -0.009   9.305  24.187  0.00  0.00    +0.000 OA
ATOM     13  O   UNL     1       0.585   9.314  21.975  0.00  0.00    +0.000 OA
ATOM     14  C   UNL     1       0.448   9.890  20.691  0.00  0.00    +0.000 A 
ATOM     15  C   UNL     1       1.160   9.318  19.610  0.00  0.00    +0.000 A 
ATOM     16  C   UNL     1       2.068   8.212  19.385  0.00  0.00    +0.000 A 
ENDROOT
BRANCH  16  17
ATOM     17  C   UNL     1       2.559   7.197  20.388  0.00  0.00    +0.000 C 
BRANCH  17  18
ATOM     18  N   UNL     1       2.616   5.845  19.849  0.00  0.00    +0.000 N 
ATOM     19  C   UNL     1       1.612   4.930  19.972  0.00  0.00    +0.000 C 
ATOM     20  O   UNL     1       0.531   5.018  20.526  0.00  0.00    +0.000 OA
ATOM     21  C   UNL     1       2.096   3.679  19.407  0.00  0.00    +0.000 A 
ATOM     22  C   UNL     1       1.411   2.517  19.105  0.00  0.00    +0.000 A 
ATOM     23  C   UNL     1       2.148   1.471  18.544  0.00  0.00    +0.000 A 
ATOM     24  C   UNL     1       3.539   1.594  18.353  0.00  0.00    +0.000 A 
ATOM     25  C   UNL     1       4.211   2.779  18.692  0.00  0.00    +0.000 A 
ATOM     26  C   UNL     1       3.450   3.822  19.189  0.00  0.00    +0.000 A 
ATOM     27  C   UNL     1       3.798   5.198  19.566  0.00  0.00    +0.000 C 
ATOM     28  O   UNL     1       4.938   5.600  19.664  0.00  0.00    +0.000 OA
ENDBRANCH  17  18
ENDBRANCH  16  17
TORSDOF 2
ENDMDL
MODEL 8
REMARK VINA RESULT:      -7.6      7.013      9.984
REMARK  Name = 
REMARK  4 active torsions:
REMARK  status: ('A' for Active; 'I' for Inactive)
REMARK    1  A    between atoms: C_1  and  C_2
REMARK    2  A    between atoms: C_8  and  C_9
REMARK    3  A    between atoms: C_16  and  C_17
REMARK    4  A    between atoms: C_17  and  N_18
REMARK                            x       y       z     vdW  Elec       q    Type
REMARK                         _______ _______ _______ _____ _____    ______ ____
ROOT
ATOM      1  C   UNL     1      -1.867   9.781  17.359  0.00  0.00    +0.000 C 
ATOM      2  C   UNL     1      -1.804  10.887  18.341  0.00  0.00    +0.000 A 
ATOM      3  O   UNL     1      -3.028  11.343  18.709  0.00  0.00    +0.000 OA
ATOM      4  C   UNL     1      -2.847  12.297  19.641  0.00  0.00    +0.000 A 
ATOM      5  C   UNL     1      -3.887  12.965  20.275  0.00  0.00    +0.000 A 
ATOM      6  C   UNL     1      -3.533  13.907  21.241  0.00  0.00    +0.000 A 
ATOM      7  C   UNL     1      -2.194  14.169  21.563  0.00  0.00    +0.000 A 
ATOM      8  C   UNL     1      -1.810  15.149  22.596  0.00  0.00    +0.000 A 
ATOM      9  C   UNL     1      -2.811  15.959  23.374  0.00  0.00    +0.000 C 
ATOM     10  C   UNL     1      -0.505  15.315  22.851  0.00  0.00    +0.000 A 
ATOM     11  C   UNL     1       0.566  14.588  22.163  0.00  0.00    +0.000 A 
ATOM     12  O   UNL     1       1.741  14.789  22.454  0.00  0.00    +0.000 OA
ATOM     13  O   UNL     1       0.183  13.688  21.186  0.00  0.00    +0.000 OA
ATOM     14  C   UNL     1      -1.177  13.458  20.876  0.00  0.00    +0.000 A 
ATOM     15  C   UNL     1      -1.497  12.498  19.887  0.00  0.00    +0.000 A 
ATOM     16  C   UNL     1      -0.795  11.580  19.013  0.00  0.00    +0.000 A 
ENDROOT
BRANCH  16  17
ATOM     17  C   UNL     1       0.693  11.341  18.920  0.00  0.00    +0.000 C 
BRANCH  17  18
ATOM     18  N   UNL     1       1.055   9.939  19.080  0.00  0.00    +0.000 N 
ATOM     19  C   UNL     1       1.043   9.277  20.272  0.00  0.00    +0.000 C 
ATOM     20  O   UNL     1       0.761   9.674  21.389  0.00  0.00    +0.000 OA
ATOM     21  C   UNL     1       1.574   7.944  20.032  0.00  0.00    +0.000 A 
ATOM     22  C   UNL     1       1.584   6.830  20.851  0.00  0.00    +0.000 A 
ATOM     23  C   UNL     1       2.156   5.665  20.334  0.00  0.00    +0.000 A 
ATOM     24  C   UNL     1       2.740   5.660  19.052  0.00  0.00    +0.000 A 
ATOM     25  C   UNL     1       2.736   6.813  18.253  0.00  0.00    +0.000 A 
ATOM     26  C   UNL     1       2.111   7.937  18.762  0.00  0.00    +0.000 A 
ATOM     27  C   UNL     1       1.854   9.264  18.185  0.00  0.00    +0.000 C 
ATOM     28  O   UNL     1       2.349   9.652  17.148  0.00  0.00    +0.000 OA
ENDBRANCH  17  18
ENDBRANCH  16  17
TORSDOF 2
ENDMDL
MODEL 9
REMARK VINA RESULT:      -7.6      7.883     11.066
REMARK  Name = 
REMARK  4 active torsions:
REMARK  status: ('A' for Active; 'I' for Inactive)
REMARK    1  A    between atoms: C_1  and  C_2
REMARK    2  A    between atoms: C_8  and  C_9
REMARK    3  A    between atoms: C_16  and  C_17
REMARK    4  A    between atoms: C_17  and  N_18
REMARK                            x       y       z     vdW  Elec       q    Type
REMARK                         _______ _______ _______ _____ _____    ______ ____
ROOT
ATOM      1  C   UNL     1       1.642   8.981  17.811  0.00  0.00    +0.000 C 
ATOM      2  C   UNL     1       0.428   9.766  18.129  0.00  0.00    +0.000 A 
ATOM      3  O   UNL     1      -0.640   9.428  17.364  0.00  0.00    +0.000 OA
ATOM      4  C   UNL     1      -1.691  10.158  17.780  0.00  0.00    +0.000 A 
ATOM      5  C   UNL     1      -2.969  10.049  17.247  0.00  0.00    +0.000 A 
ATOM      6  C   UNL     1      -3.957  10.857  17.810  0.00  0.00    +0.000 A 
ATOM      7  C   UNL     1      -3.680  11.737  18.866  0.00  0.00    +0.000 A 
ATOM      8  C   UNL     1      -4.721  12.581  19.480  0.00  0.00    +0.000 A 
ATOM      9  C   UNL     1      -6.154  12.587  19.020  0.00  0.00    +0.000 C 
ATOM     10  C   UNL     1      -4.366  13.374  20.501  0.00  0.00    +0.000 A 
ATOM     11  C   UNL     1      -3.006  13.461  21.040  0.00  0.00    +0.000 A 
ATOM     12  O   UNL     1      -2.757  14.207  21.981  0.00  0.00    +0.000 OA
ATOM     13  O   UNL     1      -2.043  12.673  20.437  0.00  0.00    +0.000 OA
ATOM     14  C   UNL     1      -2.353  11.807  19.363  0.00  0.00    +0.000 A 
ATOM     15  C   UNL     1      -1.324  11.007  18.815  0.00  0.00    +0.000 A 
ATOM     16  C   UNL     1       0.087  10.768  19.040  0.00  0.00    +0.000 A 
ENDROOT
BRANCH  16  17
ATOM     17  C   UNL     1       0.976  11.381  20.095  0.00  0.00    +0.000 C 
BRANCH  17  18
ATOM     18  N   UNL     1       1.403  12.733  19.762  0.00  0.00    +0.000 N 
ATOM     19  C   UNL     1       2.262  13.036  18.747  0.00  0.00    +0.000 C 
ATOM     20  O   UNL     1       2.833  12.306  17.956  0.00  0.00    +0.000 OA
ATOM     21  C   UNL     1       2.525  14.466  18.814  0.00  0.00    +0.000 A 
ATOM     22  C   UNL     1       3.156  15.297  17.908  0.00  0.00    +0.000 A 
ATOM     23  C   UNL     1       3.245  16.651  18.241  0.00  0.00    +0.000 A 
ATOM     24  C   UNL     1       2.757  17.120  19.476  0.00  0.00    +0.000 A 
ATOM     25  C   UNL     1       2.142  16.247  20.388  0.00  0.00    +0.000 A 
ATOM     26  C   UNL     1       2.011  14.923  20.009  0.00  0.00    +0.000 A 
ATOM     27  C   UNL     1       1.367  13.775  20.662  0.00  0.00    +0.000 C 
ATOM     28  O   UNL     1       0.971  13.790  21.808  0.00  0.00    +0.000 OA
ENDBRANCH  17  18
ENDBRANCH  16  17
TORSDOF 2
ENDMDL
