MODEL 1
REMARK VINA RESULT:      -7.0      0.000      0.000
REMARK  Name = 
REMARK  7 active torsions:
REMARK  status: ('A' for Active; 'I' for Inactive)
REMARK    1  A    between atoms: C_1  and  C_2
REMARK    2  A    between atoms: C_2  and  C_3
REMARK    3  A    between atoms: C_3  and  S_4
REMARK    4  A    between atoms: S_4  and  C_5
REMARK    5  A    between atoms: C_7  and  S_8
REMARK    6  A    between atoms: S_8  and  C_9
REMARK    7  A    between atoms: N_19  and  C_20
REMARK                            x       y       z     vdW  Elec       q    Type
REMARK                         _______ _______ _______ _____ _____    ______ ____
ROOT
ATOM      1  C   UNL     1      -2.198  12.333  22.363  0.00  0.00    +0.000 A 
ATOM      2  N   UNL     1      -2.077  12.473  21.031  0.00  0.00    +0.000 NA
ATOM      3  C   UNL     1      -1.245  11.632  20.371  0.00  0.00    +0.000 A 
ATOM      4  C   UNL     1      -0.540  10.646  21.067  0.00  0.00    +0.000 A 
ATOM      5  N   UNL     1       0.348   9.689  20.610  0.00  0.00    +0.000 NA
ATOM      6  C   UNL     1       0.827   8.983  21.612  0.00  0.00    +0.000 A 
ATOM      7  N   UNL     1       1.755   8.003  21.495  0.00  0.00    +0.000 N 
ATOM      8  S   UNL     1       0.213   9.430  23.164  0.00  0.00    +0.000 S 
ATOM      9  C   UNL     1      -0.754  10.629  22.434  0.00  0.00    +0.000 A 
ATOM     10  N   UNL     1      -1.566  11.435  23.134  0.00  0.00    +0.000 NA
ATOM     11  H   UNL     1       2.178   7.628  22.334  0.00  0.00    +0.000 HD
ENDROOT
BRANCH   7  12
ATOM     12  C   UNL     1       1.944   7.190  20.360  0.00  0.00    +0.000 A 
ATOM     13  C   UNL     1       1.768   5.804  20.473  0.00  0.00    +0.000 A 
ATOM     14  C   UNL     1       1.955   4.964  19.371  0.00  0.00    +0.000 A 
ATOM     15  C   UNL     1       2.315   5.500  18.136  0.00  0.00    +0.000 A 
ATOM     16  C   UNL     1       2.509   6.871  18.010  0.00  0.00    +0.000 A 
ATOM     17  C   UNL     1       2.339   7.706  19.117  0.00  0.00    +0.000 A 
ENDBRANCH   7  12
BRANCH   1  18
ATOM     18  S   UNL     1      -3.220  13.515  23.213  0.00  0.00    +0.000 S 
BRANCH  18  19
ATOM     19  C   UNL     1      -4.857  12.997  22.605  0.00  0.00    +0.000 C 
BRANCH  19  21
ATOM     20  C   UNL     1      -6.725  14.233  23.779  0.00  0.00    +0.000 C 
ATOM     21  C   UNL     1      -5.852  12.986  23.767  0.00  0.00    +0.000 C 
ENDBRANCH  19  21
ENDBRANCH  18  19
ENDBRANCH   1  18
BRANCH   3  22
ATOM     22  S   UNL     1      -0.953  11.869  18.645  0.00  0.00    +0.000 S 
BRANCH  22  23
ATOM     23  C   UNL     1       0.375  13.053  18.668  0.00  0.00    +0.000 A 
ATOM     24  C   UNL     1       1.688  12.627  18.458  0.00  0.00    +0.000 A 
ATOM     25  C   UNL     1       2.734  13.553  18.404  0.00  0.00    +0.000 A 
ATOM     26  C   UNL     1       2.463  14.911  18.562  0.00  0.00    +0.000 A 
ATOM     27 CL   UNL     1       3.750  16.051  18.489  0.00  0.00    +0.000 Cl
ATOM     28  C   UNL     1       1.157  15.350  18.768  0.00  0.00    +0.000 A 
ATOM     29  C   UNL     1       0.111  14.423  18.818  0.00  0.00    +0.000 A 
ENDBRANCH  22  23
ENDBRANCH   3  22
TORSDOF 6
ENDMDL
MODEL 2
REMARK VINA RESULT:      -6.8      0.626      1.114
REMARK  Name = 
REMARK  7 active torsions:
REMARK  status: ('A' for Active; 'I' for Inactive)
REMARK    1  A    between atoms: C_1  and  C_2
REMARK    2  A    between atoms: C_2  and  C_3
REMARK    3  A    between atoms: C_3  and  S_4
REMARK    4  A    between atoms: S_4  and  C_5
REMARK    5  A    between atoms: C_7  and  S_8
REMARK    6  A    between atoms: S_8  and  C_9
REMARK    7  A    between atoms: N_19  and  C_20
REMARK                            x       y       z     vdW  Elec       q    Type
REMARK                         _______ _______ _______ _____ _____    ______ ____
ROOT
ATOM      1  C   UNL     1      -2.215  12.263  22.312  0.00  0.00    +0.000 A 
ATOM      2  N   UNL     1      -2.098  12.395  20.978  0.00  0.00    +0.000 NA
ATOM      3  C   UNL     1      -1.260  11.557  20.322  0.00  0.00    +0.000 A 
ATOM      4  C   UNL     1      -0.544  10.583  21.023  0.00  0.00    +0.000 A 
ATOM      5  N   UNL     1       0.352   9.631  20.569  0.00  0.00    +0.000 NA
ATOM      6  C   UNL     1       0.840   8.937  21.575  0.00  0.00    +0.000 A 
ATOM      7  N   UNL     1       1.777   7.965  21.463  0.00  0.00    +0.000 N 
ATOM      8  S   UNL     1       0.225   9.388  23.126  0.00  0.00    +0.000 S 
ATOM      9  C   UNL     1      -0.755  10.573  22.390  0.00  0.00    +0.000 A 
ATOM     10  N   UNL     1      -1.573  11.376  23.087  0.00  0.00    +0.000 NA
ATOM     11  H   UNL     1       2.205   7.599  22.303  0.00  0.00    +0.000 HD
ENDROOT
BRANCH   7  12
ATOM     12  C   UNL     1       1.971   7.146  20.332  0.00  0.00    +0.000 A 
ATOM     13  C   UNL     1       1.789   5.761  20.450  0.00  0.00    +0.000 A 
ATOM     14  C   UNL     1       1.982   4.916  19.354  0.00  0.00    +0.000 A 
ATOM     15  C   UNL     1       2.351   5.445  18.118  0.00  0.00    +0.000 A 
ATOM     16  C   UNL     1       2.549   6.815  17.987  0.00  0.00    +0.000 A 
ATOM     17  C   UNL     1       2.375   7.655  19.090  0.00  0.00    +0.000 A 
ENDBRANCH   7  12
BRANCH   1  18
ATOM     18  S   UNL     1      -3.246  13.440  23.157  0.00  0.00    +0.000 S 
BRANCH  18  19
ATOM     19  C   UNL     1      -4.414  13.842  21.817  0.00  0.00    +0.000 C 
BRANCH  19  21
ATOM     20  C   UNL     1      -6.896  13.644  21.376  0.00  0.00    +0.000 C 
ATOM     21  C   UNL     1      -5.659  12.964  21.948  0.00  0.00    +0.000 C 
ENDBRANCH  19  21
ENDBRANCH  18  19
ENDBRANCH   1  18
BRANCH   3  22
ATOM     22  S   UNL     1      -0.975  11.786  18.594  0.00  0.00    +0.000 S 
BRANCH  22  23
ATOM     23  C   UNL     1       0.325  13.001  18.606  0.00  0.00    +0.000 A 
ATOM     24  C   UNL     1       0.008  14.355  18.741  0.00  0.00    +0.000 A 
ATOM     25  C   UNL     1       1.021  15.315  18.822  0.00  0.00    +0.000 A 
ATOM     26  C   UNL     1       2.356  14.919  18.768  0.00  0.00    +0.000 A 
ATOM     27 CL   UNL     1       3.602  16.101  18.875  0.00  0.00    +0.000 Cl
ATOM     28  C   UNL     1       2.686  13.571  18.639  0.00  0.00    +0.000 A 
ATOM     29  C   UNL     1       1.671  12.611  18.561  0.00  0.00    +0.000 A 
ENDBRANCH  22  23
ENDBRANCH   3  22
TORSDOF 6
ENDMDL
MODEL 3
REMARK VINA RESULT:      -6.7      3.419      8.192
REMARK  Name = 
REMARK  7 active torsions:
REMARK  status: ('A' for Active; 'I' for Inactive)
REMARK    1  A    between atoms: C_1  and  C_2
REMARK    2  A    between atoms: C_2  and  C_3
REMARK    3  A    between atoms: C_3  and  S_4
REMARK    4  A    between atoms: S_4  and  C_5
REMARK    5  A    between atoms: C_7  and  S_8
REMARK    6  A    between atoms: S_8  and  C_9
REMARK    7  A    between atoms: N_19  and  C_20
REMARK                            x       y       z     vdW  Elec       q    Type
REMARK                         _______ _______ _______ _____ _____    ______ ____
ROOT
ATOM      1  C   UNL     1       0.476   9.973  18.298  0.00  0.00    +0.000 A 
ATOM      2  N   UNL     1       0.550  11.053  19.097  0.00  0.00    +0.000 NA
ATOM      3  C   UNL     1      -0.584  11.757  19.329  0.00  0.00    +0.000 A 
ATOM      4  C   UNL     1      -1.793  11.361  18.750  0.00  0.00    +0.000 A 
ATOM      5  N   UNL     1      -3.056  11.916  18.848  0.00  0.00    +0.000 NA
ATOM      6  C   UNL     1      -3.913  11.255  18.100  0.00  0.00    +0.000 A 
ATOM      7  N   UNL     1      -5.218  11.581  17.944  0.00  0.00    +0.000 N 
ATOM      8  S   UNL     1      -3.237   9.910  17.251  0.00  0.00    +0.000 S 
ATOM      9  C   UNL     1      -1.714  10.241  17.942  0.00  0.00    +0.000 A 
ATOM     10  N   UNL     1      -0.622   9.507  17.682  0.00  0.00    +0.000 NA
ATOM     11  H   UNL     1      -5.758  11.112  17.228  0.00  0.00    +0.000 HD
ENDROOT
BRANCH   7  12
ATOM     12  C   UNL     1      -6.013  12.245  18.899  0.00  0.00    +0.000 A 
ATOM     13  C   UNL     1      -6.416  11.557  20.052  0.00  0.00    +0.000 A 
ATOM     14  C   UNL     1      -7.213  12.180  21.018  0.00  0.00    +0.000 A 
ATOM     15  C   UNL     1      -7.611  13.505  20.849  0.00  0.00    +0.000 A 
ATOM     16  C   UNL     1      -7.232  14.197  19.704  0.00  0.00    +0.000 A 
ATOM     17  C   UNL     1      -6.452  13.566  18.731  0.00  0.00    +0.000 A 
ENDBRANCH   7  12
BRANCH   1  18
ATOM     18  S   UNL     1       1.997   9.128  17.933  0.00  0.00    +0.000 S 
BRANCH  18  19
ATOM     19  C   UNL     1       2.003   7.910  19.288  0.00  0.00    +0.000 C 
BRANCH  19  21
ATOM     20  C   UNL     1       2.678   5.546  19.877  0.00  0.00    +0.000 C 
ATOM     21  C   UNL     1       2.777   6.666  18.851  0.00  0.00    +0.000 C 
ENDBRANCH  19  21
ENDBRANCH  18  19
ENDBRANCH   1  18
BRANCH   3  22
ATOM     22  S   UNL     1      -0.503  13.256  20.261  0.00  0.00    +0.000 S 
BRANCH  22  23
ATOM     23  C   UNL     1      -1.727  12.959  21.518  0.00  0.00    +0.000 A 
ATOM     24  C   UNL     1      -1.524  11.946  22.458  0.00  0.00    +0.000 A 
ATOM     25  C   UNL     1      -2.442  11.746  23.493  0.00  0.00    +0.000 A 
ATOM     26  C   UNL     1      -3.566  12.564  23.588  0.00  0.00    +0.000 A 
ATOM     27 CL   UNL     1      -4.692  12.320  24.866  0.00  0.00    +0.000 Cl
ATOM     28  C   UNL     1      -3.778  13.581  22.660  0.00  0.00    +0.000 A 
ATOM     29  C   UNL     1      -2.857  13.782  21.626  0.00  0.00    +0.000 A 
ENDBRANCH  22  23
ENDBRANCH   3  22
TORSDOF 6
ENDMDL
MODEL 4
REMARK VINA RESULT:      -6.6      3.343      8.249
REMARK  Name = 
REMARK  7 active torsions:
REMARK  status: ('A' for Active; 'I' for Inactive)
REMARK    1  A    between atoms: C_1  and  C_2
REMARK    2  A    between atoms: C_2  and  C_3
REMARK    3  A    between atoms: C_3  and  S_4
REMARK    4  A    between atoms: S_4  and  C_5
REMARK    5  A    between atoms: C_7  and  S_8
REMARK    6  A    between atoms: S_8  and  C_9
REMARK    7  A    between atoms: N_19  and  C_20
REMARK                            x       y       z     vdW  Elec       q    Type
REMARK                         _______ _______ _______ _____ _____    ______ ____
ROOT
ATOM      1  C   UNL     1       0.638  10.036  18.380  0.00  0.00    +0.000 A 
ATOM      2  N   UNL     1       0.853  11.018  19.274  0.00  0.00    +0.000 NA
ATOM      3  C   UNL     1      -0.194  11.797  19.635  0.00  0.00    +0.000 A 
ATOM      4  C   UNL     1      -1.462  11.574  19.089  0.00  0.00    +0.000 A 
ATOM      5  N   UNL     1      -2.659  12.231  19.310  0.00  0.00    +0.000 NA
ATOM      6  C   UNL     1      -3.610  11.729  18.551  0.00  0.00    +0.000 A 
ATOM      7  N   UNL     1      -4.883  12.188  18.500  0.00  0.00    +0.000 N 
ATOM      8  S   UNL     1      -3.108  10.419  17.542  0.00  0.00    +0.000 S 
ATOM      9  C   UNL     1      -1.530  10.539  18.175  0.00  0.00    +0.000 A 
ATOM     10  N   UNL     1      -0.527   9.737  17.785  0.00  0.00    +0.000 NA
ATOM     11  H   UNL     1      -5.499  11.845  17.774  0.00  0.00    +0.000 HD
ENDROOT
BRANCH   7  12
ATOM     12  C   UNL     1      -5.564  12.824  19.558  0.00  0.00    +0.000 A 
ATOM     13  C   UNL     1      -6.030  12.054  20.633  0.00  0.00    +0.000 A 
ATOM     14  C   UNL     1      -6.717  12.648  21.696  0.00  0.00    +0.000 A 
ATOM     15  C   UNL     1      -6.943  14.023  21.703  0.00  0.00    +0.000 A 
ATOM     16  C   UNL     1      -6.501  14.799  20.637  0.00  0.00    +0.000 A 
ATOM     17  C   UNL     1      -5.831  14.201  19.567  0.00  0.00    +0.000 A 
ENDBRANCH   7  12
BRANCH   1  18
ATOM     18  S   UNL     1       2.051   9.095  17.852  0.00  0.00    +0.000 S 
BRANCH  18  19
ATOM     19  C   UNL     1       2.098   7.844  19.175  0.00  0.00    +0.000 C 
BRANCH  19  21
ATOM     20  C   UNL     1       3.838   7.014  17.538  0.00  0.00    +0.000 C 
ATOM     21  C   UNL     1       2.953   6.658  18.725  0.00  0.00    +0.000 C 
ENDBRANCH  19  21
ENDBRANCH  18  19
ENDBRANCH   1  18
BRANCH   3  22
ATOM     22  S   UNL     1       0.075  13.181  20.699  0.00  0.00    +0.000 S 
BRANCH  22  23
ATOM     23  C   UNL     1      -1.228  12.971  21.892  0.00  0.00    +0.000 A 
ATOM     24  C   UNL     1      -2.210  13.956  22.028  0.00  0.00    +0.000 A 
ATOM     25  C   UNL     1      -3.278  13.774  22.911  0.00  0.00    +0.000 A 
ATOM     26  C   UNL     1      -3.365  12.602  23.659  0.00  0.00    +0.000 A 
ATOM     27 CL   UNL     1      -4.684  12.376  24.741  0.00  0.00    +0.000 Cl
ATOM     28  C   UNL     1      -2.395  11.610  23.529  0.00  0.00    +0.000 A 
ATOM     29  C   UNL     1      -1.328  11.791  22.643  0.00  0.00    +0.000 A 
ENDBRANCH  22  23
ENDBRANCH   3  22
TORSDOF 6
ENDMDL
MODEL 5
REMARK VINA RESULT:      -6.6      3.292      7.672
REMARK  Name = 
REMARK  7 active torsions:
REMARK  status: ('A' for Active; 'I' for Inactive)
REMARK    1  A    between atoms: C_1  and  C_2
REMARK    2  A    between atoms: C_2  and  C_3
REMARK    3  A    between atoms: C_3  and  S_4
REMARK    4  A    between atoms: S_4  and  C_5
REMARK    5  A    between atoms: C_7  and  S_8
REMARK    6  A    between atoms: S_8  and  C_9
REMARK    7  A    between atoms: N_19  and  C_20
REMARK                            x       y       z     vdW  Elec       q    Type
REMARK                         _______ _______ _______ _____ _____    ______ ____
ROOT
ATOM      1  C   UNL     1       1.634   8.136  20.047  0.00  0.00    +0.000 A 
ATOM      2  N   UNL     1       1.370   9.064  19.110  0.00  0.00    +0.000 NA
ATOM      3  C   UNL     1       0.603  10.125  19.458  0.00  0.00    +0.000 A 
ATOM      4  C   UNL     1       0.109  10.243  20.760  0.00  0.00    +0.000 A 
ATOM      5  N   UNL     1      -0.677  11.227  21.333  0.00  0.00    +0.000 NA
ATOM      6  C   UNL     1      -0.959  10.926  22.583  0.00  0.00    +0.000 A 
ATOM      7  N   UNL     1      -1.749  11.665  23.398  0.00  0.00    +0.000 N 
ATOM      8  S   UNL     1      -0.268   9.443  23.139  0.00  0.00    +0.000 S 
ATOM      9  C   UNL     1       0.451   9.208  21.611  0.00  0.00    +0.000 A 
ATOM     10  N   UNL     1       1.207   8.139  21.320  0.00  0.00    +0.000 NA
ATOM     11  H   UNL     1      -2.036  11.274  24.287  0.00  0.00    +0.000 HD
ENDROOT
BRANCH   7  12
ATOM     12  C   UNL     1      -1.931  13.060  23.314  0.00  0.00    +0.000 A 
ATOM     13  C   UNL     1      -3.220  13.572  23.111  0.00  0.00    +0.000 A 
ATOM     14  C   UNL     1      -3.438  14.949  23.013  0.00  0.00    +0.000 A 
ATOM     15  C   UNL     1      -2.370  15.837  23.125  0.00  0.00    +0.000 A 
ATOM     16  C   UNL     1      -1.082  15.345  23.311  0.00  0.00    +0.000 A 
ATOM     17  C   UNL     1      -0.865  13.967  23.390  0.00  0.00    +0.000 A 
ENDBRANCH   7  12
BRANCH   1  18
ATOM     18  S   UNL     1       2.559   6.706  19.535  0.00  0.00    +0.000 S 
BRANCH  18  19
ATOM     19  C   UNL     1       1.943   5.493  20.746  0.00  0.00    +0.000 C 
BRANCH  19  21
ATOM     20  C   UNL     1       1.228   3.075  20.943  0.00  0.00    +0.000 C 
ATOM     21  C   UNL     1       1.409   4.264  20.009  0.00  0.00    +0.000 C 
ENDBRANCH  19  21
ENDBRANCH  18  19
ENDBRANCH   1  18
BRANCH   3  22
ATOM     22  S   UNL     1       0.121  11.294  18.224  0.00  0.00    +0.000 S 
BRANCH  22  23
ATOM     23  C   UNL     1      -1.648  11.103  18.226  0.00  0.00    +0.000 A 
ATOM     24  C   UNL     1      -2.454  12.105  18.773  0.00  0.00    +0.000 A 
ATOM     25  C   UNL     1      -3.847  12.001  18.720  0.00  0.00    +0.000 A 
ATOM     26  C   UNL     1      -4.436  10.892  18.117  0.00  0.00    +0.000 A 
ATOM     27 CL   UNL     1      -6.150  10.769  18.047  0.00  0.00    +0.000 Cl
ATOM     28  C   UNL     1      -3.644   9.888  17.564  0.00  0.00    +0.000 A 
ATOM     29  C   UNL     1      -2.250   9.993  17.615  0.00  0.00    +0.000 A 
ENDBRANCH  22  23
ENDBRANCH   3  22
TORSDOF 6
ENDMDL
MODEL 6
REMARK VINA RESULT:      -6.6      3.478      8.336
REMARK  Name = 
REMARK  7 active torsions:
REMARK  status: ('A' for Active; 'I' for Inactive)
REMARK    1  A    between atoms: C_1  and  C_2
REMARK    2  A    between atoms: C_2  and  C_3
REMARK    3  A    between atoms: C_3  and  S_4
REMARK    4  A    between atoms: S_4  and  C_5
REMARK    5  A    between atoms: C_7  and  S_8
REMARK    6  A    between atoms: S_8  and  C_9
REMARK    7  A    between atoms: N_19  and  C_20
REMARK                            x       y       z     vdW  Elec       q    Type
REMARK                         _______ _______ _______ _____ _____    ______ ____
ROOT
ATOM      1  C   UNL     1       0.365  10.481  18.285  0.00  0.00    +0.000 A 
ATOM      2  N   UNL     1       0.360  11.590  19.046  0.00  0.00    +0.000 NA
ATOM      3  C   UNL     1      -0.832  12.173  19.321  0.00  0.00    +0.000 A 
ATOM      4  C   UNL     1      -2.018  11.625  18.825  0.00  0.00    +0.000 A 
ATOM      5  N   UNL     1      -3.328  12.040  18.978  0.00  0.00    +0.000 NA
ATOM      6  C   UNL     1      -4.144  11.262  18.300  0.00  0.00    +0.000 A 
ATOM      7  N   UNL     1      -5.484  11.436  18.209  0.00  0.00    +0.000 N 
ATOM      8  S   UNL     1      -3.368   9.970  17.454  0.00  0.00    +0.000 S 
ATOM      9  C   UNL     1      -1.857  10.492  18.047  0.00  0.00    +0.000 A 
ATOM     10  N   UNL     1      -0.705   9.874  17.747  0.00  0.00    +0.000 NA
ATOM     11  H   UNL     1      -6.005  10.885  17.539  0.00  0.00    +0.000 HD
ENDROOT
BRANCH   7  12
ATOM     12  C   UNL     1      -6.296  12.042  19.188  0.00  0.00    +0.000 A 
ATOM     13  C   UNL     1      -6.776  13.342  18.972  0.00  0.00    +0.000 A 
ATOM     14  C   UNL     1      -7.576  13.979  19.925  0.00  0.00    +0.000 A 
ATOM     15  C   UNL     1      -7.916  13.322  21.106  0.00  0.00    +0.000 A 
ATOM     16  C   UNL     1      -7.437  12.039  21.343  0.00  0.00    +0.000 A 
ATOM     17  C   UNL     1      -6.622  11.411  20.398  0.00  0.00    +0.000 A 
ENDBRANCH   7  12
BRANCH   1  18
ATOM     18  S   UNL     1       1.949   9.796  17.859  0.00  0.00    +0.000 S 
BRANCH  18  19
ATOM     19  C   UNL     1       1.909   8.280  18.869  0.00  0.00    +0.000 C 
BRANCH  19  21
ATOM     20  C   UNL     1       2.629   5.856  18.910  0.00  0.00    +0.000 C 
ATOM     21  C   UNL     1       2.741   7.192  18.188  0.00  0.00    +0.000 C 
ENDBRANCH  19  21
ENDBRANCH  18  19
ENDBRANCH   1  18
BRANCH   3  22
ATOM     22  S   UNL     1      -0.870  13.704  20.202  0.00  0.00    +0.000 S 
BRANCH  22  23
ATOM     23  C   UNL     1      -1.975  13.316  21.541  0.00  0.00    +0.000 A 
ATOM     24  C   UNL     1      -3.219  13.946  21.619  0.00  0.00    +0.000 A 
ATOM     25  C   UNL     1      -4.127  13.602  22.625  0.00  0.00    +0.000 A 
ATOM     26  C   UNL     1      -3.788  12.622  23.556  0.00  0.00    +0.000 A 
ATOM     27 CL   UNL     1      -4.908  12.195  24.790  0.00  0.00    +0.000 Cl
ATOM     28  C   UNL     1      -2.552  11.982  23.487  0.00  0.00    +0.000 A 
ATOM     29  C   UNL     1      -1.646  12.326  22.478  0.00  0.00    +0.000 A 
ENDBRANCH  22  23
ENDBRANCH   3  22
TORSDOF 6
ENDMDL
MODEL 7
REMARK VINA RESULT:      -6.6      1.199      1.616
REMARK  Name = 
REMARK  7 active torsions:
REMARK  status: ('A' for Active; 'I' for Inactive)
REMARK    1  A    between atoms: C_1  and  C_2
REMARK    2  A    between atoms: C_2  and  C_3
REMARK    3  A    between atoms: C_3  and  S_4
REMARK    4  A    between atoms: S_4  and  C_5
REMARK    5  A    between atoms: C_7  and  S_8
REMARK    6  A    between atoms: S_8  and  C_9
REMARK    7  A    between atoms: N_19  and  C_20
REMARK                            x       y       z     vdW  Elec       q    Type
REMARK                         _______ _______ _______ _____ _____    ______ ____
ROOT
ATOM      1  C   UNL     1      -2.212  12.411  22.199  0.00  0.00    +0.000 A 
ATOM      2  N   UNL     1      -2.068  12.522  20.867  0.00  0.00    +0.000 NA
ATOM      3  C   UNL     1      -1.232  11.661  20.238  0.00  0.00    +0.000 A 
ATOM      4  C   UNL     1      -0.545  10.684  20.966  0.00  0.00    +0.000 A 
ATOM      5  N   UNL     1       0.342   9.711  20.543  0.00  0.00    +0.000 NA
ATOM      6  C   UNL     1       0.799   9.023  21.567  0.00  0.00    +0.000 A 
ATOM      7  N   UNL     1       1.721   8.034  21.485  0.00  0.00    +0.000 N 
ATOM      8  S   UNL     1       0.163   9.506  23.099  0.00  0.00    +0.000 S 
ATOM      9  C   UNL     1      -0.782  10.698  22.329  0.00  0.00    +0.000 A 
ATOM     10  N   UNL     1      -1.599  11.524  22.999  0.00  0.00    +0.000 NA
ATOM     11  H   UNL     1       2.128   7.673  22.339  0.00  0.00    +0.000 HD
ENDROOT
BRANCH   7  12
ATOM     12  C   UNL     1       1.922   7.196  20.370  0.00  0.00    +0.000 A 
ATOM     13  C   UNL     1       1.735   5.814  20.509  0.00  0.00    +0.000 A 
ATOM     14  C   UNL     1       1.934   4.950  19.428  0.00  0.00    +0.000 A 
ATOM     15  C   UNL     1       2.316   5.458  18.188  0.00  0.00    +0.000 A 
ATOM     16  C   UNL     1       2.520   6.825  18.036  0.00  0.00    +0.000 A 
ATOM     17  C   UNL     1       2.339   7.684  19.123  0.00  0.00    +0.000 A 
ENDBRANCH   7  12
BRANCH   1  18
ATOM     18  S   UNL     1      -3.238  13.617  23.008  0.00  0.00    +0.000 S 
BRANCH  18  19
ATOM     19  C   UNL     1      -2.232  15.110  22.731  0.00  0.00    +0.000 C 
BRANCH  19  21
ATOM     20  C   UNL     1      -4.036  16.860  22.452  0.00  0.00    +0.000 C 
ATOM     21  C   UNL     1      -2.959  16.039  21.757  0.00  0.00    +0.000 C 
ENDBRANCH  19  21
ENDBRANCH  18  19
ENDBRANCH   1  18
BRANCH   3  22
ATOM     22  S   UNL     1      -0.911  11.861  18.513  0.00  0.00    +0.000 S 
BRANCH  22  23
ATOM     23  C   UNL     1       0.334  13.132  18.528  0.00  0.00    +0.000 A 
ATOM     24  C   UNL     1      -0.035  14.462  18.739  0.00  0.00    +0.000 A 
ATOM     25  C   UNL     1       0.938  15.463  18.823  0.00  0.00    +0.000 A 
ATOM     26  C   UNL     1       2.285  15.130  18.695  0.00  0.00    +0.000 A 
ATOM     27 CL   UNL     1       3.481  16.362  18.805  0.00  0.00    +0.000 Cl
ATOM     28  C   UNL     1       2.667  13.806  18.489  0.00  0.00    +0.000 A 
ATOM     29  C   UNL     1       1.693  12.805  18.408  0.00  0.00    +0.000 A 
ENDBRANCH  22  23
ENDBRANCH   3  22
TORSDOF 6
ENDMDL
MODEL 8
REMARK VINA RESULT:      -6.5      3.160      4.114
REMARK  Name = 
REMARK  7 active torsions:
REMARK  status: ('A' for Active; 'I' for Inactive)
REMARK    1  A    between atoms: C_1  and  C_2
REMARK    2  A    between atoms: C_2  and  C_3
REMARK    3  A    between atoms: C_3  and  S_4
REMARK    4  A    between atoms: S_4  and  C_5
REMARK    5  A    between atoms: C_7  and  S_8
REMARK    6  A    between atoms: S_8  and  C_9
REMARK    7  A    between atoms: N_19  and  C_20
REMARK                            x       y       z     vdW  Elec       q    Type
REMARK                         _______ _______ _______ _____ _____    ______ ____
ROOT
ATOM      1  C   UNL     1      -0.873  12.098  21.513  0.00  0.00    +0.000 A 
ATOM      2  N   UNL     1      -1.198  11.850  20.231  0.00  0.00    +0.000 NA
ATOM      3  C   UNL     1      -0.706  10.730  19.651  0.00  0.00    +0.000 A 
ATOM      4  C   UNL     1       0.114   9.860  20.376  0.00  0.00    +0.000 A 
ATOM      5  N   UNL     1       0.717   8.674  19.997  0.00  0.00    +0.000 NA
ATOM      6  C   UNL     1       1.450   8.192  20.978  0.00  0.00    +0.000 A 
ATOM      7  N   UNL     1       2.204   7.070  20.902  0.00  0.00    +0.000 N 
ATOM      8  S   UNL     1       1.432   9.141  22.422  0.00  0.00    +0.000 S 
ATOM      9  C   UNL     1       0.373  10.250  21.677  0.00  0.00    +0.000 A 
ATOM     10  N   UNL     1      -0.090  11.345  22.300  0.00  0.00    +0.000 NA
ATOM     11  H   UNL     1       2.855   6.866  21.649  0.00  0.00    +0.000 HD
ENDROOT
BRANCH   7  12
ATOM     12  C   UNL     1       1.935   5.961  20.075  0.00  0.00    +0.000 A 
ATOM     13  C   UNL     1       2.322   6.000  18.728  0.00  0.00    +0.000 A 
ATOM     14  C   UNL     1       2.064   4.923  17.875  0.00  0.00    +0.000 A 
ATOM     15  C   UNL     1       1.421   3.785  18.359  0.00  0.00    +0.000 A 
ATOM     16  C   UNL     1       1.018   3.735  19.689  0.00  0.00    +0.000 A 
ATOM     17  C   UNL     1       1.260   4.821  20.534  0.00  0.00    +0.000 A 
ENDBRANCH   7  12
BRANCH   1  18
ATOM     18  S   UNL     1      -1.452  13.625  22.216  0.00  0.00    +0.000 S 
BRANCH  18  19
ATOM     19  C   UNL     1      -2.236  14.362  20.746  0.00  0.00    +0.000 C 
BRANCH  19  21
ATOM     20  C   UNL     1      -4.488  13.867  21.784  0.00  0.00    +0.000 C 
ATOM     21  C   UNL     1      -3.608  14.921  21.126  0.00  0.00    +0.000 C 
ENDBRANCH  19  21
ENDBRANCH  18  19
ENDBRANCH   1  18
BRANCH   3  22
ATOM     22  S   UNL     1      -0.996  10.439  17.933  0.00  0.00    +0.000 S 
BRANCH  22  23
ATOM     23  C   UNL     1      -2.653  11.060  17.742  0.00  0.00    +0.000 A 
ATOM     24  C   UNL     1      -3.253  11.061  16.481  0.00  0.00    +0.000 A 
ATOM     25  C   UNL     1      -4.577  11.481  16.326  0.00  0.00    +0.000 A 
ATOM     26  C   UNL     1      -5.304  11.900  17.439  0.00  0.00    +0.000 A 
ATOM     27 CL   UNL     1      -6.936  12.411  17.249  0.00  0.00    +0.000 Cl
ATOM     28  C   UNL     1      -4.719  11.900  18.703  0.00  0.00    +0.000 A 
ATOM     29  C   UNL     1      -3.394  11.477  18.857  0.00  0.00    +0.000 A 
ENDBRANCH  22  23
ENDBRANCH   3  22
TORSDOF 6
ENDMDL
MODEL 9
REMARK VINA RESULT:      -6.5      1.764      6.851
REMARK  Name = 
REMARK  7 active torsions:
REMARK  status: ('A' for Active; 'I' for Inactive)
REMARK    1  A    between atoms: C_1  and  C_2
REMARK    2  A    between atoms: C_2  and  C_3
REMARK    3  A    between atoms: C_3  and  S_4
REMARK    4  A    between atoms: S_4  and  C_5
REMARK    5  A    between atoms: C_7  and  S_8
REMARK    6  A    between atoms: S_8  and  C_9
REMARK    7  A    between atoms: N_19  and  C_20
REMARK                            x       y       z     vdW  Elec       q    Type
REMARK                         _______ _______ _______ _____ _____    ______ ____
ROOT
ATOM      1  C   UNL     1       1.540   8.281  20.068  0.00  0.00    +0.000 A 
ATOM      2  N   UNL     1       1.185   9.157  19.111  0.00  0.00    +0.000 NA
ATOM      3  C   UNL     1       0.373  10.186  19.454  0.00  0.00    +0.000 A 
ATOM      4  C   UNL     1      -0.073  10.325  20.772  0.00  0.00    +0.000 A 
ATOM      5  N   UNL     1      -0.891  11.284  21.343  0.00  0.00    +0.000 NA
ATOM      6  C   UNL     1      -1.103  11.015  22.614  0.00  0.00    +0.000 A 
ATOM      7  N   UNL     1      -1.901  11.738  23.436  0.00  0.00    +0.000 N 
ATOM      8  S   UNL     1      -0.306   9.594  23.190  0.00  0.00    +0.000 S 
ATOM      9  C   UNL     1       0.362   9.343  21.643  0.00  0.00    +0.000 A 
ATOM     10  N   UNL     1       1.166   8.307  21.356  0.00  0.00    +0.000 NA
ATOM     11  H   UNL     1      -2.128  11.365  24.349  0.00  0.00    +0.000 HD
ENDROOT
BRANCH   7  12
ATOM     12  C   UNL     1      -2.165  13.116  23.310  0.00  0.00    +0.000 A 
ATOM     13  C   UNL     1      -3.377  13.532  22.741  0.00  0.00    +0.000 A 
ATOM     14  C   UNL     1      -3.671  14.891  22.591  0.00  0.00    +0.000 A 
ATOM     15  C   UNL     1      -2.759  15.855  23.018  0.00  0.00    +0.000 A 
ATOM     16  C   UNL     1      -1.547  15.460  23.572  0.00  0.00    +0.000 A 
ATOM     17  C   UNL     1      -1.247  14.101  23.702  0.00  0.00    +0.000 A 
ENDBRANCH   7  12
BRANCH   1  18
ATOM     18  S   UNL     1       2.524   6.887  19.566  0.00  0.00    +0.000 S 
BRANCH  18  19
ATOM     19  C   UNL     1       1.849   5.618  20.686  0.00  0.00    +0.000 C 
BRANCH  19  21
ATOM     20  C   UNL     1       1.173   3.183  20.785  0.00  0.00    +0.000 C 
ATOM     21  C   UNL     1       1.496   4.366  19.882  0.00  0.00    +0.000 C 
ENDBRANCH  19  21
ENDBRANCH  18  19
ENDBRANCH   1  18
BRANCH   3  22
ATOM     22  S   UNL     1      -0.225  11.279  18.202  0.00  0.00    +0.000 S 
BRANCH  22  23
ATOM     23  C   UNL     1       0.745  12.738  18.510  0.00  0.00    +0.000 A 
ATOM     24  C   UNL     1       2.122  12.719  18.276  0.00  0.00    +0.000 A 
ATOM     25  C   UNL     1       2.887  13.876  18.447  0.00  0.00    +0.000 A 
ATOM     26  C   UNL     1       2.270  15.058  18.853  0.00  0.00    +0.000 A 
ATOM     27 CL   UNL     1       3.211  16.484  19.057  0.00  0.00    +0.000 Cl
ATOM     28  C   UNL     1       0.897  15.093  19.085  0.00  0.00    +0.000 A 
ATOM     29  C   UNL     1       0.132  13.934  18.911  0.00  0.00    +0.000 A 
ENDBRANCH  22  23
ENDBRANCH   3  22
TORSDOF 6
ENDMDL
