MODEL 1
REMARK VINA RESULT:      -9.2      0.000      0.000
REMARK  Name = 
REMARK  5 active torsions:
REMARK  status: ('A' for Active; 'I' for Inactive)
REMARK    1  A    between atoms: C_2  and  C_21
REMARK    2  A    between atoms: N_3  and  C_4
REMARK    3  A    between atoms: C_4  and  C_5
REMARK    4  A    between atoms: C_5  and  N_6
REMARK    5  A    between atoms: N_6  and  C_7
REMARK                            x       y       z     vdW  Elec       q    Type
REMARK                         _______ _______ _______ _____ _____    ______ ____
ROOT
ATOM      1  N   UNL     1       2.922   7.243  18.472  0.00  0.00    +0.000 N 
ATOM      2  H   UNL     1       3.154   7.658  19.380  0.00  0.00    +0.000 HD
ENDROOT
BRANCH   1   3
ATOM      3  C   UNL     1       3.301   5.869  18.205  0.00  0.00    +0.000 A 
ATOM      4  C   UNL     1       4.249   5.486  17.181  0.00  0.00    +0.000 A 
ATOM      5  C   UNL     1       4.570   4.108  17.024  0.00  0.00    +0.000 A 
ATOM      6  N   UNL     1       3.949   3.176  17.773  0.00  0.00    +0.000 NA
ATOM      7  C   UNL     1       3.037   3.475  18.720  0.00  0.00    +0.000 A 
ATOM      8  C   UNL     1       2.445   2.423  19.427  0.00  0.00    +0.000 A 
ATOM      9  C   UNL     1       1.491   2.681  20.406  0.00  0.00    +0.000 A 
ATOM     10  C   UNL     1       1.127   3.994  20.686  0.00  0.00    +0.000 A 
ATOM     11  C   UNL     1       1.714   5.055  19.991  0.00  0.00    +0.000 A 
ATOM     12  C   UNL     1       2.693   4.823  18.983  0.00  0.00    +0.000 A 
ATOM     13  C   UNL     1       5.605   3.605  16.046  0.00  0.00    +0.000 C 
ATOM     14  C   UNL     1       6.527   4.701  15.514  0.00  0.00    +0.000 C 
ATOM     15  C   UNL     1       5.688   5.871  15.072  0.00  0.00    +0.000 C 
ATOM     16  C   UNL     1       4.963   6.484  16.273  0.00  0.00    +0.000 C 
ENDBRANCH   1   3
BRANCH   1  17
ATOM     17  C   UNL     1       2.084   8.082  17.630  0.00  0.00    +0.000 C 
BRANCH  17  18
ATOM     18  C   UNL     1       1.977   9.523  18.136  0.00  0.00    +0.000 C 
BRANCH  18  21
ATOM     19  O   UNL     1      -0.253   9.787  19.743  0.00  0.00    +0.000 OA
ATOM     20  C   UNL     1      -0.380  10.129  18.574  0.00  0.00    +0.000 C 
ATOM     21  N   UNL     1       0.692  10.062  17.731  0.00  0.00    +0.000 N 
ATOM     22  H   UNL     1       0.603  10.335  16.746  0.00  0.00    +0.000 HD
BRANCH  20  23
ATOM     23  C   UNL     1      -1.736  10.569  18.107  0.00  0.00    +0.000 A 
ATOM     24  C   UNL     1      -2.217  10.109  16.861  0.00  0.00    +0.000 A 
ATOM     25  C   UNL     1      -3.465  10.512  16.381  0.00  0.00    +0.000 A 
ATOM     26  C   UNL     1      -4.256  11.380  17.132  0.00  0.00    +0.000 A 
ATOM     27  F   UNL     1      -5.467  11.771  16.663  0.00  0.00    +0.000 F 
ATOM     28  C   UNL     1      -3.801  11.848  18.364  0.00  0.00    +0.000 A 
ATOM     29  C   UNL     1      -2.553  11.449  18.852  0.00  0.00    +0.000 A 
ENDBRANCH  20  23
ENDBRANCH  18  21
ENDBRANCH  17  18
ENDBRANCH   1  17
TORSDOF 5
ENDMDL
MODEL 2
REMARK VINA RESULT:      -9.2      0.197      3.554
REMARK  Name = 
REMARK  5 active torsions:
REMARK  status: ('A' for Active; 'I' for Inactive)
REMARK    1  A    between atoms: C_2  and  C_21
REMARK    2  A    between atoms: N_3  and  C_4
REMARK    3  A    between atoms: C_4  and  C_5
REMARK    4  A    between atoms: C_5  and  N_6
REMARK    5  A    between atoms: N_6  and  C_7
REMARK                            x       y       z     vdW  Elec       q    Type
REMARK                         _______ _______ _______ _____ _____    ______ ____
ROOT
ATOM      1  N   UNL     1       3.120   7.272  18.309  0.00  0.00    +0.000 N 
ATOM      2  H   UNL     1       3.614   7.789  19.043  0.00  0.00    +0.000 HD
ENDROOT
BRANCH   1   3
ATOM      3  C   UNL     1       3.391   5.858  18.138  0.00  0.00    +0.000 A 
ATOM      4  C   UNL     1       2.810   4.826  18.971  0.00  0.00    +0.000 A 
ATOM      5  C   UNL     1       3.124   3.465  18.696  0.00  0.00    +0.000 A 
ATOM      6  N   UNL     1       3.998   3.152  17.719  0.00  0.00    +0.000 NA
ATOM      7  C   UNL     1       4.590   4.075  16.933  0.00  0.00    +0.000 A 
ATOM      8  C   UNL     1       5.494   3.636  15.960  0.00  0.00    +0.000 A 
ATOM      9  C   UNL     1       6.138   4.551  15.132  0.00  0.00    +0.000 A 
ATOM     10  C   UNL     1       5.877   5.909  15.272  0.00  0.00    +0.000 A 
ATOM     11  C   UNL     1       4.974   6.362  16.237  0.00  0.00    +0.000 A 
ATOM     12  C   UNL     1       4.300   5.451  17.099  0.00  0.00    +0.000 A 
ATOM     13  C   UNL     1       2.511   2.306  19.445  0.00  0.00    +0.000 C 
ATOM     14  C   UNL     1       1.273   2.688  20.256  0.00  0.00    +0.000 C 
ATOM     15  C   UNL     1       1.578   3.929  21.054  0.00  0.00    +0.000 C 
ATOM     16  C   UNL     1       1.841   5.108  20.115  0.00  0.00    +0.000 C 
ENDBRANCH   1   3
BRANCH   1  17
ATOM     17  C   UNL     1       2.081   8.035  17.637  0.00  0.00    +0.000 C 
BRANCH  17  18
ATOM     18  C   UNL     1       1.958   9.469  18.157  0.00  0.00    +0.000 C 
BRANCH  18  21
ATOM     19  O   UNL     1      -0.241   9.882  19.777  0.00  0.00    +0.000 OA
ATOM     20  C   UNL     1      -0.381  10.149  18.590  0.00  0.00    +0.000 C 
ATOM     21  N   UNL     1       0.676  10.006  17.737  0.00  0.00    +0.000 N 
ATOM     22  H   UNL     1       0.577  10.216  16.738  0.00  0.00    +0.000 HD
BRANCH  20  23
ATOM     23  C   UNL     1      -1.735  10.584  18.116  0.00  0.00    +0.000 A 
ATOM     24  C   UNL     1      -2.203  10.133  16.863  0.00  0.00    +0.000 A 
ATOM     25  C   UNL     1      -3.449  10.531  16.376  0.00  0.00    +0.000 A 
ATOM     26  C   UNL     1      -4.252  11.388  17.128  0.00  0.00    +0.000 A 
ATOM     27  F   UNL     1      -5.462  11.775  16.653  0.00  0.00    +0.000 F 
ATOM     28  C   UNL     1      -3.810  11.847  18.368  0.00  0.00    +0.000 A 
ATOM     29  C   UNL     1      -2.564  11.452  18.862  0.00  0.00    +0.000 A 
ENDBRANCH  20  23
ENDBRANCH  18  21
ENDBRANCH  17  18
ENDBRANCH   1  17
TORSDOF 5
ENDMDL
MODEL 3
REMARK VINA RESULT:      -9.0      1.158      1.165
REMARK  Name = 
REMARK  5 active torsions:
REMARK  status: ('A' for Active; 'I' for Inactive)
REMARK    1  A    between atoms: C_2  and  C_21
REMARK    2  A    between atoms: N_3  and  C_4
REMARK    3  A    between atoms: C_4  and  C_5
REMARK    4  A    between atoms: C_5  and  N_6
REMARK    5  A    between atoms: N_6  and  C_7
REMARK                            x       y       z     vdW  Elec       q    Type
REMARK                         _______ _______ _______ _____ _____    ______ ____
ROOT
ATOM      1  N   UNL     1       2.350   6.859  18.263  0.00  0.00    +0.000 N 
ATOM      2  H   UNL     1       1.838   6.810  17.377  0.00  0.00    +0.000 HD
ENDROOT
BRANCH   1   3
ATOM      3  C   UNL     1       3.285   5.802  18.598  0.00  0.00    +0.000 A 
ATOM      4  C   UNL     1       4.640   5.744  18.092  0.00  0.00    +0.000 A 
ATOM      5  C   UNL     1       5.482   4.674  18.508  0.00  0.00    +0.000 A 
ATOM      6  N   UNL     1       5.001   3.701  19.306  0.00  0.00    +0.000 NA
ATOM      7  C   UNL     1       3.738   3.691  19.783  0.00  0.00    +0.000 A 
ATOM      8  C   UNL     1       3.343   2.620  20.591  0.00  0.00    +0.000 A 
ATOM      9  C   UNL     1       2.048   2.561  21.098  0.00  0.00    +0.000 A 
ATOM     10  C   UNL     1       1.144   3.574  20.800  0.00  0.00    +0.000 A 
ATOM     11  C   UNL     1       1.526   4.652  19.996  0.00  0.00    +0.000 A 
ATOM     12  C   UNL     1       2.844   4.741  19.464  0.00  0.00    +0.000 A 
ATOM     13  C   UNL     1       6.934   4.560  18.110  0.00  0.00    +0.000 C 
ATOM     14  C   UNL     1       7.516   5.853  17.540  0.00  0.00    +0.000 C 
ATOM     15  C   UNL     1       6.568   6.398  16.504  0.00  0.00    +0.000 C 
ATOM     16  C   UNL     1       5.240   6.790  17.157  0.00  0.00    +0.000 C 
ENDBRANCH   1   3
BRANCH   1  17
ATOM     17  C   UNL     1       2.161   8.102  18.994  0.00  0.00    +0.000 C 
BRANCH  17  18
ATOM     18  C   UNL     1       2.220   9.340  18.097  0.00  0.00    +0.000 C 
BRANCH  18  21
ATOM     19  O   UNL     1       0.406  10.708  19.669  0.00  0.00    +0.000 OA
ATOM     20  C   UNL     1       0.011  10.351  18.565  0.00  0.00    +0.000 C 
ATOM     21  N   UNL     1       0.866   9.705  17.720  0.00  0.00    +0.000 N 
ATOM     22  H   UNL     1       0.552   9.390  16.795  0.00  0.00    +0.000 HD
BRANCH  20  23
ATOM     23  C   UNL     1      -1.423  10.607  18.209  0.00  0.00    +0.000 A 
ATOM     24  C   UNL     1      -2.010   9.874  17.154  0.00  0.00    +0.000 A 
ATOM     25  C   UNL     1      -3.336  10.097  16.778  0.00  0.00    +0.000 A 
ATOM     26  C   UNL     1      -4.101  11.054  17.443  0.00  0.00    +0.000 A 
ATOM     27  F   UNL     1      -5.388  11.270  17.075  0.00  0.00    +0.000 F 
ATOM     28  C   UNL     1      -3.541  11.791  18.486  0.00  0.00    +0.000 A 
ATOM     29  C   UNL     1      -2.214  11.573  18.870  0.00  0.00    +0.000 A 
ENDBRANCH  20  23
ENDBRANCH  18  21
ENDBRANCH  17  18
ENDBRANCH   1  17
TORSDOF 5
ENDMDL
MODEL 4
REMARK VINA RESULT:      -8.9      1.193      3.665
REMARK  Name = 
REMARK  5 active torsions:
REMARK  status: ('A' for Active; 'I' for Inactive)
REMARK    1  A    between atoms: C_2  and  C_21
REMARK    2  A    between atoms: N_3  and  C_4
REMARK    3  A    between atoms: C_4  and  C_5
REMARK    4  A    between atoms: C_5  and  N_6
REMARK    5  A    between atoms: N_6  and  C_7
REMARK                            x       y       z     vdW  Elec       q    Type
REMARK                         _______ _______ _______ _____ _____    ______ ____
ROOT
ATOM      1  N   UNL     1       2.396   6.863  18.142  0.00  0.00    +0.000 N 
ATOM      2  H   UNL     1       1.969   6.840  17.211  0.00  0.00    +0.000 HD
ENDROOT
BRANCH   1   3
ATOM      3  C   UNL     1       3.280   5.784  18.539  0.00  0.00    +0.000 A 
ATOM      4  C   UNL     1       2.867   4.678  19.376  0.00  0.00    +0.000 A 
ATOM      5  C   UNL     1       3.812   3.658  19.682  0.00  0.00    +0.000 A 
ATOM      6  N   UNL     1       5.085   3.760  19.252  0.00  0.00    +0.000 NA
ATOM      7  C   UNL     1       5.531   4.784  18.495  0.00  0.00    +0.000 A 
ATOM      8  C   UNL     1       6.879   4.793  18.119  0.00  0.00    +0.000 A 
ATOM      9  C   UNL     1       7.387   5.833  17.347  0.00  0.00    +0.000 A 
ATOM     10  C   UNL     1       6.549   6.867  16.944  0.00  0.00    +0.000 A 
ATOM     11  C   UNL     1       5.199   6.868  17.308  0.00  0.00    +0.000 A 
ATOM     12  C   UNL     1       4.650   5.818  18.098  0.00  0.00    +0.000 A 
ATOM     13  C   UNL     1       3.467   2.420  20.474  0.00  0.00    +0.000 C 
ATOM     14  C   UNL     1       1.965   2.174  20.602  0.00  0.00    +0.000 C 
ATOM     15  C   UNL     1       1.295   3.457  21.021  0.00  0.00    +0.000 C 
ATOM     16  C   UNL     1       1.453   4.516  19.927  0.00  0.00    +0.000 C 
ENDBRANCH   1   3
BRANCH   1  17
ATOM     17  C   UNL     1       2.158   8.093  18.878  0.00  0.00    +0.000 C 
BRANCH  17  18
ATOM     18  C   UNL     1       2.150   9.336  17.984  0.00  0.00    +0.000 C 
BRANCH  18  21
ATOM     19  O   UNL     1       0.428  10.944  19.425  0.00  0.00    +0.000 OA
ATOM     20  C   UNL     1      -0.029  10.423  18.415  0.00  0.00    +0.000 C 
ATOM     21  N   UNL     1       0.777   9.646  17.633  0.00  0.00    +0.000 N 
ATOM     22  H   UNL     1       0.411   9.194  16.788  0.00  0.00    +0.000 HD
BRANCH  20  23
ATOM     23  C   UNL     1      -1.482  10.630  18.106  0.00  0.00    +0.000 A 
ATOM     24  C   UNL     1      -2.058   9.939  17.017  0.00  0.00    +0.000 A 
ATOM     25  C   UNL     1      -3.402  10.120  16.684  0.00  0.00    +0.000 A 
ATOM     26  C   UNL     1      -4.196  10.994  17.426  0.00  0.00    +0.000 A 
ATOM     27  F   UNL     1      -5.500  11.170  17.100  0.00  0.00    +0.000 F 
ATOM     28  C   UNL     1      -3.647  11.688  18.504  0.00  0.00    +0.000 A 
ATOM     29  C   UNL     1      -2.303  11.511  18.845  0.00  0.00    +0.000 A 
ENDBRANCH  20  23
ENDBRANCH  18  21
ENDBRANCH  17  18
ENDBRANCH   1  17
TORSDOF 5
ENDMDL
MODEL 5
REMARK VINA RESULT:      -8.9      0.728      3.715
REMARK  Name = 
REMARK  5 active torsions:
REMARK  status: ('A' for Active; 'I' for Inactive)
REMARK    1  A    between atoms: C_2  and  C_21
REMARK    2  A    between atoms: N_3  and  C_4
REMARK    3  A    between atoms: C_4  and  C_5
REMARK    4  A    between atoms: C_5  and  N_6
REMARK    5  A    between atoms: N_6  and  C_7
REMARK                            x       y       z     vdW  Elec       q    Type
REMARK                         _______ _______ _______ _____ _____    ______ ____
ROOT
ATOM      1  N   UNL     1       3.108   7.089  19.363  0.00  0.00    +0.000 N 
ATOM      2  H   UNL     1       3.824   7.354  20.046  0.00  0.00    +0.000 HD
ENDROOT
BRANCH   1   3
ATOM      3  C   UNL     1       3.204   5.802  18.702  0.00  0.00    +0.000 A 
ATOM      4  C   UNL     1       2.474   4.627  19.129  0.00  0.00    +0.000 A 
ATOM      5  C   UNL     1       2.622   3.420  18.389  0.00  0.00    +0.000 A 
ATOM      6  N   UNL     1       3.479   3.360  17.350  0.00  0.00    +0.000 NA
ATOM      7  C   UNL     1       4.205   4.416  16.928  0.00  0.00    +0.000 A 
ATOM      8  C   UNL     1       5.075   4.234  15.848  0.00  0.00    +0.000 A 
ATOM      9  C   UNL     1       5.852   5.290  15.384  0.00  0.00    +0.000 A 
ATOM     10  C   UNL     1       5.760   6.535  15.996  0.00  0.00    +0.000 A 
ATOM     11  C   UNL     1       4.892   6.733  17.073  0.00  0.00    +0.000 A 
ATOM     12  C   UNL     1       4.084   5.672  17.571  0.00  0.00    +0.000 A 
ATOM     13  C   UNL     1       1.847   2.161  18.694  0.00  0.00    +0.000 C 
ATOM     14  C   UNL     1       0.643   2.389  19.607  0.00  0.00    +0.000 C 
ATOM     15  C   UNL     1       1.078   3.222  20.785  0.00  0.00    +0.000 C 
ATOM     16  C   UNL     1       1.515   4.612  20.316  0.00  0.00    +0.000 C 
ENDBRANCH   1   3
BRANCH   1  17
ATOM     17  C   UNL     1       1.990   8.015  19.280  0.00  0.00    +0.000 C 
BRANCH  17  18
ATOM     18  C   UNL     1       2.131   9.025  18.139  0.00  0.00    +0.000 C 
BRANCH  18  21
ATOM     19  O   UNL     1       0.382  10.674  19.499  0.00  0.00    +0.000 OA
ATOM     20  C   UNL     1      -0.021  10.206  18.441  0.00  0.00    +0.000 C 
ATOM     21  N   UNL     1       0.805   9.414  17.696  0.00  0.00    +0.000 N 
ATOM     22  H   UNL     1       0.483   9.005  16.812  0.00  0.00    +0.000 HD
BRANCH  20  23
ATOM     23  C   UNL     1      -1.435  10.494  18.031  0.00  0.00    +0.000 A 
ATOM     24  C   UNL     1      -2.202  11.399  18.797  0.00  0.00    +0.000 A 
ATOM     25  C   UNL     1      -3.528  11.678  18.461  0.00  0.00    +0.000 A 
ATOM     26  C   UNL     1      -4.115  11.060  17.358  0.00  0.00    +0.000 A 
ATOM     27  F   UNL     1      -5.404  11.331  17.034  0.00  0.00    +0.000 F 
ATOM     28  C   UNL     1      -3.377  10.162  16.589  0.00  0.00    +0.000 A 
ATOM     29  C   UNL     1      -2.048   9.878  16.918  0.00  0.00    +0.000 A 
ENDBRANCH  20  23
ENDBRANCH  18  21
ENDBRANCH  17  18
ENDBRANCH   1  17
TORSDOF 5
ENDMDL
MODEL 6
REMARK VINA RESULT:      -8.9      1.355      1.676
REMARK  Name = 
REMARK  5 active torsions:
REMARK  status: ('A' for Active; 'I' for Inactive)
REMARK    1  A    between atoms: C_2  and  C_21
REMARK    2  A    between atoms: N_3  and  C_4
REMARK    3  A    between atoms: C_4  and  C_5
REMARK    4  A    between atoms: C_5  and  N_6
REMARK    5  A    between atoms: N_6  and  C_7
REMARK                            x       y       z     vdW  Elec       q    Type
REMARK                         _______ _______ _______ _____ _____    ______ ____
ROOT
ATOM      1  N   UNL     1       2.581   6.876  17.952  0.00  0.00    +0.000 N 
ATOM      2  H   UNL     1       2.300   6.910  16.967  0.00  0.00    +0.000 HD
ENDROOT
BRANCH   1   3
ATOM      3  C   UNL     1       3.516   5.855  18.384  0.00  0.00    +0.000 A 
ATOM      4  C   UNL     1       4.946   5.939  18.173  0.00  0.00    +0.000 A 
ATOM      5  C   UNL     1       5.775   4.891  18.664  0.00  0.00    +0.000 A 
ATOM      6  N   UNL     1       5.227   3.811  19.255  0.00  0.00    +0.000 NA
ATOM      7  C   UNL     1       3.900   3.668  19.450  0.00  0.00    +0.000 A 
ATOM      8  C   UNL     1       3.442   2.496  20.061  0.00  0.00    +0.000 A 
ATOM      9  C   UNL     1       2.081   2.298  20.275  0.00  0.00    +0.000 A 
ATOM     10  C   UNL     1       1.172   3.274  19.881  0.00  0.00    +0.000 A 
ATOM     11  C   UNL     1       1.616   4.452  19.273  0.00  0.00    +0.000 A 
ATOM     12  C   UNL     1       3.002   4.683  19.041  0.00  0.00    +0.000 A 
ATOM     13  C   UNL     1       7.282   4.916  18.574  0.00  0.00    +0.000 C 
ATOM     14  C   UNL     1       7.853   6.297  18.255  0.00  0.00    +0.000 C 
ATOM     15  C   UNL     1       7.093   6.881  17.092  0.00  0.00    +0.000 C 
ATOM     16  C   UNL     1       5.631   7.115  17.481  0.00  0.00    +0.000 C 
ENDBRANCH   1   3
BRANCH   1  17
ATOM     17  C   UNL     1       2.098   7.991  18.750  0.00  0.00    +0.000 C 
BRANCH  17  18
ATOM     18  C   UNL     1       2.152   9.328  18.007  0.00  0.00    +0.000 C 
BRANCH  18  21
ATOM     19  O   UNL     1       0.302  10.710  19.523  0.00  0.00    +0.000 OA
ATOM     20  C   UNL     1      -0.068  10.340  18.416  0.00  0.00    +0.000 C 
ATOM     21  N   UNL     1       0.806   9.685  17.596  0.00  0.00    +0.000 N 
ATOM     22  H   UNL     1       0.513   9.359  16.669  0.00  0.00    +0.000 HD
BRANCH  20  23
ATOM     23  C   UNL     1      -1.495  10.588  18.025  0.00  0.00    +0.000 A 
ATOM     24  C   UNL     1      -2.273  11.480  18.795  0.00  0.00    +0.000 A 
ATOM     25  C   UNL     1      -3.611  11.722  18.477  0.00  0.00    +0.000 A 
ATOM     26  C   UNL     1      -4.199  11.080  17.388  0.00  0.00    +0.000 A 
ATOM     27  F   UNL     1      -5.499  11.315  17.083  0.00  0.00    +0.000 F 
ATOM     28  C   UNL     1      -3.450  10.193  16.616  0.00  0.00    +0.000 A 
ATOM     29  C   UNL     1      -2.109   9.946  16.927  0.00  0.00    +0.000 A 
ENDBRANCH  20  23
ENDBRANCH  18  21
ENDBRANCH  17  18
ENDBRANCH   1  17
TORSDOF 5
ENDMDL
MODEL 7
REMARK VINA RESULT:      -8.6      2.503      4.573
REMARK  Name = 
REMARK  5 active torsions:
REMARK  status: ('A' for Active; 'I' for Inactive)
REMARK    1  A    between atoms: C_2  and  C_21
REMARK    2  A    between atoms: N_3  and  C_4
REMARK    3  A    between atoms: C_4  and  C_5
REMARK    4  A    between atoms: C_5  and  N_6
REMARK    5  A    between atoms: N_6  and  C_7
REMARK                            x       y       z     vdW  Elec       q    Type
REMARK                         _______ _______ _______ _____ _____    ______ ____
ROOT
ATOM      1  N   UNL     1       3.012   7.279  18.454  0.00  0.00    +0.000 N 
ATOM      2  H   UNL     1       3.514   7.775  19.197  0.00  0.00    +0.000 HD
ENDROOT
BRANCH   1   3
ATOM      3  C   UNL     1       3.286   5.872  18.234  0.00  0.00    +0.000 A 
ATOM      4  C   UNL     1       2.713   4.811  19.036  0.00  0.00    +0.000 A 
ATOM      5  C   UNL     1       3.029   3.461  18.713  0.00  0.00    +0.000 A 
ATOM      6  N   UNL     1       3.899   3.184  17.721  0.00  0.00    +0.000 NA
ATOM      7  C   UNL     1       4.483   4.135  16.963  0.00  0.00    +0.000 A 
ATOM      8  C   UNL     1       5.383   3.731  15.971  0.00  0.00    +0.000 A 
ATOM      9  C   UNL     1       6.018   4.676  15.170  0.00  0.00    +0.000 A 
ATOM     10  C   UNL     1       5.755   6.028  15.357  0.00  0.00    +0.000 A 
ATOM     11  C   UNL     1       4.855   6.445  16.342  0.00  0.00    +0.000 A 
ATOM     12  C   UNL     1       4.189   5.503  17.177  0.00  0.00    +0.000 A 
ATOM     13  C   UNL     1       2.424   2.276  19.427  0.00  0.00    +0.000 C 
ATOM     14  C   UNL     1       1.191   2.626  20.257  0.00  0.00    +0.000 C 
ATOM     15  C   UNL     1       1.496   3.841  21.095  0.00  0.00    +0.000 C 
ATOM     16  C   UNL     1       1.750   5.052  20.195  0.00  0.00    +0.000 C 
ENDBRANCH   1   3
BRANCH   1  17
ATOM     17  C   UNL     1       1.959   8.058  17.823  0.00  0.00    +0.000 C 
BRANCH  17  18
ATOM     18  C   UNL     1       2.011   9.544  18.186  0.00  0.00    +0.000 C 
BRANCH  18  21
ATOM     19  O   UNL     1       1.440  12.005  19.303  0.00  0.00    +0.000 OA
ATOM     20  C   UNL     1       0.777  11.057  19.705  0.00  0.00    +0.000 C 
ATOM     21  N   UNL     1       0.978   9.817  19.169  0.00  0.00    +0.000 N 
ATOM     22  H   UNL     1       0.439   9.008  19.499  0.00  0.00    +0.000 HD
BRANCH  20  23
ATOM     23  C   UNL     1      -0.206  11.298  20.812  0.00  0.00    +0.000 A 
ATOM     24  C   UNL     1      -0.123  10.520  21.987  0.00  0.00    +0.000 A 
ATOM     25  C   UNL     1      -1.032  10.699  23.032  0.00  0.00    +0.000 A 
ATOM     26  C   UNL     1      -2.041  11.655  22.925  0.00  0.00    +0.000 A 
ATOM     27  F   UNL     1      -2.925  11.826  23.940  0.00  0.00    +0.000 F 
ATOM     28  C   UNL     1      -2.144  12.432  21.772  0.00  0.00    +0.000 A 
ATOM     29  C   UNL     1      -1.237  12.260  20.722  0.00  0.00    +0.000 A 
ENDBRANCH  20  23
ENDBRANCH  18  21
ENDBRANCH  17  18
ENDBRANCH   1  17
TORSDOF 5
ENDMDL
MODEL 8
REMARK VINA RESULT:      -8.6      2.248      2.767
REMARK  Name = 
REMARK  5 active torsions:
REMARK  status: ('A' for Active; 'I' for Inactive)
REMARK    1  A    between atoms: C_2  and  C_21
REMARK    2  A    between atoms: N_3  and  C_4
REMARK    3  A    between atoms: C_4  and  C_5
REMARK    4  A    between atoms: C_5  and  N_6
REMARK    5  A    between atoms: N_6  and  C_7
REMARK                            x       y       z     vdW  Elec       q    Type
REMARK                         _______ _______ _______ _____ _____    ______ ____
ROOT
ATOM      1  N   UNL     1       2.769   7.141  18.616  0.00  0.00    +0.000 N 
ATOM      2  H   UNL     1       3.028   7.542  19.523  0.00  0.00    +0.000 HD
ENDROOT
BRANCH   1   3
ATOM      3  C   UNL     1       3.203   5.797  18.289  0.00  0.00    +0.000 A 
ATOM      4  C   UNL     1       4.160   5.497  17.245  0.00  0.00    +0.000 A 
ATOM      5  C   UNL     1       4.536   4.141  17.028  0.00  0.00    +0.000 A 
ATOM      6  N   UNL     1       3.959   3.153  17.740  0.00  0.00    +0.000 NA
ATOM      7  C   UNL     1       3.041   3.374  18.704  0.00  0.00    +0.000 A 
ATOM      8  C   UNL     1       2.498   2.269  19.368  0.00  0.00    +0.000 A 
ATOM      9  C   UNL     1       1.541   2.447  20.362  0.00  0.00    +0.000 A 
ATOM     10  C   UNL     1       1.125   3.730  20.699  0.00  0.00    +0.000 A 
ATOM     11  C   UNL     1       1.662   4.843  20.046  0.00  0.00    +0.000 A 
ATOM     12  C   UNL     1       2.644   4.694  19.025  0.00  0.00    +0.000 A 
ATOM     13  C   UNL     1       5.585   3.723  16.025  0.00  0.00    +0.000 C 
ATOM     14  C   UNL     1       6.458   4.877  15.536  0.00  0.00    +0.000 C 
ATOM     15  C   UNL     1       5.568   6.030  15.148  0.00  0.00    +0.000 C 
ATOM     16  C   UNL     1       4.827   6.561  16.377  0.00  0.00    +0.000 C 
ENDBRANCH   1   3
BRANCH   1  17
ATOM     17  C   UNL     1       1.848   7.958  17.843  0.00  0.00    +0.000 C 
BRANCH  17  18
ATOM     18  C   UNL     1       2.017   9.458  18.098  0.00  0.00    +0.000 C 
BRANCH  18  21
ATOM     19  O   UNL     1      -0.524  10.537  18.206  0.00  0.00    +0.000 OA
ATOM     20  C   UNL     1       0.045  10.374  19.278  0.00  0.00    +0.000 C 
ATOM     21  N   UNL     1       1.288   9.809  19.303  0.00  0.00    +0.000 N 
ATOM     22  H   UNL     1       1.785   9.672  20.190  0.00  0.00    +0.000 HD
BRANCH  20  23
ATOM     23  C   UNL     1      -0.641  10.848  20.524  0.00  0.00    +0.000 A 
ATOM     24  C   UNL     1      -1.572  11.906  20.436  0.00  0.00    +0.000 A 
ATOM     25  C   UNL     1      -2.216  12.391  21.576  0.00  0.00    +0.000 A 
ATOM     26  C   UNL     1      -1.945  11.832  22.824  0.00  0.00    +0.000 A 
ATOM     27  F   UNL     1      -2.570  12.306  23.930  0.00  0.00    +0.000 F 
ATOM     28  C   UNL     1      -1.028  10.788  22.935  0.00  0.00    +0.000 A 
ATOM     29  C   UNL     1      -0.379  10.296  21.798  0.00  0.00    +0.000 A 
ENDBRANCH  20  23
ENDBRANCH  18  21
ENDBRANCH  17  18
ENDBRANCH   1  17
TORSDOF 5
ENDMDL
MODEL 9
REMARK VINA RESULT:      -8.6      2.511      2.892
REMARK  Name = 
REMARK  5 active torsions:
REMARK  status: ('A' for Active; 'I' for Inactive)
REMARK    1  A    between atoms: C_2  and  C_21
REMARK    2  A    between atoms: N_3  and  C_4
REMARK    3  A    between atoms: C_4  and  C_5
REMARK    4  A    between atoms: C_5  and  N_6
REMARK    5  A    between atoms: N_6  and  C_7
REMARK                            x       y       z     vdW  Elec       q    Type
REMARK                         _______ _______ _______ _____ _____    ______ ____
ROOT
ATOM      1  N   UNL     1       2.701   7.198  18.698  0.00  0.00    +0.000 N 
ATOM      2  H   UNL     1       2.827   7.555  19.651  0.00  0.00    +0.000 HD
ENDROOT
BRANCH   1   3
ATOM      3  C   UNL     1       3.153   5.857  18.382  0.00  0.00    +0.000 A 
ATOM      4  C   UNL     1       4.107   5.561  17.334  0.00  0.00    +0.000 A 
ATOM      5  C   UNL     1       4.501   4.208  17.128  0.00  0.00    +0.000 A 
ATOM      6  N   UNL     1       3.945   3.219  17.854  0.00  0.00    +0.000 NA
ATOM      7  C   UNL     1       3.031   3.437  18.823  0.00  0.00    +0.000 A 
ATOM      8  C   UNL     1       2.508   2.331  19.502  0.00  0.00    +0.000 A 
ATOM      9  C   UNL     1       1.556   2.504  20.501  0.00  0.00    +0.000 A 
ATOM     10  C   UNL     1       1.124   3.784  20.828  0.00  0.00    +0.000 A 
ATOM     11  C   UNL     1       1.640   4.898  20.160  0.00  0.00    +0.000 A 
ATOM     12  C   UNL     1       2.615   4.754  19.133  0.00  0.00    +0.000 A 
ATOM     13  C   UNL     1       5.549   3.796  16.122  0.00  0.00    +0.000 C 
ATOM     14  C   UNL     1       6.401   4.958  15.614  0.00  0.00    +0.000 C 
ATOM     15  C   UNL     1       5.491   6.093  15.221  0.00  0.00    +0.000 C 
ATOM     16  C   UNL     1       4.751   6.625  16.450  0.00  0.00    +0.000 C 
ENDBRANCH   1   3
BRANCH   1  17
ATOM     17  C   UNL     1       1.924   8.069  17.832  0.00  0.00    +0.000 C 
BRANCH  17  18
ATOM     18  C   UNL     1       2.010   9.544  18.230  0.00  0.00    +0.000 C 
BRANCH  18  21
ATOM     19  O   UNL     1       1.456  12.005  19.357  0.00  0.00    +0.000 OA
ATOM     20  C   UNL     1       0.779  11.062  19.747  0.00  0.00    +0.000 C 
ATOM     21  N   UNL     1       0.972   9.823  19.206  0.00  0.00    +0.000 N 
ATOM     22  H   UNL     1       0.422   9.018  19.526  0.00  0.00    +0.000 HD
BRANCH  20  23
ATOM     23  C   UNL     1      -0.211  11.306  20.847  0.00  0.00    +0.000 A 
ATOM     24  C   UNL     1      -0.136  10.532  22.025  0.00  0.00    +0.000 A 
ATOM     25  C   UNL     1      -1.051  10.714  23.063  0.00  0.00    +0.000 A 
ATOM     26  C   UNL     1      -2.060  11.670  22.946  0.00  0.00    +0.000 A 
ATOM     27  F   UNL     1      -2.949  11.845  23.955  0.00  0.00    +0.000 F 
ATOM     28  C   UNL     1      -2.154  12.445  21.791  0.00  0.00    +0.000 A 
ATOM     29  C   UNL     1      -1.241  12.269  20.748  0.00  0.00    +0.000 A 
ENDBRANCH  20  23
ENDBRANCH  18  21
ENDBRANCH  17  18
ENDBRANCH   1  17
TORSDOF 5
ENDMDL
