MODEL 1
REMARK VINA RESULT:      -7.9      0.000      0.000
REMARK  Name = 
REMARK  5 active torsions:
REMARK  status: ('A' for Active; 'I' for Inactive)
REMARK    1  A    between atoms: C_1  and  C_2
REMARK    2  A    between atoms: C_2  and  C_3
REMARK    3  A    between atoms: C_3  and  C_4
REMARK    4  A    between atoms: C_3  and  N_11
REMARK    5  A    between atoms: N_20  and  C_21
REMARK                            x       y       z     vdW  Elec       q    Type
REMARK                         _______ _______ _______ _____ _____    ______ ____
ROOT
ATOM      1  N   UNL     1       5.278   5.449  17.966  0.00  0.00    +0.000 N 
ATOM      2  C   UNL     1       5.752   4.274  18.492  0.00  0.00    +0.000 A 
ATOM      3  N   UNL     1       5.129   3.532  19.346  0.00  0.00    +0.000 NA
ATOM      4  C   UNL     1       3.889   3.950  19.759  0.00  0.00    +0.000 A 
ATOM      5  C   UNL     1       3.327   5.079  19.323  0.00  0.00    +0.000 A 
ATOM      6  C   UNL     1       2.014   5.387  19.882  0.00  0.00    +0.000 A 
ATOM      7  N   UNL     1       1.373   4.662  20.732  0.00  0.00    +0.000 NA
ATOM      8  C   UNL     1       1.947   3.489  21.161  0.00  0.00    +0.000 A 
ATOM      9  O   UNL     1       1.352   2.767  21.958  0.00  0.00    +0.000 OA
ATOM     10  N   UNL     1       3.213   3.151  20.666  0.00  0.00    +0.000 N 
ATOM     11  C   UNL     1       3.820   1.901  21.107  0.00  0.00    +0.000 C 
ATOM     12  C   UNL     1       4.036   5.917  18.348  0.00  0.00    +0.000 A 
ATOM     13  O   UNL     1       3.521   6.950  17.934  0.00  0.00    +0.000 OA
ENDROOT
BRANCH   1  14
ATOM     14  C   UNL     1       6.065   6.216  16.986  0.00  0.00    +0.000 C 
BRANCH  14  15
ATOM     15  C   UNL     1       6.184   5.441  15.670  0.00  0.00    +0.000 A 
ATOM     16  C   UNL     1       5.123   4.687  15.141  0.00  0.00    +0.000 A 
ATOM     17  C   UNL     1       5.263   3.987  13.942  0.00  0.00    +0.000 A 
ATOM     18  C   UNL     1       6.466   4.039  13.254  0.00  0.00    +0.000 A 
ATOM     19  F   UNL     1       6.601   3.356  12.111  0.00  0.00    +0.000 F 
ATOM     20  C   UNL     1       7.528   4.790  13.739  0.00  0.00    +0.000 A 
ATOM     21  C   UNL     1       7.390   5.496  14.940  0.00  0.00    +0.000 A 
ENDBRANCH  14  15
BRANCH  14  23
ATOM     22  C   UNL     1       7.614   8.193  17.528  0.00  0.00    +0.000 C 
ATOM     23  C   UNL     1       7.431   6.683  17.550  0.00  0.00    +0.000 C 
ENDBRANCH  14  23
ENDBRANCH   1  14
TORSDOF 3
ENDMDL
MODEL 2
REMARK VINA RESULT:      -7.8      0.080      1.009
REMARK  Name = 
REMARK  5 active torsions:
REMARK  status: ('A' for Active; 'I' for Inactive)
REMARK    1  A    between atoms: C_1  and  C_2
REMARK    2  A    between atoms: C_2  and  C_3
REMARK    3  A    between atoms: C_3  and  C_4
REMARK    4  A    between atoms: C_3  and  N_11
REMARK    5  A    between atoms: N_20  and  C_21
REMARK                            x       y       z     vdW  Elec       q    Type
REMARK                         _______ _______ _______ _____ _____    ______ ____
ROOT
ATOM      1  N   UNL     1       5.310   5.452  17.929  0.00  0.00    +0.000 N 
ATOM      2  C   UNL     1       5.787   4.289  18.478  0.00  0.00    +0.000 A 
ATOM      3  N   UNL     1       5.160   3.555  19.336  0.00  0.00    +0.000 NA
ATOM      4  C   UNL     1       3.912   3.969  19.728  0.00  0.00    +0.000 A 
ATOM      5  C   UNL     1       3.346   5.087  19.269  0.00  0.00    +0.000 A 
ATOM      6  C   UNL     1       2.025   5.393  19.808  0.00  0.00    +0.000 A 
ATOM      7  N   UNL     1       1.379   4.676  20.661  0.00  0.00    +0.000 NA
ATOM      8  C   UNL     1       1.957   3.513  21.115  0.00  0.00    +0.000 A 
ATOM      9  O   UNL     1       1.359   2.799  21.915  0.00  0.00    +0.000 OA
ATOM     10  N   UNL     1       3.232   3.178  20.640  0.00  0.00    +0.000 N 
ATOM     11  C   UNL     1       3.843   1.939  21.106  0.00  0.00    +0.000 C 
ATOM     12  C   UNL     1       4.060   5.916  18.290  0.00  0.00    +0.000 A 
ATOM     13  O   UNL     1       3.541   6.939  17.855  0.00  0.00    +0.000 OA
ENDROOT
BRANCH   1  14
ATOM     14  C   UNL     1       6.102   6.210  16.947  0.00  0.00    +0.000 C 
BRANCH  14  15
ATOM     15  C   UNL     1       6.214   5.431  15.632  0.00  0.00    +0.000 A 
ATOM     16  C   UNL     1       7.378   5.441  14.847  0.00  0.00    +0.000 A 
ATOM     17  C   UNL     1       7.448   4.725  13.651  0.00  0.00    +0.000 A 
ATOM     18  C   UNL     1       6.354   3.986  13.230  0.00  0.00    +0.000 A 
ATOM     19  F   UNL     1       6.419   3.311  12.076  0.00  0.00    +0.000 F 
ATOM     20  C   UNL     1       5.195   3.938  13.992  0.00  0.00    +0.000 A 
ATOM     21  C   UNL     1       5.122   4.653  15.194  0.00  0.00    +0.000 A 
ENDBRANCH  14  15
BRANCH  14  23
ATOM     22  C   UNL     1       7.632   8.181  17.563  0.00  0.00    +0.000 C 
ATOM     23  C   UNL     1       7.471   6.668  17.508  0.00  0.00    +0.000 C 
ENDBRANCH  14  23
ENDBRANCH   1  14
TORSDOF 3
ENDMDL
MODEL 3
REMARK VINA RESULT:      -7.5      1.217      1.950
REMARK  Name = 
REMARK  5 active torsions:
REMARK  status: ('A' for Active; 'I' for Inactive)
REMARK    1  A    between atoms: C_1  and  C_2
REMARK    2  A    between atoms: C_2  and  C_3
REMARK    3  A    between atoms: C_3  and  C_4
REMARK    4  A    between atoms: C_3  and  N_11
REMARK    5  A    between atoms: N_20  and  C_21
REMARK                            x       y       z     vdW  Elec       q    Type
REMARK                         _______ _______ _______ _____ _____    ______ ____
ROOT
ATOM      1  N   UNL     1       5.054   5.616  17.806  0.00  0.00    +0.000 N 
ATOM      2  C   UNL     1       3.796   6.125  18.009  0.00  0.00    +0.000 A 
ATOM      3  N   UNL     1       2.914   5.636  18.815  0.00  0.00    +0.000 NA
ATOM      4  C   UNL     1       3.262   4.518  19.531  0.00  0.00    +0.000 A 
ATOM      5  C   UNL     1       4.454   3.929  19.412  0.00  0.00    +0.000 A 
ATOM      6  C   UNL     1       4.652   2.736  20.228  0.00  0.00    +0.000 A 
ATOM      7  N   UNL     1       3.788   2.231  21.040  0.00  0.00    +0.000 NA
ATOM      8  C   UNL     1       2.570   2.854  21.175  0.00  0.00    +0.000 A 
ATOM      9  O   UNL     1       1.732   2.408  21.954  0.00  0.00    +0.000 OA
ATOM     10  N   UNL     1       2.321   3.998  20.404  0.00  0.00    +0.000 N 
ATOM     11  C   UNL     1       1.037   4.671  20.554  0.00  0.00    +0.000 C 
ATOM     12  C   UNL     1       5.456   4.491  18.499  0.00  0.00    +0.000 A 
ATOM     13  O   UNL     1       6.558   3.962  18.393  0.00  0.00    +0.000 OA
ENDROOT
BRANCH   1  14
ATOM     14  C   UNL     1       5.992   6.258  16.870  0.00  0.00    +0.000 C 
BRANCH  14  15
ATOM     15  C   UNL     1       6.118   5.431  15.586  0.00  0.00    +0.000 A 
ATOM     16  C   UNL     1       5.071   4.630  15.100  0.00  0.00    +0.000 A 
ATOM     17  C   UNL     1       5.218   3.883  13.930  0.00  0.00    +0.000 A 
ATOM     18  C   UNL     1       6.414   3.934  13.230  0.00  0.00    +0.000 A 
ATOM     19  F   UNL     1       6.556   3.206  12.116  0.00  0.00    +0.000 F 
ATOM     20  C   UNL     1       7.461   4.730  13.673  0.00  0.00    +0.000 A 
ATOM     21  C   UNL     1       7.316   5.483  14.844  0.00  0.00    +0.000 A 
ENDBRANCH  14  15
BRANCH  14  23
ATOM     22  C   UNL     1       7.664   8.081  17.565  0.00  0.00    +0.000 C 
ATOM     23  C   UNL     1       7.356   6.591  17.523  0.00  0.00    +0.000 C 
ENDBRANCH  14  23
ENDBRANCH   1  14
TORSDOF 3
ENDMDL
MODEL 4
REMARK VINA RESULT:      -7.5      1.217      2.192
REMARK  Name = 
REMARK  5 active torsions:
REMARK  status: ('A' for Active; 'I' for Inactive)
REMARK    1  A    between atoms: C_1  and  C_2
REMARK    2  A    between atoms: C_2  and  C_3
REMARK    3  A    between atoms: C_3  and  C_4
REMARK    4  A    between atoms: C_3  and  N_11
REMARK    5  A    between atoms: N_20  and  C_21
REMARK                            x       y       z     vdW  Elec       q    Type
REMARK                         _______ _______ _______ _____ _____    ______ ____
ROOT
ATOM      1  N   UNL     1       5.061   5.647  17.864  0.00  0.00    +0.000 N 
ATOM      2  C   UNL     1       3.793   6.137  18.048  0.00  0.00    +0.000 A 
ATOM      3  N   UNL     1       2.904   5.633  18.838  0.00  0.00    +0.000 NA
ATOM      4  C   UNL     1       3.257   4.519  19.557  0.00  0.00    +0.000 A 
ATOM      5  C   UNL     1       4.460   3.948  19.458  0.00  0.00    +0.000 A 
ATOM      6  C   UNL     1       4.662   2.756  20.275  0.00  0.00    +0.000 A 
ATOM      7  N   UNL     1       3.792   2.238  21.072  0.00  0.00    +0.000 NA
ATOM      8  C   UNL     1       2.563   2.842  21.187  0.00  0.00    +0.000 A 
ATOM      9  O   UNL     1       1.719   2.382  21.952  0.00  0.00    +0.000 OA
ATOM     10  N   UNL     1       2.310   3.984  20.414  0.00  0.00    +0.000 N 
ATOM     11  C   UNL     1       1.014   4.637  20.544  0.00  0.00    +0.000 C 
ATOM     12  C   UNL     1       5.469   4.527  18.562  0.00  0.00    +0.000 A 
ATOM     13  O   UNL     1       6.580   4.014  18.474  0.00  0.00    +0.000 OA
ENDROOT
BRANCH   1  14
ATOM     14  C   UNL     1       6.005   6.305  16.945  0.00  0.00    +0.000 C 
BRANCH  14  15
ATOM     15  C   UNL     1       6.164   5.482  15.663  0.00  0.00    +0.000 A 
ATOM     16  C   UNL     1       7.367   5.442  14.938  0.00  0.00    +0.000 A 
ATOM     17  C   UNL     1       7.480   4.687  13.769  0.00  0.00    +0.000 A 
ATOM     18  C   UNL     1       6.392   3.957  13.316  0.00  0.00    +0.000 A 
ATOM     19  F   UNL     1       6.499   3.244  12.189  0.00  0.00    +0.000 F 
ATOM     20  C   UNL     1       5.195   3.959  14.020  0.00  0.00    +0.000 A 
ATOM     21  C   UNL     1       5.079   4.713  15.193  0.00  0.00    +0.000 A 
ENDBRANCH  14  15
BRANCH  14  23
ATOM     22  C   UNL     1       7.684   8.142  17.583  0.00  0.00    +0.000 C 
ATOM     23  C   UNL     1       7.353   6.656  17.622  0.00  0.00    +0.000 C 
ENDBRANCH  14  23
ENDBRANCH   1  14
TORSDOF 3
ENDMDL
MODEL 5
REMARK VINA RESULT:      -7.4      3.380      5.370
REMARK  Name = 
REMARK  5 active torsions:
REMARK  status: ('A' for Active; 'I' for Inactive)
REMARK    1  A    between atoms: C_1  and  C_2
REMARK    2  A    between atoms: C_2  and  C_3
REMARK    3  A    between atoms: C_3  and  C_4
REMARK    4  A    between atoms: C_3  and  N_11
REMARK    5  A    between atoms: N_20  and  C_21
REMARK                            x       y       z     vdW  Elec       q    Type
REMARK                         _______ _______ _______ _____ _____    ______ ____
ROOT
ATOM      1  N   UNL     1       2.402   5.985  18.974  0.00  0.00    +0.000 N 
ATOM      2  C   UNL     1       2.456   6.942  17.993  0.00  0.00    +0.000 A 
ATOM      3  N   UNL     1       2.126   8.182  18.139  0.00  0.00    +0.000 NA
ATOM      4  C   UNL     1       1.690   8.578  19.378  0.00  0.00    +0.000 A 
ATOM      5  C   UNL     1       1.588   7.736  20.409  0.00  0.00    +0.000 A 
ATOM      6  C   UNL     1       1.084   8.316  21.650  0.00  0.00    +0.000 A 
ATOM      7  N   UNL     1       0.752   9.549  21.820  0.00  0.00    +0.000 NA
ATOM      8  C   UNL     1       0.879  10.417  20.760  0.00  0.00    +0.000 A 
ATOM      9  O   UNL     1       0.587  11.602  20.896  0.00  0.00    +0.000 OA
ATOM     10  N   UNL     1       1.346   9.910  19.541  0.00  0.00    +0.000 N 
ATOM     11  C   UNL     1       1.498  10.828  18.419  0.00  0.00    +0.000 C 
ATOM     12  C   UNL     1       1.969   6.329  20.240  0.00  0.00    +0.000 A 
ATOM     13  O   UNL     1       1.888   5.552  21.186  0.00  0.00    +0.000 OA
ENDROOT
BRANCH   1  14
ATOM     14  C   UNL     1       2.813   4.597  18.707  0.00  0.00    +0.000 C 
BRANCH  14  15
ATOM     15  C   UNL     1       4.203   4.565  18.062  0.00  0.00    +0.000 A 
ATOM     16  C   UNL     1       5.360   4.972  18.745  0.00  0.00    +0.000 A 
ATOM     17  C   UNL     1       6.612   4.936  18.129  0.00  0.00    +0.000 A 
ATOM     18  C   UNL     1       6.720   4.487  16.822  0.00  0.00    +0.000 A 
ATOM     19  F   UNL     1       7.920   4.465  16.229  0.00  0.00    +0.000 F 
ATOM     20  C   UNL     1       5.598   4.059  16.125  0.00  0.00    +0.000 A 
ATOM     21  C   UNL     1       4.342   4.090  16.741  0.00  0.00    +0.000 A 
ENDBRANCH  14  15
BRANCH  14  23
ATOM     22  C   UNL     1       0.986   2.791  18.760  0.00  0.00    +0.000 C 
ATOM     23  C   UNL     1       1.748   3.800  17.913  0.00  0.00    +0.000 C 
ENDBRANCH  14  23
ENDBRANCH   1  14
TORSDOF 3
ENDMDL
MODEL 6
REMARK VINA RESULT:      -7.4      3.530      5.488
REMARK  Name = 
REMARK  5 active torsions:
REMARK  status: ('A' for Active; 'I' for Inactive)
REMARK    1  A    between atoms: C_1  and  C_2
REMARK    2  A    between atoms: C_2  and  C_3
REMARK    3  A    between atoms: C_3  and  C_4
REMARK    4  A    between atoms: C_3  and  N_11
REMARK    5  A    between atoms: N_20  and  C_21
REMARK                            x       y       z     vdW  Elec       q    Type
REMARK                         _______ _______ _______ _____ _____    ______ ____
ROOT
ATOM      1  N   UNL     1       2.314   6.153  19.010  0.00  0.00    +0.000 N 
ATOM      2  C   UNL     1       2.396   7.106  18.026  0.00  0.00    +0.000 A 
ATOM      3  N   UNL     1       2.095   8.353  18.168  0.00  0.00    +0.000 NA
ATOM      4  C   UNL     1       1.661   8.762  19.404  0.00  0.00    +0.000 A 
ATOM      5  C   UNL     1       1.534   7.926  20.436  0.00  0.00    +0.000 A 
ATOM      6  C   UNL     1       1.038   8.520  21.673  0.00  0.00    +0.000 A 
ATOM      7  N   UNL     1       0.734   9.761  21.838  0.00  0.00    +0.000 NA
ATOM      8  C   UNL     1       0.887  10.623  20.778  0.00  0.00    +0.000 A 
ATOM      9  O   UNL     1       0.623  11.815  20.910  0.00  0.00    +0.000 OA
ATOM     10  N   UNL     1       1.348  10.102  19.562  0.00  0.00    +0.000 N 
ATOM     11  C   UNL     1       1.527  11.014  18.439  0.00  0.00    +0.000 C 
ATOM     12  C   UNL     1       1.883   6.509  20.272  0.00  0.00    +0.000 A 
ATOM     13  O   UNL     1       1.779   5.736  21.220  0.00  0.00    +0.000 OA
ENDROOT
BRANCH   1  14
ATOM     14  C   UNL     1       2.694   4.755  18.747  0.00  0.00    +0.000 C 
BRANCH  14  15
ATOM     15  C   UNL     1       4.120   4.682  18.192  0.00  0.00    +0.000 A 
ATOM     16  C   UNL     1       4.400   4.245  16.887  0.00  0.00    +0.000 A 
ATOM     17  C   UNL     1       5.710   4.184  16.411  0.00  0.00    +0.000 A 
ATOM     18  C   UNL     1       6.757   4.567  17.236  0.00  0.00    +0.000 A 
ATOM     19  F   UNL     1       8.014   4.496  16.781  0.00  0.00    +0.000 F 
ATOM     20  C   UNL     1       6.514   5.023  18.524  0.00  0.00    +0.000 A 
ATOM     21  C   UNL     1       5.200   5.088  19.003  0.00  0.00    +0.000 A 
ENDBRANCH  14  15
BRANCH  14  23
ATOM     22  C   UNL     1       1.092   2.757  18.535  0.00  0.00    +0.000 C 
ATOM     23  C   UNL     1       1.656   4.007  17.874  0.00  0.00    +0.000 C 
ENDBRANCH  14  23
ENDBRANCH   1  14
TORSDOF 3
ENDMDL
MODEL 7
REMARK VINA RESULT:      -7.4      4.325      6.059
REMARK  Name = 
REMARK  5 active torsions:
REMARK  status: ('A' for Active; 'I' for Inactive)
REMARK    1  A    between atoms: C_1  and  C_2
REMARK    2  A    between atoms: C_2  and  C_3
REMARK    3  A    between atoms: C_3  and  C_4
REMARK    4  A    between atoms: C_3  and  N_11
REMARK    5  A    between atoms: N_20  and  C_21
REMARK                            x       y       z     vdW  Elec       q    Type
REMARK                         _______ _______ _______ _____ _____    ______ ____
ROOT
ATOM      1  N   UNL     1       2.312   7.512  18.808  0.00  0.00    +0.000 N 
ATOM      2  C   UNL     1       2.075   7.177  20.117  0.00  0.00    +0.000 A 
ATOM      3  N   UNL     1       1.482   7.927  20.985  0.00  0.00    +0.000 NA
ATOM      4  C   UNL     1       1.049   9.160  20.564  0.00  0.00    +0.000 A 
ATOM      5  C   UNL     1       1.229   9.599  19.317  0.00  0.00    +0.000 A 
ATOM      6  C   UNL     1       0.729  10.943  19.043  0.00  0.00    +0.000 A 
ATOM      7  N   UNL     1       0.133  11.708  19.891  0.00  0.00    +0.000 NA
ATOM      8  C   UNL     1      -0.069  11.242  21.169  0.00  0.00    +0.000 A 
ATOM      9  O   UNL     1      -0.650  11.940  21.995  0.00  0.00    +0.000 OA
ATOM     10  N   UNL     1       0.403   9.962  21.490  0.00  0.00    +0.000 N 
ATOM     11  C   UNL     1       0.178   9.457  22.839  0.00  0.00    +0.000 C 
ATOM     12  C   UNL     1       1.899   8.741  18.332  0.00  0.00    +0.000 A 
ATOM     13  O   UNL     1       2.057   9.134  17.180  0.00  0.00    +0.000 OA
ENDROOT
BRANCH   1  14
ATOM     14  C   UNL     1       2.987   6.577  17.894  0.00  0.00    +0.000 C 
BRANCH  14  15
ATOM     15  C   UNL     1       2.674   5.128  18.282  0.00  0.00    +0.000 A 
ATOM     16  C   UNL     1       1.480   4.490  17.908  0.00  0.00    +0.000 A 
ATOM     17  C   UNL     1       1.220   3.170  18.281  0.00  0.00    +0.000 A 
ATOM     18  C   UNL     1       2.155   2.472  19.029  0.00  0.00    +0.000 A 
ATOM     19  F   UNL     1       1.898   1.211  19.396  0.00  0.00    +0.000 F 
ATOM     20  C   UNL     1       3.354   3.067  19.398  0.00  0.00    +0.000 A 
ATOM     21  C   UNL     1       3.619   4.389  19.023  0.00  0.00    +0.000 A 
ENDBRANCH  14  15
BRANCH  14  23
ATOM     22  C   UNL     1       5.043   6.641  16.353  0.00  0.00    +0.000 C 
ATOM     23  C   UNL     1       4.504   6.862  17.759  0.00  0.00    +0.000 C 
ENDBRANCH  14  23
ENDBRANCH   1  14
TORSDOF 3
ENDMDL
MODEL 8
REMARK VINA RESULT:      -7.4      4.365      6.182
REMARK  Name = 
REMARK  5 active torsions:
REMARK  status: ('A' for Active; 'I' for Inactive)
REMARK    1  A    between atoms: C_1  and  C_2
REMARK    2  A    between atoms: C_2  and  C_3
REMARK    3  A    between atoms: C_3  and  C_4
REMARK    4  A    between atoms: C_3  and  N_11
REMARK    5  A    between atoms: N_20  and  C_21
REMARK                            x       y       z     vdW  Elec       q    Type
REMARK                         _______ _______ _______ _____ _____    ______ ____
ROOT
ATOM      1  N   UNL     1       2.266   7.572  18.867  0.00  0.00    +0.000 N 
ATOM      2  C   UNL     1       2.023   7.232  20.174  0.00  0.00    +0.000 A 
ATOM      3  N   UNL     1       1.430   7.979  21.043  0.00  0.00    +0.000 NA
ATOM      4  C   UNL     1       1.002   9.215  20.626  0.00  0.00    +0.000 A 
ATOM      5  C   UNL     1       1.187   9.660  19.381  0.00  0.00    +0.000 A 
ATOM      6  C   UNL     1       0.692  11.006  19.112  0.00  0.00    +0.000 A 
ATOM      7  N   UNL     1       0.095  11.768  19.961  0.00  0.00    +0.000 NA
ATOM      8  C   UNL     1      -0.113  11.297  21.236  0.00  0.00    +0.000 A 
ATOM      9  O   UNL     1      -0.695  11.993  22.064  0.00  0.00    +0.000 OA
ATOM     10  N   UNL     1       0.355  10.015  21.553  0.00  0.00    +0.000 N 
ATOM     11  C   UNL     1       0.124   9.504  22.899  0.00  0.00    +0.000 C 
ATOM     12  C   UNL     1       1.858   8.804  18.395  0.00  0.00    +0.000 A 
ATOM     13  O   UNL     1       2.021   9.202  17.246  0.00  0.00    +0.000 OA
ENDROOT
BRANCH   1  14
ATOM     14  C   UNL     1       2.942   6.639  17.951  0.00  0.00    +0.000 C 
BRANCH  14  15
ATOM     15  C   UNL     1       2.673   5.189  18.368  0.00  0.00    +0.000 A 
ATOM     16  C   UNL     1       3.508   4.493  19.258  0.00  0.00    +0.000 A 
ATOM     17  C   UNL     1       3.239   3.171  19.615  0.00  0.00    +0.000 A 
ATOM     18  C   UNL     1       2.127   2.532  19.089  0.00  0.00    +0.000 A 
ATOM     19  F   UNL     1       1.879   1.259  19.423  0.00  0.00    +0.000 F 
ATOM     20  C   UNL     1       1.271   3.197  18.222  0.00  0.00    +0.000 A 
ATOM     21  C   UNL     1       1.535   4.524  17.865  0.00  0.00    +0.000 A 
ENDBRANCH  14  15
BRANCH  14  23
ATOM     22  C   UNL     1       4.995   6.580  16.407  0.00  0.00    +0.000 C 
ATOM     23  C   UNL     1       4.448   6.958  17.776  0.00  0.00    +0.000 C 
ENDBRANCH  14  23
ENDBRANCH   1  14
TORSDOF 3
ENDMDL
MODEL 9
REMARK VINA RESULT:      -7.2      2.937      4.778
REMARK  Name = 
REMARK  5 active torsions:
REMARK  status: ('A' for Active; 'I' for Inactive)
REMARK    1  A    between atoms: C_1  and  C_2
REMARK    2  A    between atoms: C_2  and  C_3
REMARK    3  A    between atoms: C_3  and  C_4
REMARK    4  A    between atoms: C_3  and  N_11
REMARK    5  A    between atoms: N_20  and  C_21
REMARK                            x       y       z     vdW  Elec       q    Type
REMARK                         _______ _______ _______ _____ _____    ______ ____
ROOT
ATOM      1  N   UNL     1       3.112   5.618  18.784  0.00  0.00    +0.000 N 
ATOM      2  C   UNL     1       3.166   6.601  17.828  0.00  0.00    +0.000 A 
ATOM      3  N   UNL     1       2.658   7.782  17.941  0.00  0.00    +0.000 NA
ATOM      4  C   UNL     1       2.013   8.082  19.115  0.00  0.00    +0.000 A 
ATOM      5  C   UNL     1       1.889   7.206  20.114  0.00  0.00    +0.000 A 
ATOM      6  C   UNL     1       1.153   7.680  21.281  0.00  0.00    +0.000 A 
ATOM      7  N   UNL     1       0.639   8.853  21.418  0.00  0.00    +0.000 NA
ATOM      8  C   UNL     1       0.788   9.759  20.395  0.00  0.00    +0.000 A 
ATOM      9  O   UNL     1       0.325  10.892  20.502  0.00  0.00    +0.000 OA
ATOM     10  N   UNL     1       1.475   9.353  19.244  0.00  0.00    +0.000 N 
ATOM     11  C   UNL     1       1.649  10.314  18.162  0.00  0.00    +0.000 C 
ATOM     12  C   UNL     1       2.474   5.866  19.983  0.00  0.00    +0.000 A 
ATOM     13  O   UNL     1       2.374   5.058  20.902  0.00  0.00    +0.000 OA
ENDROOT
BRANCH   1  14
ATOM     14  C   UNL     1       3.737   4.304  18.559  0.00  0.00    +0.000 C 
BRANCH  14  15
ATOM     15  C   UNL     1       4.868   4.417  17.531  0.00  0.00    +0.000 A 
ATOM     16  C   UNL     1       6.196   4.688  17.898  0.00  0.00    +0.000 A 
ATOM     17  C   UNL     1       7.204   4.791  16.938  0.00  0.00    +0.000 A 
ATOM     18  C   UNL     1       6.893   4.617  15.598  0.00  0.00    +0.000 A 
ATOM     19  F   UNL     1       7.860   4.729  14.678  0.00  0.00    +0.000 F 
ATOM     20  C   UNL     1       5.594   4.329  15.203  0.00  0.00    +0.000 A 
ATOM     21  C   UNL     1       4.582   4.223  16.163  0.00  0.00    +0.000 A 
ENDBRANCH  14  15
BRANCH  14  23
ATOM     22  C   UNL     1       3.206   1.791  18.494  0.00  0.00    +0.000 C 
ATOM     23  C   UNL     1       2.704   3.201  18.218  0.00  0.00    +0.000 C 
ENDBRANCH  14  23
ENDBRANCH   1  14
TORSDOF 3
ENDMDL
