MODEL 1
REMARK VINA RESULT:      -7.8      0.000      0.000
REMARK  Name = 
REMARK  5 active torsions:
REMARK  status: ('A' for Active; 'I' for Inactive)
REMARK    1  A    between atoms: C_1  and  C_2
REMARK    2  A    between atoms: C_2  and  C_3
REMARK    3  A    between atoms: N_5  and  C_6
REMARK    4  A    between atoms: C_13  and  C_15
REMARK    5  A    between atoms: C_18  and  C_19
REMARK                            x       y       z     vdW  Elec       q    Type
REMARK                         _______ _______ _______ _____ _____    ______ ____
ROOT
ATOM      1  C   UNL     1       1.805   2.707  18.224  0.00  0.00    +0.000 C 
ATOM      2  C   UNL     1       2.761   3.764  18.767  0.00  0.00    +0.000 C 
ATOM      3  C   UNL     1       3.396   3.282  20.079  0.00  0.00    +0.000 C 
ATOM      4  C   UNL     1       3.814   4.135  17.729  0.00  0.00    +0.000 C 
ATOM      5  N   UNL     1       4.086   5.557  17.937  0.00  0.00    +0.000 N 
ATOM      6  N   UNL     1       3.056   6.116  18.774  0.00  0.00    +0.000 N 
ATOM      7  C   UNL     1       2.619   7.416  18.481  0.00  0.00    +0.000 C 
ATOM      8  O   UNL     1       2.855   8.023  17.439  0.00  0.00    +0.000 OA
ATOM      9  C   UNL     1       2.109   5.104  19.021  0.00  0.00    +0.000 C 
ATOM     10  O   UNL     1       0.989   5.231  19.502  0.00  0.00    +0.000 OA
ENDROOT
BRANCH   5  11
ATOM     11  C   UNL     1       5.429   5.955  18.118  0.00  0.00    +0.000 A 
ATOM     12  C   UNL     1       6.200   5.382  19.152  0.00  0.00    +0.000 A 
ATOM     13  C   UNL     1       7.536   5.727  19.372  0.00  0.00    +0.000 A 
ATOM     14  C   UNL     1       8.160   6.632  18.528  0.00  0.00    +0.000 A 
ATOM     15  C   UNL     1       7.445   7.182  17.469  0.00  0.00    +0.000 A 
ATOM     16  C   UNL     1       6.097   6.849  17.268  0.00  0.00    +0.000 A 
ENDBRANCH   5  11
BRANCH   7  17
ATOM     17  C   UNL     1       1.810   8.113  19.540  0.00  0.00    +0.000 A 
ATOM     18  C   UNL     1       1.903   7.764  20.895  0.00  0.00    +0.000 A 
ATOM     19  C   UNL     1       1.139   8.442  21.857  0.00  0.00    +0.000 A 
ATOM     20  C   UNL     1       0.291   9.488  21.478  0.00  0.00    +0.000 A 
ATOM     21  C   UNL     1       0.220   9.862  20.132  0.00  0.00    +0.000 A 
ATOM     22  C   UNL     1       0.979   9.181  19.170  0.00  0.00    +0.000 A 
BRANCH  20  23
ATOM     23  C   UNL     1      -0.489  10.179  22.465  0.00  0.00    +0.000 C 
ATOM     24  N   UNL     1      -1.123  10.732  23.268  0.00  0.00    +0.000 NA
ENDBRANCH  20  23
ENDBRANCH   7  17
TORSDOF 3
ENDMDL
MODEL 2
REMARK VINA RESULT:      -7.8      2.577      6.767
REMARK  Name = 
REMARK  5 active torsions:
REMARK  status: ('A' for Active; 'I' for Inactive)
REMARK    1  A    between atoms: C_1  and  C_2
REMARK    2  A    between atoms: C_2  and  C_3
REMARK    3  A    between atoms: N_5  and  C_6
REMARK    4  A    between atoms: C_13  and  C_15
REMARK    5  A    between atoms: C_18  and  C_19
REMARK                            x       y       z     vdW  Elec       q    Type
REMARK                         _______ _______ _______ _____ _____    ______ ____
ROOT
ATOM      1  C   UNL     1       1.995   2.092  20.123  0.00  0.00    +0.000 C 
ATOM      2  C   UNL     1       2.015   3.452  19.432  0.00  0.00    +0.000 C 
ATOM      3  C   UNL     1       0.818   3.581  18.480  0.00  0.00    +0.000 C 
ATOM      4  C   UNL     1       2.056   4.584  20.451  0.00  0.00    +0.000 C 
ATOM      5  N   UNL     1       2.860   5.639  19.834  0.00  0.00    +0.000 N 
ATOM      6  N   UNL     1       3.558   5.095  18.697  0.00  0.00    +0.000 N 
ATOM      7  C   UNL     1       4.866   5.544  18.466  0.00  0.00    +0.000 C 
ATOM      8  O   UNL     1       5.553   6.167  19.273  0.00  0.00    +0.000 OA
ATOM      9  C   UNL     1       3.277   3.717  18.642  0.00  0.00    +0.000 C 
ATOM     10  O   UNL     1       3.841   2.866  17.964  0.00  0.00    +0.000 OA
ENDROOT
BRANCH   5  11
ATOM     11  C   UNL     1       2.307   6.936  19.761  0.00  0.00    +0.000 A 
ATOM     12  C   UNL     1       2.351   7.654  18.546  0.00  0.00    +0.000 A 
ATOM     13  C   UNL     1       1.811   8.936  18.411  0.00  0.00    +0.000 A 
ATOM     14  C   UNL     1       1.165   9.525  19.486  0.00  0.00    +0.000 A 
ATOM     15  C   UNL     1       1.060   8.830  20.686  0.00  0.00    +0.000 A 
ATOM     16  C   UNL     1       1.626   7.553  20.821  0.00  0.00    +0.000 A 
ENDBRANCH   5  11
BRANCH   7  17
ATOM     17  C   UNL     1       5.456   5.244  17.115  0.00  0.00    +0.000 A 
ATOM     18  C   UNL     1       6.574   4.413  16.962  0.00  0.00    +0.000 A 
ATOM     19  C   UNL     1       7.093   4.148  15.686  0.00  0.00    +0.000 A 
ATOM     20  C   UNL     1       6.487   4.693  14.549  0.00  0.00    +0.000 A 
ATOM     21  C   UNL     1       5.351   5.497  14.693  0.00  0.00    +0.000 A 
ATOM     22  C   UNL     1       4.836   5.766  15.969  0.00  0.00    +0.000 A 
BRANCH  20  23
ATOM     23  C   UNL     1       7.021   4.421  13.244  0.00  0.00    +0.000 C 
ATOM     24  N   UNL     1       7.455   4.207  12.187  0.00  0.00    +0.000 NA
ENDBRANCH  20  23
ENDBRANCH   7  17
TORSDOF 3
ENDMDL
MODEL 3
REMARK VINA RESULT:      -7.7      2.502      6.665
REMARK  Name = 
REMARK  5 active torsions:
REMARK  status: ('A' for Active; 'I' for Inactive)
REMARK    1  A    between atoms: C_1  and  C_2
REMARK    2  A    between atoms: C_2  and  C_3
REMARK    3  A    between atoms: N_5  and  C_6
REMARK    4  A    between atoms: C_13  and  C_15
REMARK    5  A    between atoms: C_18  and  C_19
REMARK                            x       y       z     vdW  Elec       q    Type
REMARK                         _______ _______ _______ _____ _____    ______ ____
ROOT
ATOM      1  C   UNL     1       1.997   1.874  20.049  0.00  0.00    +0.000 C 
ATOM      2  C   UNL     1       2.002   3.272  19.439  0.00  0.00    +0.000 C 
ATOM      3  C   UNL     1       0.835   3.426  18.453  0.00  0.00    +0.000 C 
ATOM      4  C   UNL     1       1.975   4.343  20.524  0.00  0.00    +0.000 C 
ATOM      5  N   UNL     1       2.770   5.453  19.999  0.00  0.00    +0.000 N 
ATOM      6  N   UNL     1       3.523   4.996  18.859  0.00  0.00    +0.000 N 
ATOM      7  C   UNL     1       4.824   5.493  18.702  0.00  0.00    +0.000 C 
ATOM      8  O   UNL     1       5.465   6.084  19.568  0.00  0.00    +0.000 OA
ATOM      9  C   UNL     1       3.283   3.616  18.713  0.00  0.00    +0.000 C 
ATOM     10  O   UNL     1       3.894   2.823  18.008  0.00  0.00    +0.000 OA
ENDROOT
BRANCH   5  11
ATOM     11  C   UNL     1       2.183   6.737  19.982  0.00  0.00    +0.000 A 
ATOM     12  C   UNL     1       1.504   7.217  21.122  0.00  0.00    +0.000 A 
ATOM     13  C   UNL     1       0.915   8.483  21.168  0.00  0.00    +0.000 A 
ATOM     14  C   UNL     1       1.027   9.333  20.079  0.00  0.00    +0.000 A 
ATOM     15  C   UNL     1       1.730   8.913  18.955  0.00  0.00    +0.000 A 
ATOM     16  C   UNL     1       2.299   7.631  18.907  0.00  0.00    +0.000 A 
ENDBRANCH   5  11
BRANCH   7  17
ATOM     17  C   UNL     1       5.469   5.289  17.358  0.00  0.00    +0.000 A 
ATOM     18  C   UNL     1       6.677   4.593  17.213  0.00  0.00    +0.000 A 
ATOM     19  C   UNL     1       7.246   4.415  15.943  0.00  0.00    +0.000 A 
ATOM     20  C   UNL     1       6.603   4.911  14.804  0.00  0.00    +0.000 A 
ATOM     21  C   UNL     1       5.381   5.578  14.940  0.00  0.00    +0.000 A 
ATOM     22  C   UNL     1       4.815   5.760  16.210  0.00  0.00    +0.000 A 
BRANCH  20  23
ATOM     23  C   UNL     1       7.189   4.728  13.506  0.00  0.00    +0.000 C 
ATOM     24  N   UNL     1       7.669   4.581  12.458  0.00  0.00    +0.000 NA
ENDBRANCH  20  23
ENDBRANCH   7  17
TORSDOF 3
ENDMDL
MODEL 4
REMARK VINA RESULT:      -7.7      2.702      6.942
REMARK  Name = 
REMARK  5 active torsions:
REMARK  status: ('A' for Active; 'I' for Inactive)
REMARK    1  A    between atoms: C_1  and  C_2
REMARK    2  A    between atoms: C_2  and  C_3
REMARK    3  A    between atoms: N_5  and  C_6
REMARK    4  A    between atoms: C_13  and  C_15
REMARK    5  A    between atoms: C_18  and  C_19
REMARK                            x       y       z     vdW  Elec       q    Type
REMARK                         _______ _______ _______ _____ _____    ______ ____
ROOT
ATOM      1  C   UNL     1       2.558   2.346  20.662  0.00  0.00    +0.000 C 
ATOM      2  C   UNL     1       2.397   3.566  19.762  0.00  0.00    +0.000 C 
ATOM      3  C   UNL     1       1.086   3.471  18.968  0.00  0.00    +0.000 C 
ATOM      4  C   UNL     1       2.480   4.857  20.568  0.00  0.00    +0.000 C 
ATOM      5  N   UNL     1       3.126   5.829  19.686  0.00  0.00    +0.000 N 
ATOM      6  N   UNL     1       3.717   5.135  18.571  0.00  0.00    +0.000 N 
ATOM      7  C   UNL     1       4.951   5.602  18.098  0.00  0.00    +0.000 C 
ATOM      8  O   UNL     1       5.686   6.387  18.695  0.00  0.00    +0.000 OA
ATOM      9  C   UNL     1       3.531   3.755  18.779  0.00  0.00    +0.000 C 
ATOM     10  O   UNL     1       4.067   2.830  18.181  0.00  0.00    +0.000 OA
ENDROOT
BRANCH   5  11
ATOM     11  C   UNL     1       2.477   7.066  19.476  0.00  0.00    +0.000 A 
ATOM     12  C   UNL     1       2.428   7.625  18.181  0.00  0.00    +0.000 A 
ATOM     13  C   UNL     1       1.791   8.839  17.911  0.00  0.00    +0.000 A 
ATOM     14  C   UNL     1       1.139   9.515  18.930  0.00  0.00    +0.000 A 
ATOM     15  C   UNL     1       1.126   8.971  20.211  0.00  0.00    +0.000 A 
ATOM     16  C   UNL     1       1.788   7.764  20.479  0.00  0.00    +0.000 A 
ENDBRANCH   5  11
BRANCH   7  17
ATOM     17  C   UNL     1       5.392   5.105  16.748  0.00  0.00    +0.000 A 
ATOM     18  C   UNL     1       4.483   4.899  15.701  0.00  0.00    +0.000 A 
ATOM     19  C   UNL     1       4.931   4.443  14.452  0.00  0.00    +0.000 A 
ATOM     20  C   UNL     1       6.292   4.208  14.231  0.00  0.00    +0.000 A 
ATOM     21  C   UNL     1       7.207   4.444  15.263  0.00  0.00    +0.000 A 
ATOM     22  C   UNL     1       6.758   4.895  16.513  0.00  0.00    +0.000 A 
BRANCH  20  23
ATOM     23  C   UNL     1       6.746   3.740  12.952  0.00  0.00    +0.000 C 
ATOM     24  N   UNL     1       7.117   3.355  11.920  0.00  0.00    +0.000 NA
ENDBRANCH  20  23
ENDBRANCH   7  17
TORSDOF 3
ENDMDL
MODEL 5
REMARK VINA RESULT:      -7.7      0.103      1.392
REMARK  Name = 
REMARK  5 active torsions:
REMARK  status: ('A' for Active; 'I' for Inactive)
REMARK    1  A    between atoms: C_1  and  C_2
REMARK    2  A    between atoms: C_2  and  C_3
REMARK    3  A    between atoms: N_5  and  C_6
REMARK    4  A    between atoms: C_13  and  C_15
REMARK    5  A    between atoms: C_18  and  C_19
REMARK                            x       y       z     vdW  Elec       q    Type
REMARK                         _______ _______ _______ _____ _____    ______ ____
ROOT
ATOM      1  C   UNL     1       1.802   2.667  18.223  0.00  0.00    +0.000 C 
ATOM      2  C   UNL     1       2.767   3.716  18.764  0.00  0.00    +0.000 C 
ATOM      3  C   UNL     1       3.370   3.246  20.096  0.00  0.00    +0.000 C 
ATOM      4  C   UNL     1       3.845   4.051  17.740  0.00  0.00    +0.000 C 
ATOM      5  N   UNL     1       4.138   5.471  17.928  0.00  0.00    +0.000 N 
ATOM      6  N   UNL     1       3.103   6.063  18.737  0.00  0.00    +0.000 N 
ATOM      7  C   UNL     1       2.695   7.364  18.414  0.00  0.00    +0.000 C 
ATOM      8  O   UNL     1       2.960   7.950  17.366  0.00  0.00    +0.000 OA
ATOM      9  C   UNL     1       2.135   5.072  18.984  0.00  0.00    +0.000 C 
ATOM     10  O   UNL     1       1.009   5.226  19.443  0.00  0.00    +0.000 OA
ENDROOT
BRANCH   5  11
ATOM     11  C   UNL     1       5.484   5.849  18.127  0.00  0.00    +0.000 A 
ATOM     12  C   UNL     1       6.069   6.833  17.302  0.00  0.00    +0.000 A 
ATOM     13  C   UNL     1       7.392   7.255  17.458  0.00  0.00    +0.000 A 
ATOM     14  C   UNL     1       8.163   6.733  18.485  0.00  0.00    +0.000 A 
ATOM     15  C   UNL     1       7.606   5.796  19.348  0.00  0.00    +0.000 A 
ATOM     16  C   UNL     1       6.284   5.359  19.170  0.00  0.00    +0.000 A 
ENDBRANCH   5  11
BRANCH   7  17
ATOM     17  C   UNL     1       1.879   8.094  19.447  0.00  0.00    +0.000 A 
ATOM     18  C   UNL     1       1.005   9.135  19.103  0.00  0.00    +0.000 A 
ATOM     19  C   UNL     1       0.254   9.787  20.091  0.00  0.00    +0.000 A 
ATOM     20  C   UNL     1       0.352   9.393  21.430  0.00  0.00    +0.000 A 
ATOM     21  C   UNL     1       1.197   8.333  21.775  0.00  0.00    +0.000 A 
ATOM     22  C   UNL     1       1.952   7.684  20.787  0.00  0.00    +0.000 A 
BRANCH  20  23
ATOM     23  C   UNL     1      -0.418  10.064  22.439  0.00  0.00    +0.000 C 
ATOM     24  N   UNL     1      -1.037  10.612  23.257  0.00  0.00    +0.000 NA
ENDBRANCH  20  23
ENDBRANCH   7  17
TORSDOF 3
ENDMDL
MODEL 6
REMARK VINA RESULT:      -7.6      0.434      1.064
REMARK  Name = 
REMARK  5 active torsions:
REMARK  status: ('A' for Active; 'I' for Inactive)
REMARK    1  A    between atoms: C_1  and  C_2
REMARK    2  A    between atoms: C_2  and  C_3
REMARK    3  A    between atoms: N_5  and  C_6
REMARK    4  A    between atoms: C_13  and  C_15
REMARK    5  A    between atoms: C_18  and  C_19
REMARK                            x       y       z     vdW  Elec       q    Type
REMARK                         _______ _______ _______ _____ _____    ______ ____
ROOT
ATOM      1  C   UNL     1       1.448   2.580  18.935  0.00  0.00    +0.000 C 
ATOM      2  C   UNL     1       2.467   3.649  19.315  0.00  0.00    +0.000 C 
ATOM      3  C   UNL     1       3.157   3.279  20.636  0.00  0.00    +0.000 C 
ATOM      4  C   UNL     1       3.473   3.871  18.192  0.00  0.00    +0.000 C 
ATOM      5  N   UNL     1       3.802   5.296  18.237  0.00  0.00    +0.000 N 
ATOM      6  N   UNL     1       2.839   5.977  19.063  0.00  0.00    +0.000 N 
ATOM      7  C   UNL     1       2.430   7.255  18.660  0.00  0.00    +0.000 C 
ATOM      8  O   UNL     1       2.628   7.744  17.549  0.00  0.00    +0.000 OA
ATOM      9  C   UNL     1       1.874   5.032  19.462  0.00  0.00    +0.000 C 
ATOM     10  O   UNL     1       0.787   5.250  19.985  0.00  0.00    +0.000 OA
ENDROOT
BRANCH   5  11
ATOM     11  C   UNL     1       5.166   5.658  18.307  0.00  0.00    +0.000 A 
ATOM     12  C   UNL     1       5.725   6.492  17.315  0.00  0.00    +0.000 A 
ATOM     13  C   UNL     1       7.064   6.893  17.338  0.00  0.00    +0.000 A 
ATOM     14  C   UNL     1       7.879   6.505  18.389  0.00  0.00    +0.000 A 
ATOM     15  C   UNL     1       7.350   5.722  19.410  0.00  0.00    +0.000 A 
ATOM     16  C   UNL     1       6.012   5.304  19.368  0.00  0.00    +0.000 A 
ENDBRANCH   5  11
BRANCH   7  17
ATOM     17  C   UNL     1       1.703   8.087  19.681  0.00  0.00    +0.000 A 
ATOM     18  C   UNL     1       1.844   7.862  21.058  0.00  0.00    +0.000 A 
ATOM     19  C   UNL     1       1.158   8.664  21.982  0.00  0.00    +0.000 A 
ATOM     20  C   UNL     1       0.340   9.710  21.542  0.00  0.00    +0.000 A 
ATOM     21  C   UNL     1       0.222   9.960  20.170  0.00  0.00    +0.000 A 
ATOM     22  C   UNL     1       0.905   9.156  19.246  0.00  0.00    +0.000 A 
BRANCH  20  23
ATOM     23  C   UNL     1      -0.361  10.528  22.491  0.00  0.00    +0.000 C 
ATOM     24  N   UNL     1      -0.935  11.190  23.255  0.00  0.00    +0.000 NA
ENDBRANCH  20  23
ENDBRANCH   7  17
TORSDOF 3
ENDMDL
MODEL 7
REMARK VINA RESULT:      -7.5      2.567      6.788
REMARK  Name = 
REMARK  5 active torsions:
REMARK  status: ('A' for Active; 'I' for Inactive)
REMARK    1  A    between atoms: C_1  and  C_2
REMARK    2  A    between atoms: C_2  and  C_3
REMARK    3  A    between atoms: N_5  and  C_6
REMARK    4  A    between atoms: C_13  and  C_15
REMARK    5  A    between atoms: C_18  and  C_19
REMARK                            x       y       z     vdW  Elec       q    Type
REMARK                         _______ _______ _______ _____ _____    ______ ____
ROOT
ATOM      1  C   UNL     1       2.046   2.098  20.230  0.00  0.00    +0.000 C 
ATOM      2  C   UNL     1       2.010   3.443  19.512  0.00  0.00    +0.000 C 
ATOM      3  C   UNL     1       0.780   3.523  18.596  0.00  0.00    +0.000 C 
ATOM      4  C   UNL     1       2.053   4.597  20.506  0.00  0.00    +0.000 C 
ATOM      5  N   UNL     1       2.810   5.659  19.843  0.00  0.00    +0.000 N 
ATOM      6  N   UNL     1       3.487   5.109  18.697  0.00  0.00    +0.000 N 
ATOM      7  C   UNL     1       4.774   5.586  18.415  0.00  0.00    +0.000 C 
ATOM      8  O   UNL     1       5.470   6.243  19.187  0.00  0.00    +0.000 OA
ATOM      9  C   UNL     1       3.239   3.724  18.677  0.00  0.00    +0.000 C 
ATOM     10  O   UNL     1       3.804   2.873  17.999  0.00  0.00    +0.000 OA
ENDROOT
BRANCH   5  11
ATOM     11  C   UNL     1       2.222   6.940  19.762  0.00  0.00    +0.000 A 
ATOM     12  C   UNL     1       1.616   7.511  20.902  0.00  0.00    +0.000 A 
ATOM     13  C   UNL     1       1.029   8.779  20.885  0.00  0.00    +0.000 A 
ATOM     14  C   UNL     1       1.072   9.540  19.728  0.00  0.00    +0.000 A 
ATOM     15  C   UNL     1       1.703   9.031  18.598  0.00  0.00    +0.000 A 
ATOM     16  C   UNL     1       2.269   7.747  18.615  0.00  0.00    +0.000 A 
ENDBRANCH   5  11
BRANCH   7  17
ATOM     17  C   UNL     1       5.329   5.273  17.052  0.00  0.00    +0.000 A 
ATOM     18  C   UNL     1       4.764   5.800  15.881  0.00  0.00    +0.000 A 
ATOM     19  C   UNL     1       5.314   5.493  14.628  0.00  0.00    +0.000 A 
ATOM     20  C   UNL     1       6.444   4.675  14.532  0.00  0.00    +0.000 A 
ATOM     21  C   UNL     1       7.032   4.174  15.698  0.00  0.00    +0.000 A 
ATOM     22  C   UNL     1       6.479   4.476  16.951  0.00  0.00    +0.000 A 
BRANCH  20  23
ATOM     23  C   UNL     1       7.003   4.363  13.247  0.00  0.00    +0.000 C 
ATOM     24  N   UNL     1       7.462   4.112  12.209  0.00  0.00    +0.000 NA
ENDBRANCH  20  23
ENDBRANCH   7  17
TORSDOF 3
ENDMDL
MODEL 8
REMARK VINA RESULT:      -7.4      1.065      1.096
REMARK  Name = 
REMARK  5 active torsions:
REMARK  status: ('A' for Active; 'I' for Inactive)
REMARK    1  A    between atoms: C_1  and  C_2
REMARK    2  A    between atoms: C_2  and  C_3
REMARK    3  A    between atoms: N_5  and  C_6
REMARK    4  A    between atoms: C_13  and  C_15
REMARK    5  A    between atoms: C_18  and  C_19
REMARK                            x       y       z     vdW  Elec       q    Type
REMARK                         _______ _______ _______ _____ _____    ______ ____
ROOT
ATOM      1  C   UNL     1       1.141   2.184  19.179  0.00  0.00    +0.000 C 
ATOM      2  C   UNL     1       2.266   3.179  19.442  0.00  0.00    +0.000 C 
ATOM      3  C   UNL     1       2.944   2.872  20.784  0.00  0.00    +0.000 C 
ATOM      4  C   UNL     1       3.265   3.194  18.290  0.00  0.00    +0.000 C 
ATOM      5  N   UNL     1       3.731   4.577  18.193  0.00  0.00    +0.000 N 
ATOM      6  N   UNL     1       2.855   5.425  18.960  0.00  0.00    +0.000 N 
ATOM      7  C   UNL     1       2.564   6.693  18.439  0.00  0.00    +0.000 C 
ATOM      8  O   UNL     1       2.785   7.051  17.284  0.00  0.00    +0.000 OA
ATOM      9  C   UNL     1       1.813   4.622  19.460  0.00  0.00    +0.000 C 
ATOM     10  O   UNL     1       0.763   4.994  19.971  0.00  0.00    +0.000 OA
ENDROOT
BRANCH   5  11
ATOM     11  C   UNL     1       5.124   4.809  18.212  0.00  0.00    +0.000 A 
ATOM     12  C   UNL     1       5.740   5.311  19.378  0.00  0.00    +0.000 A 
ATOM     13  C   UNL     1       7.114   5.549  19.460  0.00  0.00    +0.000 A 
ATOM     14  C   UNL     1       7.929   5.246  18.380  0.00  0.00    +0.000 A 
ATOM     15  C   UNL     1       7.365   4.705  17.230  0.00  0.00    +0.000 A 
ATOM     16  C   UNL     1       5.980   4.491  17.147  0.00  0.00    +0.000 A 
ENDBRANCH   5  11
BRANCH   7  17
ATOM     17  C   UNL     1       1.942   7.686  19.383  0.00  0.00    +0.000 A 
ATOM     18  C   UNL     1       1.942   7.491  20.771  0.00  0.00    +0.000 A 
ATOM     19  C   UNL     1       1.361   8.443  21.622  0.00  0.00    +0.000 A 
ATOM     20  C   UNL     1       0.793   9.608  21.097  0.00  0.00    +0.000 A 
ATOM     21  C   UNL     1       0.819   9.823  19.715  0.00  0.00    +0.000 A 
ATOM     22  C   UNL     1       1.396   8.869  18.864  0.00  0.00    +0.000 A 
BRANCH  20  23
ATOM     23  C   UNL     1       0.198  10.579  21.971  0.00  0.00    +0.000 C 
ATOM     24  N   UNL     1      -0.282  11.362  22.684  0.00  0.00    +0.000 NA
ENDBRANCH  20  23
ENDBRANCH   7  17
TORSDOF 3
ENDMDL
MODEL 9
REMARK VINA RESULT:      -6.9      3.400      8.787
REMARK  Name = 
REMARK  5 active torsions:
REMARK  status: ('A' for Active; 'I' for Inactive)
REMARK    1  A    between atoms: C_1  and  C_2
REMARK    2  A    between atoms: C_2  and  C_3
REMARK    3  A    between atoms: N_5  and  C_6
REMARK    4  A    between atoms: C_13  and  C_15
REMARK    5  A    between atoms: C_18  and  C_19
REMARK                            x       y       z     vdW  Elec       q    Type
REMARK                         _______ _______ _______ _____ _____    ______ ____
ROOT
ATOM      1  C   UNL     1       1.978  15.058  18.648  0.00  0.00    +0.000 C 
ATOM      2  C   UNL     1       1.274  14.104  19.607  0.00  0.00    +0.000 C 
ATOM      3  C   UNL     1       1.879  14.223  21.014  0.00  0.00    +0.000 C 
ATOM      4  C   UNL     1      -0.231  14.346  19.615  0.00  0.00    +0.000 C 
ATOM      5  N   UNL     1      -0.838  13.031  19.817  0.00  0.00    +0.000 N 
ATOM      6  N   UNL     1       0.157  12.013  19.599  0.00  0.00    +0.000 N 
ATOM      7  C   UNL     1      -0.252  10.835  18.959  0.00  0.00    +0.000 C 
ATOM      8  O   UNL     1      -1.312  10.690  18.353  0.00  0.00    +0.000 OA
ATOM      9  C   UNL     1       1.340  12.654  19.185  0.00  0.00    +0.000 C 
ATOM     10  O   UNL     1       2.339  12.136  18.700  0.00  0.00    +0.000 OA
ENDROOT
BRANCH   5  11
ATOM     11  C   UNL     1      -1.769  12.886  20.870  0.00  0.00    +0.000 A 
ATOM     12  C   UNL     1      -3.142  13.111  20.632  0.00  0.00    +0.000 A 
ATOM     13  C   UNL     1      -4.110  12.972  21.630  0.00  0.00    +0.000 A 
ATOM     14  C   UNL     1      -3.734  12.556  22.898  0.00  0.00    +0.000 A 
ATOM     15  C   UNL     1      -2.396  12.279  23.157  0.00  0.00    +0.000 A 
ATOM     16  C   UNL     1      -1.427  12.444  22.156  0.00  0.00    +0.000 A 
ENDBRANCH   5  11
BRANCH   7  17
ATOM     17  C   UNL     1       0.685   9.660  19.040  0.00  0.00    +0.000 A 
ATOM     18  C   UNL     1       0.938   8.994  20.247  0.00  0.00    +0.000 A 
ATOM     19  C   UNL     1       1.810   7.897  20.284  0.00  0.00    +0.000 A 
ATOM     20  C   UNL     1       2.424   7.441  19.112  0.00  0.00    +0.000 A 
ATOM     21  C   UNL     1       2.149   8.082  17.898  0.00  0.00    +0.000 A 
ATOM     22  C   UNL     1       1.280   9.182  17.863  0.00  0.00    +0.000 A 
BRANCH  20  23
ATOM     23  C   UNL     1       3.317   6.319  19.153  0.00  0.00    +0.000 C 
ATOM     24  N   UNL     1       4.035   5.405  19.184  0.00  0.00    +0.000 NA
ENDBRANCH  20  23
ENDBRANCH   7  17
TORSDOF 3
ENDMDL
