MODEL 1
REMARK VINA RESULT:      -6.4      0.000      0.000
REMARK  Name = 
REMARK  4 active torsions:
REMARK  status: ('A' for Active; 'I' for Inactive)
REMARK    1  A    between atoms: C_2  and  C_3
REMARK    2  A    between atoms: C_3  and  C_11
REMARK    3  A    between atoms: C_4  and  O_5
REMARK    4  A    between atoms: C_4  and  C_6
REMARK                            x       y       z     vdW  Elec       q    Type
REMARK                         _______ _______ _______ _____ _____    ______ ____
ROOT
ATOM      1  C   UNL     1       4.818   4.767  19.175  0.00  0.00    +0.000 C 
ATOM      2  C   UNL     1       4.395   3.500  19.380  0.00  0.00    +0.000 C 
ENDROOT
BRANCH   1   3
ATOM      3  C   UNL     1       3.945   5.922  18.910  0.00  0.00    +0.000 A 
ATOM      4  C   UNL     1       4.022   6.612  17.701  0.00  0.00    +0.000 A 
ATOM      5  C   UNL     1       3.146   7.670  17.477  0.00  0.00    +0.000 A 
ATOM      6  C   UNL     1       2.223   8.007  18.461  0.00  0.00    +0.000 A 
ATOM      7  C   UNL     1       2.218   7.270  19.633  0.00  0.00    +0.000 A 
ATOM      8  N   UNL     1       3.048   6.230  19.877  0.00  0.00    +0.000 NA
ENDBRANCH   1   3
BRANCH   2   9
ATOM      9  C   UNL     1       3.015   3.126  19.316  0.00  0.00    +0.000 A 
ATOM     10  C   UNL     1       2.261   2.747  18.205  0.00  0.00    +0.000 A 
ATOM     11  C   UNL     1       0.933   2.512  18.633  0.00  0.00    +0.000 A 
ATOM     12  C   UNL     1       0.933   2.726  19.985  0.00  0.00    +0.000 A 
ATOM     13  O   UNL     1       2.169   3.079  20.406  0.00  0.00    +0.000 OA
ENDBRANCH   2   9
BRANCH   1  15
ATOM     14  N   UNL     1       7.532   5.372  19.238  0.00  0.00    +0.000 NA
ATOM     15  C   UNL     1       6.302   5.098  19.209  0.00  0.00    +0.000 C 
ENDBRANCH   1  15
BRANCH   2  16
ATOM     16  O   UNL     1       5.231   2.429  19.660  0.00  0.00    +0.000 OA
ATOM     17  H   UNL     1       6.062   2.735  20.063  0.00  0.00    +0.000 HD
ENDBRANCH   2  16
TORSDOF 4
ENDMDL
MODEL 2
REMARK VINA RESULT:      -6.3      0.686      1.199
REMARK  Name = 
REMARK  4 active torsions:
REMARK  status: ('A' for Active; 'I' for Inactive)
REMARK    1  A    between atoms: C_2  and  C_3
REMARK    2  A    between atoms: C_3  and  C_11
REMARK    3  A    between atoms: C_4  and  O_5
REMARK    4  A    between atoms: C_4  and  C_6
REMARK                            x       y       z     vdW  Elec       q    Type
REMARK                         _______ _______ _______ _____ _____    ______ ____
ROOT
ATOM      1  C   UNL     1       4.800   4.736  19.184  0.00  0.00    +0.000 C 
ATOM      2  C   UNL     1       4.391   3.466  19.400  0.00  0.00    +0.000 C 
ENDROOT
BRANCH   1   3
ATOM      3  C   UNL     1       3.914   5.878  18.907  0.00  0.00    +0.000 A 
ATOM      4  C   UNL     1       2.939   6.263  19.826  0.00  0.00    +0.000 A 
ATOM      5  C   UNL     1       2.153   7.375  19.542  0.00  0.00    +0.000 A 
ATOM      6  C   UNL     1       2.362   8.070  18.356  0.00  0.00    +0.000 A 
ATOM      7  C   UNL     1       3.351   7.617  17.499  0.00  0.00    +0.000 A 
ATOM      8  N   UNL     1       4.139   6.546  17.751  0.00  0.00    +0.000 NA
ENDBRANCH   1   3
BRANCH   2   9
ATOM      9  C   UNL     1       3.015   3.075  19.338  0.00  0.00    +0.000 A 
ATOM     10  C   UNL     1       2.256   2.719  18.224  0.00  0.00    +0.000 A 
ATOM     11  C   UNL     1       0.935   2.454  18.656  0.00  0.00    +0.000 A 
ATOM     12  C   UNL     1       0.946   2.628  20.014  0.00  0.00    +0.000 A 
ATOM     13  O   UNL     1       2.181   2.985  20.434  0.00  0.00    +0.000 OA
ENDBRANCH   2   9
BRANCH   1  15
ATOM     14  N   UNL     1       7.507   5.373  19.245  0.00  0.00    +0.000 NA
ATOM     15  C   UNL     1       6.279   5.084  19.217  0.00  0.00    +0.000 C 
ENDBRANCH   1  15
BRANCH   2  16
ATOM     16  O   UNL     1       5.239   2.408  19.692  0.00  0.00    +0.000 OA
ATOM     17  H   UNL     1       5.779   2.603  20.477  0.00  0.00    +0.000 HD
ENDBRANCH   2  16
TORSDOF 4
ENDMDL
MODEL 3
REMARK VINA RESULT:      -6.2      1.798      3.828
REMARK  Name = 
REMARK  4 active torsions:
REMARK  status: ('A' for Active; 'I' for Inactive)
REMARK    1  A    between atoms: C_2  and  C_3
REMARK    2  A    between atoms: C_3  and  C_11
REMARK    3  A    between atoms: C_4  and  O_5
REMARK    4  A    between atoms: C_4  and  C_6
REMARK                            x       y       z     vdW  Elec       q    Type
REMARK                         _______ _______ _______ _____ _____    ______ ____
ROOT
ATOM      1  C   UNL     1       3.436   4.206  19.417  0.00  0.00    +0.000 C 
ATOM      2  C   UNL     1       4.682   3.696  19.300  0.00  0.00    +0.000 C 
ENDROOT
BRANCH   1   3
ATOM      3  C   UNL     1       3.060   5.602  19.141  0.00  0.00    +0.000 A 
ATOM      4  C   UNL     1       3.318   6.176  17.897  0.00  0.00    +0.000 A 
ATOM      5  C   UNL     1       2.905   7.486  17.665  0.00  0.00    +0.000 A 
ATOM      6  C   UNL     1       2.251   8.180  18.676  0.00  0.00    +0.000 A 
ATOM      7  C   UNL     1       2.038   7.533  19.882  0.00  0.00    +0.000 A 
ATOM      8  N   UNL     1       2.416   6.259  20.135  0.00  0.00    +0.000 NA
ENDBRANCH   1   3
BRANCH   2   9
ATOM      9  C   UNL     1       5.812   4.493  18.927  0.00  0.00    +0.000 A 
ATOM     10  C   UNL     1       6.402   4.640  17.671  0.00  0.00    +0.000 A 
ATOM     11  C   UNL     1       7.518   5.499  17.807  0.00  0.00    +0.000 A 
ATOM     12  C   UNL     1       7.549   5.863  19.126  0.00  0.00    +0.000 A 
ATOM     13  O   UNL     1       6.532   5.282  19.800  0.00  0.00    +0.000 OA
ENDBRANCH   2   9
BRANCH   1  15
ATOM     14  N   UNL     1       1.324   2.590  20.231  0.00  0.00    +0.000 NA
ATOM     15  C   UNL     1       2.282   3.323  19.862  0.00  0.00    +0.000 C 
ENDBRANCH   1  15
BRANCH   2  16
ATOM     16  O   UNL     1       5.012   2.369  19.534  0.00  0.00    +0.000 OA
ATOM     17  H   UNL     1       5.513   2.001  18.786  0.00  0.00    +0.000 HD
ENDBRANCH   2  16
TORSDOF 4
ENDMDL
MODEL 4
REMARK VINA RESULT:      -6.2      1.073      1.639
REMARK  Name = 
REMARK  4 active torsions:
REMARK  status: ('A' for Active; 'I' for Inactive)
REMARK    1  A    between atoms: C_2  and  C_3
REMARK    2  A    between atoms: C_3  and  C_11
REMARK    3  A    between atoms: C_4  and  O_5
REMARK    4  A    between atoms: C_4  and  C_6
REMARK                            x       y       z     vdW  Elec       q    Type
REMARK                         _______ _______ _______ _____ _____    ______ ____
ROOT
ATOM      1  C   UNL     1       4.862   4.486  18.984  0.00  0.00    +0.000 C 
ATOM      2  C   UNL     1       4.410   3.338  19.536  0.00  0.00    +0.000 C 
ENDROOT
BRANCH   1   3
ATOM      3  C   UNL     1       4.043   5.678  18.715  0.00  0.00    +0.000 A 
ATOM      4  C   UNL     1       3.103   6.123  19.644  0.00  0.00    +0.000 A 
ATOM      5  C   UNL     1       2.382   7.280  19.366  0.00  0.00    +0.000 A 
ATOM      6  C   UNL     1       2.618   7.958  18.175  0.00  0.00    +0.000 A 
ATOM      7  C   UNL     1       3.568   7.445  17.308  0.00  0.00    +0.000 A 
ATOM      8  N   UNL     1       4.293   6.329  17.554  0.00  0.00    +0.000 NA
ENDBRANCH   1   3
BRANCH   2   9
ATOM      9  C   UNL     1       3.037   3.137  19.887  0.00  0.00    +0.000 A 
ATOM     10  C   UNL     1       2.456   3.083  21.154  0.00  0.00    +0.000 A 
ATOM     11  C   UNL     1       1.074   2.822  20.995  0.00  0.00    +0.000 A 
ATOM     12  C   UNL     1       0.861   2.756  19.645  0.00  0.00    +0.000 A 
ATOM     13  O   UNL     1       2.018   2.955  18.974  0.00  0.00    +0.000 OA
ENDBRANCH   2   9
BRANCH   1  15
ATOM     14  N   UNL     1       7.535   4.744  18.262  0.00  0.00    +0.000 NA
ATOM     15  C   UNL     1       6.323   4.627  18.590  0.00  0.00    +0.000 C 
ENDBRANCH   1  15
BRANCH   2  16
ATOM     16  O   UNL     1       5.204   2.235  19.813  0.00  0.00    +0.000 OA
ATOM     17  H   UNL     1       6.147   2.462  19.744  0.00  0.00    +0.000 HD
ENDBRANCH   2  16
TORSDOF 4
ENDMDL
MODEL 5
REMARK VINA RESULT:      -6.0      3.546      5.404
REMARK  Name = 
REMARK  4 active torsions:
REMARK  status: ('A' for Active; 'I' for Inactive)
REMARK    1  A    between atoms: C_2  and  C_3
REMARK    2  A    between atoms: C_3  and  C_11
REMARK    3  A    between atoms: C_4  and  O_5
REMARK    4  A    between atoms: C_4  and  C_6
REMARK                            x       y       z     vdW  Elec       q    Type
REMARK                         _______ _______ _______ _____ _____    ______ ____
ROOT
ATOM      1  C   UNL     1       5.691   4.627  15.555  0.00  0.00    +0.000 C 
ATOM      2  C   UNL     1       6.899   5.195  15.767  0.00  0.00    +0.000 C 
ENDROOT
BRANCH   1   3
ATOM      3  C   UNL     1       4.649   4.441  16.578  0.00  0.00    +0.000 A 
ATOM      4  C   UNL     1       3.955   5.533  17.096  0.00  0.00    +0.000 A 
ATOM      5  C   UNL     1       2.948   5.305  18.029  0.00  0.00    +0.000 A 
ATOM      6  C   UNL     1       2.663   4.000  18.416  0.00  0.00    +0.000 A 
ATOM      7  C   UNL     1       3.404   2.975  17.852  0.00  0.00    +0.000 A 
ATOM      8  N   UNL     1       4.381   3.162  16.935  0.00  0.00    +0.000 NA
ENDBRANCH   1   3
BRANCH   2   9
ATOM      9  C   UNL     1       7.325   5.649  17.056  0.00  0.00    +0.000 A 
ATOM     10  C   UNL     1       7.547   6.955  17.495  0.00  0.00    +0.000 A 
ATOM     11  C   UNL     1       7.999   6.899  18.834  0.00  0.00    +0.000 A 
ATOM     12  C   UNL     1       8.008   5.571  19.169  0.00  0.00    +0.000 A 
ATOM     13  O   UNL     1       7.596   4.819  18.124  0.00  0.00    +0.000 OA
ENDBRANCH   2   9
BRANCH   1  15
ATOM     14  N   UNL     1       4.994   3.702  13.026  0.00  0.00    +0.000 NA
ATOM     15  C   UNL     1       5.310   4.122  14.173  0.00  0.00    +0.000 C 
ENDBRANCH   1  15
BRANCH   2  16
ATOM     16  O   UNL     1       7.857   5.393  14.783  0.00  0.00    +0.000 OA
ATOM     17  H   UNL     1       7.484   5.227  13.900  0.00  0.00    +0.000 HD
ENDBRANCH   2  16
TORSDOF 4
ENDMDL
MODEL 6
REMARK VINA RESULT:      -6.0      2.503      4.504
REMARK  Name = 
REMARK  4 active torsions:
REMARK  status: ('A' for Active; 'I' for Inactive)
REMARK    1  A    between atoms: C_2  and  C_3
REMARK    2  A    between atoms: C_3  and  C_11
REMARK    3  A    between atoms: C_4  and  O_5
REMARK    4  A    between atoms: C_4  and  C_6
REMARK                            x       y       z     vdW  Elec       q    Type
REMARK                         _______ _______ _______ _____ _____    ______ ____
ROOT
ATOM      1  C   UNL     1       4.070   4.789  17.560  0.00  0.00    +0.000 C 
ATOM      2  C   UNL     1       5.385   4.669  17.271  0.00  0.00    +0.000 C 
ENDROOT
BRANCH   1   3
ATOM      3  C   UNL     1       3.430   5.992  18.114  0.00  0.00    +0.000 A 
ATOM      4  C   UNL     1       3.295   7.147  17.344  0.00  0.00    +0.000 A 
ATOM      5  C   UNL     1       2.643   8.246  17.895  0.00  0.00    +0.000 A 
ATOM      6  C   UNL     1       2.146   8.162  19.190  0.00  0.00    +0.000 A 
ATOM      7  C   UNL     1       2.327   6.978  19.884  0.00  0.00    +0.000 A 
ATOM      8  N   UNL     1       2.945   5.888  19.374  0.00  0.00    +0.000 NA
ENDBRANCH   1   3
BRANCH   2   9
ATOM      9  C   UNL     1       6.331   5.714  17.521  0.00  0.00    +0.000 A 
ATOM     10  C   UNL     1       7.184   5.880  18.612  0.00  0.00    +0.000 A 
ATOM     11  C   UNL     1       7.901   7.086  18.433  0.00  0.00    +0.000 A 
ATOM     12  C   UNL     1       7.483   7.592  17.231  0.00  0.00    +0.000 A 
ATOM     13  O   UNL     1       6.559   6.779  16.673  0.00  0.00    +0.000 OA
ENDBRANCH   2   9
BRANCH   1  15
ATOM     14  N   UNL     1       2.331   2.666  17.112  0.00  0.00    +0.000 NA
ATOM     15  C   UNL     1       3.120   3.629  17.315  0.00  0.00    +0.000 C 
ENDBRANCH   1  15
BRANCH   2  16
ATOM     16  O   UNL     1       5.967   3.537  16.718  0.00  0.00    +0.000 OA
ATOM     17  H   UNL     1       5.528   3.294  15.885  0.00  0.00    +0.000 HD
ENDBRANCH   2  16
TORSDOF 4
ENDMDL
MODEL 7
REMARK VINA RESULT:      -5.9      3.492      5.376
REMARK  Name = 
REMARK  4 active torsions:
REMARK  status: ('A' for Active; 'I' for Inactive)
REMARK    1  A    between atoms: C_2  and  C_3
REMARK    2  A    between atoms: C_3  and  C_11
REMARK    3  A    between atoms: C_4  and  O_5
REMARK    4  A    between atoms: C_4  and  C_6
REMARK                            x       y       z     vdW  Elec       q    Type
REMARK                         _______ _______ _______ _____ _____    ______ ____
ROOT
ATOM      1  C   UNL     1       5.664   4.649  15.518  0.00  0.00    +0.000 C 
ATOM      2  C   UNL     1       6.887   5.179  15.741  0.00  0.00    +0.000 C 
ENDROOT
BRANCH   1   3
ATOM      3  C   UNL     1       4.601   4.513  16.527  0.00  0.00    +0.000 A 
ATOM      4  C   UNL     1       4.210   3.257  16.986  0.00  0.00    +0.000 A 
ATOM      5  C   UNL     1       3.231   3.179  17.973  0.00  0.00    +0.000 A 
ATOM      6  C   UNL     1       2.676   4.351  18.472  0.00  0.00    +0.000 A 
ATOM      7  C   UNL     1       3.122   5.557  17.957  0.00  0.00    +0.000 A 
ATOM      8  N   UNL     1       4.078   5.667  17.007  0.00  0.00    +0.000 NA
ENDBRANCH   1   3
BRANCH   2   9
ATOM      9  C   UNL     1       7.309   5.638  17.030  0.00  0.00    +0.000 A 
ATOM     10  C   UNL     1       7.538   6.945  17.461  0.00  0.00    +0.000 A 
ATOM     11  C   UNL     1       7.982   6.894  18.804  0.00  0.00    +0.000 A 
ATOM     12  C   UNL     1       7.978   5.569  19.147  0.00  0.00    +0.000 A 
ATOM     13  O   UNL     1       7.567   4.813  18.105  0.00  0.00    +0.000 OA
ENDBRANCH   2   9
BRANCH   1  15
ATOM     14  N   UNL     1       4.975   3.709  12.993  0.00  0.00    +0.000 NA
ATOM     15  C   UNL     1       5.287   4.135  14.138  0.00  0.00    +0.000 C 
ENDBRANCH   1  15
BRANCH   2  16
ATOM     16  O   UNL     1       7.866   5.329  14.769  0.00  0.00    +0.000 OA
ATOM     17  H   UNL     1       8.494   4.586  14.794  0.00  0.00    +0.000 HD
ENDBRANCH   2  16
TORSDOF 4
ENDMDL
MODEL 8
REMARK VINA RESULT:      -5.9      1.992      4.050
REMARK  Name = 
REMARK  4 active torsions:
REMARK  status: ('A' for Active; 'I' for Inactive)
REMARK    1  A    between atoms: C_2  and  C_3
REMARK    2  A    between atoms: C_3  and  C_11
REMARK    3  A    between atoms: C_4  and  O_5
REMARK    4  A    between atoms: C_4  and  C_6
REMARK                            x       y       z     vdW  Elec       q    Type
REMARK                         _______ _______ _______ _____ _____    ______ ____
ROOT
ATOM      1  C   UNL     1       2.701   3.849  18.554  0.00  0.00    +0.000 C 
ATOM      2  C   UNL     1       3.916   3.371  18.205  0.00  0.00    +0.000 C 
ENDROOT
BRANCH   1   3
ATOM      3  C   UNL     1       2.421   5.233  18.968  0.00  0.00    +0.000 A 
ATOM      4  C   UNL     1       2.025   5.521  20.273  0.00  0.00    +0.000 A 
ATOM      5  C   UNL     1       1.813   6.849  20.631  0.00  0.00    +0.000 A 
ATOM      6  C   UNL     1       2.002   7.847  19.682  0.00  0.00    +0.000 A 
ATOM      7  C   UNL     1       2.394   7.471  18.408  0.00  0.00    +0.000 A 
ATOM      8  N   UNL     1       2.619   6.191  18.031  0.00  0.00    +0.000 NA
ENDBRANCH   1   3
BRANCH   2   9
ATOM      9  C   UNL     1       5.103   4.171  18.244  0.00  0.00    +0.000 A 
ATOM     10  C   UNL     1       5.850   4.682  17.182  0.00  0.00    +0.000 A 
ATOM     11  C   UNL     1       6.961   5.375  17.717  0.00  0.00    +0.000 A 
ATOM     12  C   UNL     1       6.835   5.287  19.077  0.00  0.00    +0.000 A 
ATOM     13  O   UNL     1       5.727   4.584  19.404  0.00  0.00    +0.000 OA
ENDBRANCH   2   9
BRANCH   1  15
ATOM     14  N   UNL     1       0.472   2.187  18.524  0.00  0.00    +0.000 NA
ATOM     15  C   UNL     1       1.483   2.941  18.538  0.00  0.00    +0.000 C 
ENDBRANCH   1  15
BRANCH   2  16
ATOM     16  O   UNL     1       4.157   2.070  17.787  0.00  0.00    +0.000 OA
ATOM     17  H   UNL     1       4.919   2.037  17.182  0.00  0.00    +0.000 HD
ENDBRANCH   2  16
TORSDOF 4
ENDMDL
MODEL 9
REMARK VINA RESULT:      -5.9      1.756      3.988
REMARK  Name = 
REMARK  4 active torsions:
REMARK  status: ('A' for Active; 'I' for Inactive)
REMARK    1  A    between atoms: C_2  and  C_3
REMARK    2  A    between atoms: C_3  and  C_11
REMARK    3  A    between atoms: C_4  and  O_5
REMARK    4  A    between atoms: C_4  and  C_6
REMARK                            x       y       z     vdW  Elec       q    Type
REMARK                         _______ _______ _______ _____ _____    ______ ____
ROOT
ATOM      1  C   UNL     1       3.414   4.133  19.418  0.00  0.00    +0.000 C 
ATOM      2  C   UNL     1       4.668   3.644  19.304  0.00  0.00    +0.000 C 
ENDROOT
BRANCH   1   3
ATOM      3  C   UNL     1       3.005   5.509  19.090  0.00  0.00    +0.000 A 
ATOM      4  C   UNL     1       2.407   6.323  20.051  0.00  0.00    +0.000 A 
ATOM      5  C   UNL     1       2.078   7.631  19.708  0.00  0.00    +0.000 A 
ATOM      6  C   UNL     1       2.354   8.087  18.424  0.00  0.00    +0.000 A 
ATOM      7  C   UNL     1       2.948   7.209  17.532  0.00  0.00    +0.000 A 
ATOM      8  N   UNL     1       3.290   5.937  17.837  0.00  0.00    +0.000 NA
ENDBRANCH   1   3
BRANCH   2   9
ATOM      9  C   UNL     1       5.776   4.447  18.881  0.00  0.00    +0.000 A 
ATOM     10  C   UNL     1       6.371   4.523  17.621  0.00  0.00    +0.000 A 
ATOM     11  C   UNL     1       7.459   5.424  17.702  0.00  0.00    +0.000 A 
ATOM     12  C   UNL     1       7.469   5.882  18.992  0.00  0.00    +0.000 A 
ATOM     13  O   UNL     1       6.464   5.319  19.700  0.00  0.00    +0.000 OA
ENDBRANCH   2   9
BRANCH   1  15
ATOM     14  N   UNL     1       1.348   2.510  20.330  0.00  0.00    +0.000 NA
ATOM     15  C   UNL     1       2.285   3.246  19.917  0.00  0.00    +0.000 C 
ENDBRANCH   1  15
BRANCH   2  16
ATOM     16  O   UNL     1       5.029   2.335  19.587  0.00  0.00    +0.000 OA
ATOM     17  H   UNL     1       4.922   1.769  18.803  0.00  0.00    +0.000 HD
ENDBRANCH   2  16
TORSDOF 4
ENDMDL
