MODEL 1
REMARK VINA RESULT:      -8.9      0.000      0.000
REMARK  Name = 
REMARK  4 active torsions:
REMARK  status: ('A' for Active; 'I' for Inactive)
REMARK    1  A    between atoms: C_3  and  C_4
REMARK    2  A    between atoms: C_11  and  C_12
REMARK    3  A    between atoms: C_15  and  C_16
REMARK    4  A    between atoms: C_19  and  C_20
REMARK                            x       y       z     vdW  Elec       q    Type
REMARK                         _______ _______ _______ _____ _____    ______ ____
ROOT
ATOM      1  C   UNL     1       3.031   5.575  18.851  0.00  0.00    +0.000 A 
ATOM      2  C   UNL     1       2.483   4.798  19.859  0.00  0.00    +0.000 A 
ATOM      3  C   UNL     1       1.744   5.677  20.684  0.00  0.00    +0.000 A 
ATOM      4  C   UNL     1       1.893   6.940  20.153  0.00  0.00    +0.000 A 
ATOM      5  O   UNL     1       2.674   6.869  19.041  0.00  0.00    +0.000 OA
ENDROOT
BRANCH   1  11
ATOM      6  C   UNL     1       3.924   3.966  17.179  0.00  0.00    +0.000 A 
ATOM      7  C   UNL     1       4.814   3.669  16.147  0.00  0.00    +0.000 A 
ATOM      8  C   UNL     1       5.593   4.673  15.556  0.00  0.00    +0.000 A 
ATOM      9  C   UNL     1       5.385   5.996  15.960  0.00  0.00    +0.000 A 
ATOM     10  C   UNL     1       4.501   6.297  16.996  0.00  0.00    +0.000 A 
ATOM     11  C   UNL     1       3.799   5.279  17.652  0.00  0.00    +0.000 A 
BRANCH   8  12
ATOM     12  C   UNL     1       6.579   4.353  14.515  0.00  0.00    +0.000 C 
ATOM     13  N   UNL     1       7.641   5.261  14.206  0.00  0.00    +0.000 NA
ATOM     14  C   UNL     1       7.517   5.355  12.743  0.00  0.00    +0.000 C 
ATOM     15  C   UNL     1       7.074   3.960  12.317  0.00  0.00    +0.000 C 
ATOM     16  N   UNL     1       6.252   3.489  13.428  0.00  0.00    +0.000 NA
ATOM     17  H   UNL     1       8.516   4.766  14.382  0.00  0.00    +0.000 HD
ATOM     18  H   UNL     1       6.457   2.521  13.659  0.00  0.00    +0.000 HD
ENDBRANCH   8  12
ENDBRANCH   1  11
BRANCH   4  19
ATOM     19  C   UNL     1       1.447   8.271  20.538  0.00  0.00    +0.000 A 
ATOM     20  C   UNL     1       1.198   9.246  19.566  0.00  0.00    +0.000 A 
ATOM     21  C   UNL     1       0.632  10.475  19.918  0.00  0.00    +0.000 A 
ATOM     22  C   UNL     1       0.295  10.757  21.249  0.00  0.00    +0.000 A 
ATOM     23  C   UNL     1       0.627   9.814  22.230  0.00  0.00    +0.000 A 
ATOM     24  C   UNL     1       1.193   8.586  21.881  0.00  0.00    +0.000 A 
BRANCH  22  25
ATOM     25  C   UNL     1      -0.484  11.969  21.601  0.00  0.00    +0.000 C 
ATOM     26  N   UNL     1      -0.736  12.249  22.989  0.00  0.00    +0.000 NA
ATOM     27  C   UNL     1      -2.183  12.008  23.075  0.00  0.00    +0.000 C 
ATOM     28  C   UNL     1      -2.722  12.474  21.728  0.00  0.00    +0.000 C 
ATOM     29  N   UNL     1      -1.607  12.328  20.783  0.00  0.00    +0.000 NA
ATOM     30  H   UNL     1      -0.613  13.253  23.121  0.00  0.00    +0.000 HD
ATOM     31  H   UNL     1      -1.429  13.239  20.361  0.00  0.00    +0.000 HD
ENDBRANCH  22  25
ENDBRANCH   4  19
TORSDOF 4
ENDMDL
MODEL 2
REMARK VINA RESULT:      -8.6      0.720      1.148
REMARK  Name = 
REMARK  4 active torsions:
REMARK  status: ('A' for Active; 'I' for Inactive)
REMARK    1  A    between atoms: C_3  and  C_4
REMARK    2  A    between atoms: C_11  and  C_12
REMARK    3  A    between atoms: C_15  and  C_16
REMARK    4  A    between atoms: C_19  and  C_20
REMARK                            x       y       z     vdW  Elec       q    Type
REMARK                         _______ _______ _______ _____ _____    ______ ____
ROOT
ATOM      1  C   UNL     1       3.122   5.561  18.804  0.00  0.00    +0.000 A 
ATOM      2  C   UNL     1       2.609   4.798  19.840  0.00  0.00    +0.000 A 
ATOM      3  C   UNL     1       1.859   5.679  20.653  0.00  0.00    +0.000 A 
ATOM      4  C   UNL     1       1.966   6.930  20.086  0.00  0.00    +0.000 A 
ATOM      5  O   UNL     1       2.732   6.850  18.964  0.00  0.00    +0.000 OA
ENDROOT
BRANCH   1  11
ATOM      6  C   UNL     1       4.086   3.929  17.196  0.00  0.00    +0.000 A 
ATOM      7  C   UNL     1       4.969   3.638  16.157  0.00  0.00    +0.000 A 
ATOM      8  C   UNL     1       5.660   4.660  15.491  0.00  0.00    +0.000 A 
ATOM      9  C   UNL     1       5.369   5.986  15.830  0.00  0.00    +0.000 A 
ATOM     10  C   UNL     1       4.491   6.281  16.872  0.00  0.00    +0.000 A 
ATOM     11  C   UNL     1       3.879   5.253  17.601  0.00  0.00    +0.000 A 
BRANCH   8  12
ATOM     12  C   UNL     1       6.642   4.352  14.442  0.00  0.00    +0.000 C 
ATOM     13  N   UNL     1       7.707   5.261  14.144  0.00  0.00    +0.000 NA
ATOM     14  C   UNL     1       7.578   5.379  12.684  0.00  0.00    +0.000 C 
ATOM     15  C   UNL     1       7.128   3.993  12.236  0.00  0.00    +0.000 C 
ATOM     16  N   UNL     1       6.307   3.508  13.341  0.00  0.00    +0.000 NA
ATOM     17  H   UNL     1       8.580   4.758  14.309  0.00  0.00    +0.000 HD
ATOM     18  H   UNL     1       6.508   2.536  13.556  0.00  0.00    +0.000 HD
ENDBRANCH   8  12
ENDBRANCH   1  11
BRANCH   4  19
ATOM     19  C   UNL     1       1.490   8.258  20.443  0.00  0.00    +0.000 A 
ATOM     20  C   UNL     1       1.274   9.225  19.455  0.00  0.00    +0.000 A 
ATOM     21  C   UNL     1       0.680  10.450  19.773  0.00  0.00    +0.000 A 
ATOM     22  C   UNL     1       0.282  10.736  21.087  0.00  0.00    +0.000 A 
ATOM     23  C   UNL     1       0.580   9.803  22.087  0.00  0.00    +0.000 A 
ATOM     24  C   UNL     1       1.174   8.579  21.771  0.00  0.00    +0.000 A 
BRANCH  22  25
ATOM     25  C   UNL     1      -0.524  11.943  21.397  0.00  0.00    +0.000 C 
ATOM     26  N   UNL     1      -1.571  12.324  20.488  0.00  0.00    +0.000 NA
ATOM     27  C   UNL     1      -1.019  13.559  19.913  0.00  0.00    +0.000 C 
ATOM     28  C   UNL     1      -0.252  14.200  21.064  0.00  0.00    +0.000 C 
ATOM     29  N   UNL     1       0.138  13.091  21.945  0.00  0.00    +0.000 NA
ATOM     30  H   UNL     1      -2.369  12.614  21.054  0.00  0.00    +0.000 HD
ATOM     31  H   UNL     1      -0.241  13.277  22.874  0.00  0.00    +0.000 HD
ENDBRANCH  22  25
ENDBRANCH   4  19
TORSDOF 4
ENDMDL
MODEL 3
REMARK VINA RESULT:      -8.5      1.039      1.728
REMARK  Name = 
REMARK  4 active torsions:
REMARK  status: ('A' for Active; 'I' for Inactive)
REMARK    1  A    between atoms: C_3  and  C_4
REMARK    2  A    between atoms: C_11  and  C_12
REMARK    3  A    between atoms: C_15  and  C_16
REMARK    4  A    between atoms: C_19  and  C_20
REMARK                            x       y       z     vdW  Elec       q    Type
REMARK                         _______ _______ _______ _____ _____    ______ ____
ROOT
ATOM      1  C   UNL     1       3.166   5.700  18.821  0.00  0.00    +0.000 A 
ATOM      2  C   UNL     1       2.754   4.981  19.932  0.00  0.00    +0.000 A 
ATOM      3  C   UNL     1       1.957   5.858  20.702  0.00  0.00    +0.000 A 
ATOM      4  C   UNL     1       1.936   7.064  20.037  0.00  0.00    +0.000 A 
ATOM      5  O   UNL     1       2.671   6.959  18.897  0.00  0.00    +0.000 OA
ENDROOT
BRANCH   1  11
ATOM      6  C   UNL     1       4.069   4.030  17.216  0.00  0.00    +0.000 A 
ATOM      7  C   UNL     1       4.939   3.704  16.177  0.00  0.00    +0.000 A 
ATOM      8  C   UNL     1       5.664   4.700  15.506  0.00  0.00    +0.000 A 
ATOM      9  C   UNL     1       5.421   6.035  15.841  0.00  0.00    +0.000 A 
ATOM     10  C   UNL     1       4.556   6.365  16.884  0.00  0.00    +0.000 A 
ATOM     11  C   UNL     1       3.909   5.362  17.618  0.00  0.00    +0.000 A 
BRANCH   8  12
ATOM     12  C   UNL     1       6.632   4.354  14.456  0.00  0.00    +0.000 C 
ATOM     13  N   UNL     1       7.725   5.226  14.149  0.00  0.00    +0.000 NA
ATOM     14  C   UNL     1       7.595   5.339  12.688  0.00  0.00    +0.000 C 
ATOM     15  C   UNL     1       7.099   3.966  12.251  0.00  0.00    +0.000 C 
ATOM     16  N   UNL     1       6.267   3.514  13.362  0.00  0.00    +0.000 NA
ATOM     17  H   UNL     1       8.582   4.697  14.314  0.00  0.00    +0.000 HD
ATOM     18  H   UNL     1       6.438   2.537  13.582  0.00  0.00    +0.000 HD
ENDBRANCH   8  12
ENDBRANCH   1  11
BRANCH   4  19
ATOM     19  C   UNL     1       1.357   8.372  20.308  0.00  0.00    +0.000 A 
ATOM     20  C   UNL     1       0.954   8.716  21.602  0.00  0.00    +0.000 A 
ATOM     21  C   UNL     1       0.534  10.017  21.897  0.00  0.00    +0.000 A 
ATOM     22  C   UNL     1       0.513  11.008  20.905  0.00  0.00    +0.000 A 
ATOM     23  C   UNL     1       0.833  10.637  19.593  0.00  0.00    +0.000 A 
ATOM     24  C   UNL     1       1.251   9.338  19.297  0.00  0.00    +0.000 A 
BRANCH  22  25
ATOM     25  C   UNL     1       0.262  12.429  21.248  0.00  0.00    +0.000 C 
ATOM     26  N   UNL     1      -0.862  13.095  20.649  0.00  0.00    +0.000 NA
ATOM     27  C   UNL     1      -0.191  14.040  19.746  0.00  0.00    +0.000 C 
ATOM     28  C   UNL     1       1.074  14.442  20.495  0.00  0.00    +0.000 C 
ATOM     29  N   UNL     1       1.385  13.313  21.382  0.00  0.00    +0.000 NA
ATOM     30  H   UNL     1      -1.296  13.665  21.376  0.00  0.00    +0.000 HD
ATOM     31  H   UNL     1       1.415  13.662  22.339  0.00  0.00    +0.000 HD
ENDBRANCH  22  25
ENDBRANCH   4  19
TORSDOF 4
ENDMDL
MODEL 4
REMARK VINA RESULT:      -8.5      0.914      1.126
REMARK  Name = 
REMARK  4 active torsions:
REMARK  status: ('A' for Active; 'I' for Inactive)
REMARK    1  A    between atoms: C_3  and  C_4
REMARK    2  A    between atoms: C_11  and  C_12
REMARK    3  A    between atoms: C_15  and  C_16
REMARK    4  A    between atoms: C_19  and  C_20
REMARK                            x       y       z     vdW  Elec       q    Type
REMARK                         _______ _______ _______ _____ _____    ______ ____
ROOT
ATOM      1  C   UNL     1       3.140   6.259  18.691  0.00  0.00    +0.000 A 
ATOM      2  C   UNL     1       2.794   5.673  19.898  0.00  0.00    +0.000 A 
ATOM      3  C   UNL     1       1.950   6.592  20.561  0.00  0.00    +0.000 A 
ATOM      4  C   UNL     1       1.838   7.694  19.740  0.00  0.00    +0.000 A 
ATOM      5  O   UNL     1       2.562   7.482  18.607  0.00  0.00    +0.000 OA
ENDROOT
BRANCH   1  11
ATOM      6  C   UNL     1       3.974   4.449  17.204  0.00  0.00    +0.000 A 
ATOM      7  C   UNL     1       4.845   4.014  16.206  0.00  0.00    +0.000 A 
ATOM      8  C   UNL     1       5.644   4.925  15.500  0.00  0.00    +0.000 A 
ATOM      9  C   UNL     1       5.474   6.290  15.754  0.00  0.00    +0.000 A 
ATOM     10  C   UNL     1       4.609   6.729  16.755  0.00  0.00    +0.000 A 
ATOM     11  C   UNL     1       3.887   5.809  17.527  0.00  0.00    +0.000 A 
BRANCH   8  12
ATOM     12  C   UNL     1       6.611   4.464  14.495  0.00  0.00    +0.000 C 
ATOM     13  N   UNL     1       7.712   5.290  14.102  0.00  0.00    +0.000 NA
ATOM     14  C   UNL     1       7.587   5.251  12.637  0.00  0.00    +0.000 C 
ATOM     15  C   UNL     1       7.081   3.843  12.344  0.00  0.00    +0.000 C 
ATOM     16  N   UNL     1       6.242   3.517  13.493  0.00  0.00    +0.000 NA
ATOM     17  H   UNL     1       8.564   4.773  14.325  0.00  0.00    +0.000 HD
ATOM     18  H   UNL     1       6.403   2.567  13.815  0.00  0.00    +0.000 HD
ENDBRANCH   8  12
ENDBRANCH   1  11
BRANCH   4  19
ATOM     19  C   UNL     1       1.176   8.985  19.845  0.00  0.00    +0.000 A 
ATOM     20  C   UNL     1       1.062   9.820  18.729  0.00  0.00    +0.000 A 
ATOM     21  C   UNL     1       0.303  10.992  18.787  0.00  0.00    +0.000 A 
ATOM     22  C   UNL     1      -0.367  11.356  19.964  0.00  0.00    +0.000 A 
ATOM     23  C   UNL     1      -0.179  10.566  21.105  0.00  0.00    +0.000 A 
ATOM     24  C   UNL     1       0.580   9.395  21.047  0.00  0.00    +0.000 A 
BRANCH  22  25
ATOM     25  C   UNL     1      -1.330  12.484  19.978  0.00  0.00    +0.000 C 
ATOM     26  N   UNL     1      -1.611  13.136  21.229  0.00  0.00    +0.000 NA
ATOM     27  C   UNL     1      -2.998  12.715  21.469  0.00  0.00    +0.000 C 
ATOM     28  C   UNL     1      -3.619  12.656  20.078  0.00  0.00    +0.000 C 
ATOM     29  N   UNL     1      -2.504  12.398  19.158  0.00  0.00    +0.000 NA
ATOM     30  H   UNL     1      -1.653  14.138  21.043  0.00  0.00    +0.000 HD
ATOM     31  H   UNL     1      -2.481  13.151  18.470  0.00  0.00    +0.000 HD
ENDBRANCH  22  25
ENDBRANCH   4  19
TORSDOF 4
ENDMDL
MODEL 5
REMARK VINA RESULT:      -8.4      0.560      1.077
REMARK  Name = 
REMARK  4 active torsions:
REMARK  status: ('A' for Active; 'I' for Inactive)
REMARK    1  A    between atoms: C_3  and  C_4
REMARK    2  A    between atoms: C_11  and  C_12
REMARK    3  A    between atoms: C_15  and  C_16
REMARK    4  A    between atoms: C_19  and  C_20
REMARK                            x       y       z     vdW  Elec       q    Type
REMARK                         _______ _______ _______ _____ _____    ______ ____
ROOT
ATOM      1  C   UNL     1       3.120   5.754  18.935  0.00  0.00    +0.000 A 
ATOM      2  C   UNL     1       2.727   5.046  20.059  0.00  0.00    +0.000 A 
ATOM      3  C   UNL     1       1.910   5.917  20.814  0.00  0.00    +0.000 A 
ATOM      4  C   UNL     1       1.860   7.111  20.128  0.00  0.00    +0.000 A 
ATOM      5  O   UNL     1       2.595   7.003  18.988  0.00  0.00    +0.000 OA
ENDROOT
BRANCH   1  11
ATOM      6  C   UNL     1       4.021   4.079  17.334  0.00  0.00    +0.000 A 
ATOM      7  C   UNL     1       4.897   3.749  16.300  0.00  0.00    +0.000 A 
ATOM      8  C   UNL     1       5.636   4.739  15.637  0.00  0.00    +0.000 A 
ATOM      9  C   UNL     1       5.401   6.076  15.973  0.00  0.00    +0.000 A 
ATOM     10  C   UNL     1       4.531   6.411  17.010  0.00  0.00    +0.000 A 
ATOM     11  C   UNL     1       3.870   5.412  17.737  0.00  0.00    +0.000 A 
BRANCH   8  12
ATOM     12  C   UNL     1       6.608   4.387  14.594  0.00  0.00    +0.000 C 
ATOM     13  N   UNL     1       7.711   5.251  14.297  0.00  0.00    +0.000 NA
ATOM     14  C   UNL     1       7.593   5.368  12.836  0.00  0.00    +0.000 C 
ATOM     15  C   UNL     1       7.089   3.999  12.391  0.00  0.00    +0.000 C 
ATOM     16  N   UNL     1       6.245   3.553  13.495  0.00  0.00    +0.000 NA
ATOM     17  H   UNL     1       8.562   4.714  14.468  0.00  0.00    +0.000 HD
ATOM     18  H   UNL     1       6.405   2.574  13.714  0.00  0.00    +0.000 HD
ENDBRANCH   8  12
ENDBRANCH   1  11
BRANCH   4  19
ATOM     19  C   UNL     1       1.251   8.409  20.376  0.00  0.00    +0.000 A 
ATOM     20  C   UNL     1       0.784   8.743  21.652  0.00  0.00    +0.000 A 
ATOM     21  C   UNL     1       0.332  10.036  21.931  0.00  0.00    +0.000 A 
ATOM     22  C   UNL     1       0.342  11.030  20.942  0.00  0.00    +0.000 A 
ATOM     23  C   UNL     1       0.726  10.670  19.644  0.00  0.00    +0.000 A 
ATOM     24  C   UNL     1       1.177   9.377  19.364  0.00  0.00    +0.000 A 
BRANCH  22  25
ATOM     25  C   UNL     1       0.056  12.447  21.277  0.00  0.00    +0.000 C 
ATOM     26  N   UNL     1       0.047  12.840  22.660  0.00  0.00    +0.000 NA
ATOM     27  C   UNL     1      -1.382  13.111  22.874  0.00  0.00    +0.000 C 
ATOM     28  C   UNL     1      -1.857  13.690  21.547  0.00  0.00    +0.000 C 
ATOM     29  N   UNL     1      -0.952  13.141  20.528  0.00  0.00    +0.000 NA
ATOM     30  H   UNL     1       0.513  13.745  22.718  0.00  0.00    +0.000 HD
ATOM     31  H   UNL     1      -0.517  13.922  20.038  0.00  0.00    +0.000 HD
ENDBRANCH  22  25
ENDBRANCH   4  19
TORSDOF 4
ENDMDL
MODEL 6
REMARK VINA RESULT:      -8.4      2.863     10.750
REMARK  Name = 
REMARK  4 active torsions:
REMARK  status: ('A' for Active; 'I' for Inactive)
REMARK    1  A    between atoms: C_3  and  C_4
REMARK    2  A    between atoms: C_11  and  C_12
REMARK    3  A    between atoms: C_15  and  C_16
REMARK    4  A    between atoms: C_19  and  C_20
REMARK                            x       y       z     vdW  Elec       q    Type
REMARK                         _______ _______ _______ _____ _____    ______ ____
ROOT
ATOM      1  C   UNL     1       0.592  10.178  19.565  0.00  0.00    +0.000 A 
ATOM      2  C   UNL     1       0.567  10.393  18.196  0.00  0.00    +0.000 A 
ATOM      3  C   UNL     1       1.312   9.343  17.614  0.00  0.00    +0.000 A 
ATOM      4  C   UNL     1       1.766   8.555  18.649  0.00  0.00    +0.000 A 
ATOM      5  O   UNL     1       1.324   9.068  19.829  0.00  0.00    +0.000 OA
ENDROOT
BRANCH   1  11
ATOM      6  C   UNL     1      -0.298  10.121  21.885  0.00  0.00    +0.000 A 
ATOM      7  C   UNL     1      -1.080  10.687  22.892  0.00  0.00    +0.000 A 
ATOM      8  C   UNL     1      -1.622  11.972  22.745  0.00  0.00    +0.000 A 
ATOM      9  C   UNL     1      -1.281  12.709  21.606  0.00  0.00    +0.000 A 
ATOM     10  C   UNL     1      -0.505  12.144  20.595  0.00  0.00    +0.000 A 
ATOM     11  C   UNL     1      -0.048  10.824  20.700  0.00  0.00    +0.000 A 
BRANCH   8  12
ATOM     12  C   UNL     1      -2.501  12.545  23.773  0.00  0.00    +0.000 C 
ATOM     13  N   UNL     1      -3.777  11.961  24.057  0.00  0.00    +0.000 NA
ATOM     14  C   UNL     1      -4.651  13.142  23.983  0.00  0.00    +0.000 C 
ATOM     15  C   UNL     1      -3.791  14.277  24.528  0.00  0.00    +0.000 C 
ATOM     16  N   UNL     1      -2.435  13.928  24.115  0.00  0.00    +0.000 NA
ATOM     17  H   UNL     1      -3.764  11.683  25.039  0.00  0.00    +0.000 HD
ATOM     18  H   UNL     1      -1.766  14.086  24.863  0.00  0.00    +0.000 HD
ENDBRANCH   8  12
ENDBRANCH   1  11
BRANCH   4  19
ATOM     19  C   UNL     1       2.611   7.374  18.741  0.00  0.00    +0.000 A 
ATOM     20  C   UNL     1       2.404   6.427  19.750  0.00  0.00    +0.000 A 
ATOM     21  C   UNL     1       3.115   5.223  19.757  0.00  0.00    +0.000 A 
ATOM     22  C   UNL     1       4.047   4.934  18.751  0.00  0.00    +0.000 A 
ATOM     23  C   UNL     1       4.317   5.920  17.794  0.00  0.00    +0.000 A 
ATOM     24  C   UNL     1       3.608   7.124  17.786  0.00  0.00    +0.000 A 
BRANCH  22  25
ATOM     25  C   UNL     1       4.657   3.586  18.637  0.00  0.00    +0.000 C 
ATOM     26  N   UNL     1       4.110   2.660  17.683  0.00  0.00    +0.000 NA
ATOM     27  C   UNL     1       3.491   1.664  18.568  0.00  0.00    +0.000 C 
ATOM     28  C   UNL     1       4.422   1.603  19.774  0.00  0.00    +0.000 C 
ATOM     29  N   UNL     1       5.077   2.917  19.835  0.00  0.00    +0.000 NA
ATOM     30  H   UNL     1       4.897   2.186  17.239  0.00  0.00    +0.000 HD
ATOM     31  H   UNL     1       6.085   2.770  19.793  0.00  0.00    +0.000 HD
ENDBRANCH  22  25
ENDBRANCH   4  19
TORSDOF 4
ENDMDL
MODEL 7
REMARK VINA RESULT:      -8.3      0.456     10.191
REMARK  Name = 
REMARK  4 active torsions:
REMARK  status: ('A' for Active; 'I' for Inactive)
REMARK    1  A    between atoms: C_3  and  C_4
REMARK    2  A    between atoms: C_11  and  C_12
REMARK    3  A    between atoms: C_15  and  C_16
REMARK    4  A    between atoms: C_19  and  C_20
REMARK                            x       y       z     vdW  Elec       q    Type
REMARK                         _______ _______ _______ _____ _____    ______ ____
ROOT
ATOM      1  C   UNL     1       1.903   6.974  20.035  0.00  0.00    +0.000 A 
ATOM      2  C   UNL     1       1.819   5.744  20.668  0.00  0.00    +0.000 A 
ATOM      3  C   UNL     1       2.580   4.841  19.891  0.00  0.00    +0.000 A 
ATOM      4  C   UNL     1       3.072   5.556  18.820  0.00  0.00    +0.000 A 
ATOM      5  O   UNL     1       2.658   6.848  18.916  0.00  0.00    +0.000 OA
ENDROOT
BRANCH   1  11
ATOM      6  C   UNL     1       1.112   8.663  21.679  0.00  0.00    +0.000 A 
ATOM      7  C   UNL     1       0.489   9.880  21.952  0.00  0.00    +0.000 A 
ATOM      8  C   UNL     1       0.187  10.782  20.921  0.00  0.00    +0.000 A 
ATOM      9  C   UNL     1       0.612  10.472  19.625  0.00  0.00    +0.000 A 
ATOM     10  C   UNL     1       1.229   9.253  19.347  0.00  0.00    +0.000 A 
ATOM     11  C   UNL     1       1.440   8.312  20.363  0.00  0.00    +0.000 A 
BRANCH   8  12
ATOM     12  C   UNL     1      -0.529  12.035  21.197  0.00  0.00    +0.000 C 
ATOM     13  N   UNL     1      -0.043  12.957  22.178  0.00  0.00    +0.000 NA
ATOM     14  C   UNL     1      -1.256  13.180  22.981  0.00  0.00    +0.000 C 
ATOM     15  C   UNL     1      -2.391  13.118  21.965  0.00  0.00    +0.000 C 
ATOM     16  N   UNL     1      -1.933  12.148  20.975  0.00  0.00    +0.000 NA
ATOM     17  H   UNL     1       0.139  13.837  21.694  0.00  0.00    +0.000 HD
ATOM     18  H   UNL     1      -2.127  12.462  20.028  0.00  0.00    +0.000 HD
ENDBRANCH   8  12
ENDBRANCH   1  11
BRANCH   4  19
ATOM     19  C   UNL     1       3.866   5.223  17.647  0.00  0.00    +0.000 A 
ATOM     20  C   UNL     1       4.582   6.214  16.968  0.00  0.00    +0.000 A 
ATOM     21  C   UNL     1       5.459   5.878  15.932  0.00  0.00    +0.000 A 
ATOM     22  C   UNL     1       5.646   4.541  15.553  0.00  0.00    +0.000 A 
ATOM     23  C   UNL     1       4.862   3.561  16.174  0.00  0.00    +0.000 A 
ATOM     24  C   UNL     1       3.984   3.895  17.209  0.00  0.00    +0.000 A 
BRANCH  22  25
ATOM     25  C   UNL     1       6.715   4.159  14.599  0.00  0.00    +0.000 C 
ATOM     26  N   UNL     1       7.695   5.144  14.230  0.00  0.00    +0.000 NA
ATOM     27  C   UNL     1       7.340   5.394  12.826  0.00  0.00    +0.000 C 
ATOM     28  C   UNL     1       6.872   4.038  12.310  0.00  0.00    +0.000 C 
ATOM     29  N   UNL     1       6.377   3.315  13.488  0.00  0.00    +0.000 NA
ATOM     30  H   UNL     1       8.600   4.673  14.208  0.00  0.00    +0.000 HD
ATOM     31  H   UNL     1       6.899   2.443  13.567  0.00  0.00    +0.000 HD
ENDBRANCH  22  25
ENDBRANCH   4  19
TORSDOF 4
ENDMDL
MODEL 8
REMARK VINA RESULT:      -8.3      2.943     10.797
REMARK  Name = 
REMARK  4 active torsions:
REMARK  status: ('A' for Active; 'I' for Inactive)
REMARK    1  A    between atoms: C_3  and  C_4
REMARK    2  A    between atoms: C_11  and  C_12
REMARK    3  A    between atoms: C_15  and  C_16
REMARK    4  A    between atoms: C_19  and  C_20
REMARK                            x       y       z     vdW  Elec       q    Type
REMARK                         _______ _______ _______ _____ _____    ______ ____
ROOT
ATOM      1  C   UNL     1       0.577  10.447  19.557  0.00  0.00    +0.000 A 
ATOM      2  C   UNL     1       1.037  11.000  18.372  0.00  0.00    +0.000 A 
ATOM      3  C   UNL     1       1.889  10.037  17.787  0.00  0.00    +0.000 A 
ATOM      4  C   UNL     1       1.922   8.960  18.645  0.00  0.00    +0.000 A 
ATOM      5  O   UNL     1       1.122   9.216  19.715  0.00  0.00    +0.000 OA
ENDROOT
BRANCH   1  11
ATOM      6  C   UNL     1      -1.459  11.706  20.229  0.00  0.00    +0.000 A 
ATOM      7  C   UNL     1      -2.261  12.257  21.227  0.00  0.00    +0.000 A 
ATOM      8  C   UNL     1      -2.020  11.979  22.580  0.00  0.00    +0.000 A 
ATOM      9  C   UNL     1      -1.016  11.059  22.898  0.00  0.00    +0.000 A 
ATOM     10  C   UNL     1      -0.207  10.510  21.903  0.00  0.00    +0.000 A 
ATOM     11  C   UNL     1      -0.387  10.868  20.561  0.00  0.00    +0.000 A 
BRANCH   8  12
ATOM     12  C   UNL     1      -2.821  12.610  23.638  0.00  0.00    +0.000 C 
ATOM     13  N   UNL     1      -4.171  12.201  23.880  0.00  0.00    +0.000 NA
ATOM     14  C   UNL     1      -4.865  13.498  23.874  0.00  0.00    +0.000 C 
ATOM     15  C   UNL     1      -3.858  14.463  24.490  0.00  0.00    +0.000 C 
ATOM     16  N   UNL     1      -2.561  13.947  24.063  0.00  0.00    +0.000 NA
ATOM     17  H   UNL     1      -4.211  11.866  24.843  0.00  0.00    +0.000 HD
ATOM     18  H   UNL     1      -1.886  13.961  24.823  0.00  0.00    +0.000 HD
ENDBRANCH   8  12
ENDBRANCH   1  11
BRANCH   4  19
ATOM     19  C   UNL     1       2.630   7.689  18.664  0.00  0.00    +0.000 A 
ATOM     20  C   UNL     1       2.376   6.748  19.668  0.00  0.00    +0.000 A 
ATOM     21  C   UNL     1       2.943   5.472  19.611  0.00  0.00    +0.000 A 
ATOM     22  C   UNL     1       3.775   5.102  18.544  0.00  0.00    +0.000 A 
ATOM     23  C   UNL     1       4.098   6.073  17.589  0.00  0.00    +0.000 A 
ATOM     24  C   UNL     1       3.532   7.349  17.645  0.00  0.00    +0.000 A 
BRANCH  22  25
ATOM     25  C   UNL     1       4.217   3.697  18.370  0.00  0.00    +0.000 C 
ATOM     26  N   UNL     1       3.282   2.739  17.846  0.00  0.00    +0.000 NA
ATOM     27  C   UNL     1       3.036   1.899  19.027  0.00  0.00    +0.000 C 
ATOM     28  C   UNL     1       4.376   1.868  19.752  0.00  0.00    +0.000 C 
ATOM     29  N   UNL     1       5.060   3.111  19.373  0.00  0.00    +0.000 NA
ATOM     30  H   UNL     1       3.792   2.149  17.188  0.00  0.00    +0.000 HD
ATOM     31  H   UNL     1       5.954   2.864  18.948  0.00  0.00    +0.000 HD
ENDBRANCH  22  25
ENDBRANCH   4  19
TORSDOF 4
ENDMDL
MODEL 9
REMARK VINA RESULT:      -8.3      3.468     10.247
REMARK  Name = 
REMARK  4 active torsions:
REMARK  status: ('A' for Active; 'I' for Inactive)
REMARK    1  A    between atoms: C_3  and  C_4
REMARK    2  A    between atoms: C_11  and  C_12
REMARK    3  A    between atoms: C_15  and  C_16
REMARK    4  A    between atoms: C_19  and  C_20
REMARK                            x       y       z     vdW  Elec       q    Type
REMARK                         _______ _______ _______ _____ _____    ______ ____
ROOT
ATOM      1  C   UNL     1       0.439  10.187  18.215  0.00  0.00    +0.000 A 
ATOM      2  C   UNL     1       1.590  10.958  18.217  0.00  0.00    +0.000 A 
ATOM      3  C   UNL     1       2.671  10.062  18.053  0.00  0.00    +0.000 A 
ATOM      4  C   UNL     1       2.131   8.797  17.978  0.00  0.00    +0.000 A 
ATOM      5  O   UNL     1       0.776   8.882  18.075  0.00  0.00    +0.000 OA
ENDROOT
BRANCH   1  11
ATOM      6  C   UNL     1      -1.867   9.916  17.325  0.00  0.00    +0.000 A 
ATOM      7  C   UNL     1      -3.186  10.360  17.237  0.00  0.00    +0.000 A 
ATOM      8  C   UNL     1      -3.658  11.384  18.070  0.00  0.00    +0.000 A 
ATOM      9  C   UNL     1      -2.800  11.883  19.056  0.00  0.00    +0.000 A 
ATOM     10  C   UNL     1      -1.479  11.446  19.143  0.00  0.00    +0.000 A 
ATOM     11  C   UNL     1      -0.982  10.494  18.244  0.00  0.00    +0.000 A 
BRANCH   8  12
ATOM     12  C   UNL     1      -5.026  11.901  17.935  0.00  0.00    +0.000 C 
ATOM     13  N   UNL     1      -5.389  13.172  18.483  0.00  0.00    +0.000 NA
ATOM     14  C   UNL     1      -6.597  12.819  19.243  0.00  0.00    +0.000 C 
ATOM     15  C   UNL     1      -7.258  11.729  18.406  0.00  0.00    +0.000 C 
ATOM     16  N   UNL     1      -6.139  11.018  17.795  0.00  0.00    +0.000 NA
ATOM     17  H   UNL     1      -5.706  13.751  17.704  0.00  0.00    +0.000 HD
ATOM     18  H   UNL     1      -6.318  10.812  16.817  0.00  0.00    +0.000 HD
ENDBRANCH   8  12
ENDBRANCH   1  11
BRANCH   4  19
ATOM     19  C   UNL     1       2.682   7.455  17.864  0.00  0.00    +0.000 A 
ATOM     20  C   UNL     1       3.990   7.259  17.407  0.00  0.00    +0.000 A 
ATOM     21  C   UNL     1       4.573   5.989  17.434  0.00  0.00    +0.000 A 
ATOM     22  C   UNL     1       3.865   4.883  17.925  0.00  0.00    +0.000 A 
ATOM     23  C   UNL     1       2.528   5.066  18.298  0.00  0.00    +0.000 A 
ATOM     24  C   UNL     1       1.943   6.334  18.271  0.00  0.00    +0.000 A 
BRANCH  22  25
ATOM     25  C   UNL     1       4.537   3.579  18.142  0.00  0.00    +0.000 C 
ATOM     26  N   UNL     1       3.965   2.400  17.549  0.00  0.00    +0.000 NA
ATOM     27  C   UNL     1       3.480   1.685  18.738  0.00  0.00    +0.000 C 
ATOM     28  C   UNL     1       4.510   2.004  19.815  0.00  0.00    +0.000 C 
ATOM     29  N   UNL     1       5.093   3.298  19.435  0.00  0.00    +0.000 NA
ATOM     30  H   UNL     1       4.738   1.842  17.186  0.00  0.00    +0.000 HD
ATOM     31  H   UNL     1       6.101   3.175  19.340  0.00  0.00    +0.000 HD
ENDBRANCH  22  25
ENDBRANCH   4  19
TORSDOF 4
ENDMDL
