MODEL 1
REMARK VINA RESULT:      -6.3      0.000      0.000
REMARK  Name = 
REMARK  11 active torsions:
REMARK  status: ('A' for Active; 'I' for Inactive)
REMARK    1  A    between atoms: C_1  and  C_2
REMARK    2  A    between atoms: C_2  and  C_12
REMARK    3  A    between atoms: C_3  and  C_4
REMARK    4  A    between atoms: C_5  and  C_6
REMARK    5  A    between atoms: C_6  and  C_7
REMARK    6  A    between atoms: C_8  and  C_9
REMARK    7  A    between atoms: C_9  and  O_11
REMARK    8  A    between atoms: C_17  and  C_18
REMARK    9  A    between atoms: C_21  and  C_22
REMARK   10  A    between atoms: C_22  and  C_23
REMARK   11  A    between atoms: C_22  and  C_24
REMARK                            x       y       z     vdW  Elec       q    Type
REMARK                         _______ _______ _______ _____ _____    ______ ____
ROOT
ATOM      1  C   UNL     1       1.085  10.001  20.034  0.00  0.00    +0.000 C 
ATOM      2  C   UNL     1      -0.095  10.424  20.539  0.00  0.00    +0.000 C 
ATOM      3  C   UNL     1      -0.288  10.130  22.021  0.00  0.00    +0.000 C 
ATOM      4  C   UNL     1      -0.689  11.402  22.733  0.00  0.00    +0.000 C 
ATOM      5  C   UNL     1      -2.022  11.869  22.184  0.00  0.00    +0.000 C 
ATOM      6  C   UNL     1      -2.144  11.812  20.664  0.00  0.00    +0.000 C 
ATOM      7  C   UNL     1      -1.226  11.151  19.888  0.00  0.00    +0.000 C 
ENDROOT
BRANCH   1   9
ATOM      8  C   UNL     1       2.007  11.598  18.372  0.00  0.00    +0.000 C 
ATOM      9  C   UNL     1       1.731  10.161  18.744  0.00  0.00    +0.000 C 
ATOM     10  C   UNL     1       2.020   9.154  17.902  0.00  0.00    +0.000 C 
BRANCH  10  11
ATOM     11  C   UNL     1       1.852   7.735  18.119  0.00  0.00    +0.000 C 
ATOM     12  C   UNL     1       2.568   6.986  18.971  0.00  0.00    +0.000 C 
BRANCH  12  13
ATOM     13  C   UNL     1       2.360   5.558  19.212  0.00  0.00    +0.000 C 
ATOM     14  C   UNL     1       2.583   4.591  18.074  0.00  0.00    +0.000 C 
ATOM     15  C   UNL     1       1.994   5.157  20.447  0.00  0.00    +0.000 C 
BRANCH  15  16
ATOM     16  C   UNL     1       1.644   3.756  20.792  0.00  0.00    +0.000 C 
ATOM     17  O   UNL     1       2.361   2.962  21.375  0.00  0.00    +0.000 OA
BRANCH  16  18
ATOM     18  O   UNL     1       0.410   3.434  20.348  0.00  0.00    +0.000 OA
ATOM     19  H   UNL     1      -0.036   4.114  19.815  0.00  0.00    +0.000 HD
ENDBRANCH  16  18
ENDBRANCH  15  16
ENDBRANCH  12  13
ENDBRANCH  10  11
ENDBRANCH   1   9
BRANCH   6  20
ATOM     20  C   UNL     1      -3.348  12.507  20.125  0.00  0.00    +0.000 C 
ATOM     21  C   UNL     1      -4.584  12.855  20.912  0.00  0.00    +0.000 C 
ATOM     22  C   UNL     1      -3.574  13.921  20.614  0.00  0.00    +0.000 C 
ENDBRANCH   6  20
BRANCH   7  23
ATOM     23  C   UNL     1      -1.373  11.051  18.350  0.00  0.00    +0.000 C 
ATOM     24  C   UNL     1      -2.488  10.075  17.944  0.00  0.00    +0.000 C 
ATOM     25  C   UNL     1      -1.488  12.374  17.569  0.00  0.00    +0.000 C 
ENDBRANCH   7  23
TORSDOF 7
ENDMDL
MODEL 2
REMARK VINA RESULT:      -6.3      1.382      1.719
REMARK  Name = 
REMARK  11 active torsions:
REMARK  status: ('A' for Active; 'I' for Inactive)
REMARK    1  A    between atoms: C_1  and  C_2
REMARK    2  A    between atoms: C_2  and  C_12
REMARK    3  A    between atoms: C_3  and  C_4
REMARK    4  A    between atoms: C_5  and  C_6
REMARK    5  A    between atoms: C_6  and  C_7
REMARK    6  A    between atoms: C_8  and  C_9
REMARK    7  A    between atoms: C_9  and  O_11
REMARK    8  A    between atoms: C_17  and  C_18
REMARK    9  A    between atoms: C_21  and  C_22
REMARK   10  A    between atoms: C_22  and  C_23
REMARK   11  A    between atoms: C_22  and  C_24
REMARK                            x       y       z     vdW  Elec       q    Type
REMARK                         _______ _______ _______ _____ _____    ______ ____
ROOT
ATOM      1  C   UNL     1       1.141   9.383  19.909  0.00  0.00    +0.000 C 
ATOM      2  C   UNL     1       0.046   9.934  20.478  0.00  0.00    +0.000 C 
ATOM      3  C   UNL     1      -0.181   9.530  21.929  0.00  0.00    +0.000 C 
ATOM      4  C   UNL     1      -0.372  10.772  22.768  0.00  0.00    +0.000 C 
ATOM      5  C   UNL     1      -1.618  11.494  22.296  0.00  0.00    +0.000 C 
ATOM      6  C   UNL     1      -1.757  11.606  20.780  0.00  0.00    +0.000 C 
ATOM      7  C   UNL     1      -0.960  10.889  19.925  0.00  0.00    +0.000 C 
ENDROOT
BRANCH   1   9
ATOM      8  C   UNL     1       2.006  11.011  18.247  0.00  0.00    +0.000 C 
ATOM      9  C   UNL     1       1.796   9.565  18.626  0.00  0.00    +0.000 C 
ATOM     10  C   UNL     1       2.145   8.567  17.796  0.00  0.00    +0.000 C 
BRANCH  10  11
ATOM     11  C   UNL     1       2.045   7.144  18.022  0.00  0.00    +0.000 C 
ATOM     12  C   UNL     1       3.070   6.279  18.020  0.00  0.00    +0.000 C 
BRANCH  12  13
ATOM     13  C   UNL     1       2.960   4.845  18.292  0.00  0.00    +0.000 C 
ATOM     14  C   UNL     1       1.630   4.294  18.746  0.00  0.00    +0.000 C 
ATOM     15  C   UNL     1       4.047   4.067  18.110  0.00  0.00    +0.000 C 
BRANCH  15  16
ATOM     16  C   UNL     1       4.098   2.625  18.456  0.00  0.00    +0.000 C 
ATOM     17  O   UNL     1       3.509   1.729  17.879  0.00  0.00    +0.000 OA
BRANCH  16  18
ATOM     18  O   UNL     1       4.875   2.406  19.540  0.00  0.00    +0.000 OA
ATOM     19  H   UNL     1       5.181   1.492  19.659  0.00  0.00    +0.000 HD
ENDBRANCH  16  18
ENDBRANCH  15  16
ENDBRANCH  12  13
ENDBRANCH  10  11
ENDBRANCH   1   9
BRANCH   6  20
ATOM     20  C   UNL     1      -2.839  12.531  20.337  0.00  0.00    +0.000 C 
ATOM     21  C   UNL     1      -3.857  13.181  21.236  0.00  0.00    +0.000 C 
ATOM     22  C   UNL     1      -2.687  13.979  20.748  0.00  0.00    +0.000 C 
ENDBRANCH   6  20
BRANCH   7  23
ATOM     23  C   UNL     1      -1.131  10.964  18.388  0.00  0.00    +0.000 C 
ATOM     24  C   UNL     1      -2.295  10.089  17.898  0.00  0.00    +0.000 C 
ATOM     25  C   UNL     1      -1.195  12.369  17.757  0.00  0.00    +0.000 C 
ENDBRANCH   7  23
TORSDOF 7
ENDMDL
MODEL 3
REMARK VINA RESULT:      -6.2      1.296      1.446
REMARK  Name = 
REMARK  11 active torsions:
REMARK  status: ('A' for Active; 'I' for Inactive)
REMARK    1  A    between atoms: C_1  and  C_2
REMARK    2  A    between atoms: C_2  and  C_12
REMARK    3  A    between atoms: C_3  and  C_4
REMARK    4  A    between atoms: C_5  and  C_6
REMARK    5  A    between atoms: C_6  and  C_7
REMARK    6  A    between atoms: C_8  and  C_9
REMARK    7  A    between atoms: C_9  and  O_11
REMARK    8  A    between atoms: C_17  and  C_18
REMARK    9  A    between atoms: C_21  and  C_22
REMARK   10  A    between atoms: C_22  and  C_23
REMARK   11  A    between atoms: C_22  and  C_24
REMARK                            x       y       z     vdW  Elec       q    Type
REMARK                         _______ _______ _______ _____ _____    ______ ____
ROOT
ATOM      1  C   UNL     1       1.147   9.189  19.944  0.00  0.00    +0.000 C 
ATOM      2  C   UNL     1       0.072   9.785  20.505  0.00  0.00    +0.000 C 
ATOM      3  C   UNL     1      -0.203   9.363  21.943  0.00  0.00    +0.000 C 
ATOM      4  C   UNL     1      -0.344  10.596  22.806  0.00  0.00    +0.000 C 
ATOM      5  C   UNL     1      -1.541  11.392  22.328  0.00  0.00    +0.000 C 
ATOM      6  C   UNL     1      -1.646  11.544  20.813  0.00  0.00    +0.000 C 
ATOM      7  C   UNL     1      -0.872  10.804  19.956  0.00  0.00    +0.000 C 
ENDROOT
BRANCH   1   9
ATOM      8  C   UNL     1       1.986  10.805  18.257  0.00  0.00    +0.000 C 
ATOM      9  C   UNL     1       1.835   9.364  18.677  0.00  0.00    +0.000 C 
ATOM     10  C   UNL     1       2.259   8.358  17.892  0.00  0.00    +0.000 C 
BRANCH  10  11
ATOM     11  C   UNL     1       2.221   6.940  18.162  0.00  0.00    +0.000 C 
ATOM     12  C   UNL     1       3.249   6.090  18.021  0.00  0.00    +0.000 C 
BRANCH  12  13
ATOM     13  C   UNL     1       3.208   4.662  18.338  0.00  0.00    +0.000 C 
ATOM     14  C   UNL     1       4.494   3.965  18.708  0.00  0.00    +0.000 C 
ATOM     15  C   UNL     1       2.018   4.026  18.304  0.00  0.00    +0.000 C 
BRANCH  15  16
ATOM     16  C   UNL     1       1.858   2.563  18.494  0.00  0.00    +0.000 C 
ATOM     17  O   UNL     1       1.585   2.002  19.541  0.00  0.00    +0.000 OA
BRANCH  16  18
ATOM     18  O   UNL     1       2.084   1.889  17.345  0.00  0.00    +0.000 OA
ATOM     19  H   UNL     1       1.524   1.109  17.198  0.00  0.00    +0.000 HD
ENDBRANCH  16  18
ENDBRANCH  15  16
ENDBRANCH  12  13
ENDBRANCH  10  11
ENDBRANCH   1   9
BRANCH   6  20
ATOM     20  C   UNL     1      -2.670  12.534  20.371  0.00  0.00    +0.000 C 
ATOM     21  C   UNL     1      -3.713  13.167  21.253  0.00  0.00    +0.000 C 
ATOM     22  C   UNL     1      -2.490  13.948  20.879  0.00  0.00    +0.000 C 
ENDBRANCH   6  20
BRANCH   7  23
ATOM     23  C   UNL     1      -1.010  10.920  18.418  0.00  0.00    +0.000 C 
ATOM     24  C   UNL     1      -2.108   9.997  17.871  0.00  0.00    +0.000 C 
ATOM     25  C   UNL     1      -1.141  12.339  17.832  0.00  0.00    +0.000 C 
ENDBRANCH   7  23
TORSDOF 7
ENDMDL
MODEL 4
REMARK VINA RESULT:      -6.1      7.400     10.600
REMARK  Name = 
REMARK  11 active torsions:
REMARK  status: ('A' for Active; 'I' for Inactive)
REMARK    1  A    between atoms: C_1  and  C_2
REMARK    2  A    between atoms: C_2  and  C_12
REMARK    3  A    between atoms: C_3  and  C_4
REMARK    4  A    between atoms: C_5  and  C_6
REMARK    5  A    between atoms: C_6  and  C_7
REMARK    6  A    between atoms: C_8  and  C_9
REMARK    7  A    between atoms: C_9  and  O_11
REMARK    8  A    between atoms: C_17  and  C_18
REMARK    9  A    between atoms: C_21  and  C_22
REMARK   10  A    between atoms: C_22  and  C_23
REMARK   11  A    between atoms: C_22  and  C_24
REMARK                            x       y       z     vdW  Elec       q    Type
REMARK                         _______ _______ _______ _____ _____    ______ ____
ROOT
ATOM      1  C   UNL     1       7.500   6.724  17.096  0.00  0.00    +0.000 C 
ATOM      2  C   UNL     1       6.426   6.066  16.608  0.00  0.00    +0.000 C 
ATOM      3  C   UNL     1       6.388   5.964  15.088  0.00  0.00    +0.000 C 
ATOM      4  C   UNL     1       6.177   4.521  14.691  0.00  0.00    +0.000 C 
ATOM      5  C   UNL     1       4.830   4.063  15.212  0.00  0.00    +0.000 C 
ATOM      6  C   UNL     1       4.524   4.479  16.649  0.00  0.00    +0.000 C 
ATOM      7  C   UNL     1       5.288   5.404  17.313  0.00  0.00    +0.000 C 
ENDROOT
BRANCH   1   9
ATOM      8  C   UNL     1       7.976   5.733  19.322  0.00  0.00    +0.000 C 
ATOM      9  C   UNL     1       8.000   6.957  18.440  0.00  0.00    +0.000 C 
ATOM     10  C   UNL     1       8.399   8.151  18.912  0.00  0.00    +0.000 C 
BRANCH  10  11
ATOM     11  C   UNL     1       8.514   9.400  18.194  0.00  0.00    +0.000 C 
ATOM     12  C   UNL     1       9.097  10.515  18.657  0.00  0.00    +0.000 C 
BRANCH  12  13
ATOM     13  C   UNL     1       9.242  11.761  17.903  0.00  0.00    +0.000 C 
ATOM     14  C   UNL     1       8.019  12.364  17.256  0.00  0.00    +0.000 C 
ATOM     15  C   UNL     1      10.462  12.334  17.830  0.00  0.00    +0.000 C 
BRANCH  15  16
ATOM     16  C   UNL     1      10.764  13.532  17.008  0.00  0.00    +0.000 C 
ATOM     17  O   UNL     1      10.513  14.687  17.306  0.00  0.00    +0.000 OA
BRANCH  16  18
ATOM     18  O   UNL     1      11.345  13.191  15.837  0.00  0.00    +0.000 OA
ATOM     19  H   UNL     1      10.845  12.565  15.288  0.00  0.00    +0.000 HD
ENDBRANCH  16  18
ENDBRANCH  15  16
ENDBRANCH  12  13
ENDBRANCH  10  11
ENDBRANCH   1   9
BRANCH   6  20
ATOM     20  C   UNL     1       3.325   3.812  17.231  0.00  0.00    +0.000 C 
ATOM     21  C   UNL     1       2.658   2.577  16.686  0.00  0.00    +0.000 C 
ATOM     22  C   UNL     1       3.560   2.464  17.877  0.00  0.00    +0.000 C 
ENDBRANCH   6  20
BRANCH   7  23
ATOM     23  C   UNL     1       4.952   5.864  18.753  0.00  0.00    +0.000 C 
ATOM     24  C   UNL     1       3.701   6.755  18.792  0.00  0.00    +0.000 C 
ATOM     25  C   UNL     1       4.885   4.773  19.839  0.00  0.00    +0.000 C 
ENDBRANCH   7  23
TORSDOF 7
ENDMDL
MODEL 5
REMARK VINA RESULT:      -6.1      1.019      1.454
REMARK  Name = 
REMARK  11 active torsions:
REMARK  status: ('A' for Active; 'I' for Inactive)
REMARK    1  A    between atoms: C_1  and  C_2
REMARK    2  A    between atoms: C_2  and  C_12
REMARK    3  A    between atoms: C_3  and  C_4
REMARK    4  A    between atoms: C_5  and  C_6
REMARK    5  A    between atoms: C_6  and  C_7
REMARK    6  A    between atoms: C_8  and  C_9
REMARK    7  A    between atoms: C_9  and  O_11
REMARK    8  A    between atoms: C_17  and  C_18
REMARK    9  A    between atoms: C_21  and  C_22
REMARK   10  A    between atoms: C_22  and  C_23
REMARK   11  A    between atoms: C_22  and  C_24
REMARK                            x       y       z     vdW  Elec       q    Type
REMARK                         _______ _______ _______ _____ _____    ______ ____
ROOT
ATOM      1  C   UNL     1       1.055  10.471  20.085  0.00  0.00    +0.000 C 
ATOM      2  C   UNL     1      -0.160  10.840  20.545  0.00  0.00    +0.000 C 
ATOM      3  C   UNL     1      -0.308  10.769  22.060  0.00  0.00    +0.000 C 
ATOM      4  C   UNL     1      -0.841  12.088  22.571  0.00  0.00    +0.000 C 
ATOM      5  C   UNL     1      -2.221  12.315  21.989  0.00  0.00    +0.000 C 
ATOM      6  C   UNL     1      -2.348  12.003  20.500  0.00  0.00    +0.000 C 
ATOM      7  C   UNL     1      -1.369  11.328  19.816  0.00  0.00    +0.000 C 
ENDROOT
BRANCH   1   9
ATOM      8  C   UNL     1       2.007  11.874  18.272  0.00  0.00    +0.000 C 
ATOM      9  C   UNL     1       1.670  10.490  18.769  0.00  0.00    +0.000 C 
ATOM     10  C   UNL     1       1.882   9.403  18.007  0.00  0.00    +0.000 C 
BRANCH  10  11
ATOM     11  C   UNL     1       1.650   8.018  18.347  0.00  0.00    +0.000 C 
ATOM     12  C   UNL     1       2.568   7.042  18.314  0.00  0.00    +0.000 C 
BRANCH  12  13
ATOM     13  C   UNL     1       2.329   5.651  18.701  0.00  0.00    +0.000 C 
ATOM     14  C   UNL     1       2.351   5.292  20.167  0.00  0.00    +0.000 C 
ATOM     15  C   UNL     1       2.081   4.744  17.733  0.00  0.00    +0.000 C 
BRANCH  15  16
ATOM     16  C   UNL     1       1.935   3.288  17.982  0.00  0.00    +0.000 C 
ATOM     17  O   UNL     1       0.903   2.713  18.279  0.00  0.00    +0.000 OA
BRANCH  16  18
ATOM     18  O   UNL     1       3.119   2.648  17.869  0.00  0.00    +0.000 OA
ATOM     19  H   UNL     1       3.238   2.125  17.058  0.00  0.00    +0.000 HD
ENDBRANCH  16  18
ENDBRANCH  15  16
ENDBRANCH  12  13
ENDBRANCH  10  11
ENDBRANCH   1   9
BRANCH   6  20
ATOM     20  C   UNL     1      -3.625  12.469  19.889  0.00  0.00    +0.000 C 
ATOM     21  C   UNL     1      -4.971  12.467  20.564  0.00  0.00    +0.000 C 
ATOM     22  C   UNL     1      -4.204  13.749  20.453  0.00  0.00    +0.000 C 
ENDBRANCH   6  20
BRANCH   7  23
ATOM     23  C   UNL     1      -1.516  10.967  18.318  0.00  0.00    +0.000 C 
ATOM     24  C   UNL     1      -2.628   9.934  18.085  0.00  0.00    +0.000 C 
ATOM     25  C   UNL     1      -1.635  12.138  17.324  0.00  0.00    +0.000 C 
ENDBRANCH   7  23
TORSDOF 7
ENDMDL
MODEL 6
REMARK VINA RESULT:      -6.0      7.647     10.297
REMARK  Name = 
REMARK  11 active torsions:
REMARK  status: ('A' for Active; 'I' for Inactive)
REMARK    1  A    between atoms: C_1  and  C_2
REMARK    2  A    between atoms: C_2  and  C_12
REMARK    3  A    between atoms: C_3  and  C_4
REMARK    4  A    between atoms: C_5  and  C_6
REMARK    5  A    between atoms: C_6  and  C_7
REMARK    6  A    between atoms: C_8  and  C_9
REMARK    7  A    between atoms: C_9  and  O_11
REMARK    8  A    between atoms: C_17  and  C_18
REMARK    9  A    between atoms: C_21  and  C_22
REMARK   10  A    between atoms: C_22  and  C_23
REMARK   11  A    between atoms: C_22  and  C_24
REMARK                            x       y       z     vdW  Elec       q    Type
REMARK                         _______ _______ _______ _____ _____    ______ ____
ROOT
ATOM      1  C   UNL     1       8.286  11.572  18.368  0.00  0.00    +0.000 C 
ATOM      2  C   UNL     1       8.526  12.828  17.933  0.00  0.00    +0.000 C 
ATOM      3  C   UNL     1       7.302  13.548  17.378  0.00  0.00    +0.000 C 
ATOM      4  C   UNL     1       7.171  14.896  18.049  0.00  0.00    +0.000 C 
ATOM      5  C   UNL     1       8.386  15.733  17.704  0.00  0.00    +0.000 C 
ATOM      6  C   UNL     1       9.720  14.996  17.799  0.00  0.00    +0.000 C 
ATOM      7  C   UNL     1       9.785  13.632  17.929  0.00  0.00    +0.000 C 
ENDROOT
BRANCH   1   9
ATOM      8  C   UNL     1      10.040  11.174  20.078  0.00  0.00    +0.000 C 
ATOM      9  C   UNL     1       9.097  10.585  19.059  0.00  0.00    +0.000 C 
ATOM     10  C   UNL     1       9.081   9.265  18.800  0.00  0.00    +0.000 C 
BRANCH  10  11
ATOM     11  C   UNL     1       8.222   8.546  17.889  0.00  0.00    +0.000 C 
ATOM     12  C   UNL     1       7.771   7.295  18.063  0.00  0.00    +0.000 C 
BRANCH  12  13
ATOM     13  C   UNL     1       6.867   6.593  17.152  0.00  0.00    +0.000 C 
ATOM     14  C   UNL     1       5.432   7.053  17.058  0.00  0.00    +0.000 C 
ATOM     15  C   UNL     1       7.355   5.572  16.416  0.00  0.00    +0.000 C 
BRANCH  15  16
ATOM     16  C   UNL     1       6.519   4.711  15.542  0.00  0.00    +0.000 C 
ATOM     17  O   UNL     1       6.248   4.926  14.374  0.00  0.00    +0.000 OA
BRANCH  16  18
ATOM     18  O   UNL     1       6.050   3.637  16.214  0.00  0.00    +0.000 OA
ATOM     19  H   UNL     1       6.407   3.513  17.109  0.00  0.00    +0.000 HD
ENDBRANCH  16  18
ENDBRANCH  15  16
ENDBRANCH  12  13
ENDBRANCH  10  11
ENDBRANCH   1   9
BRANCH   6  20
ATOM     20  C   UNL     1      10.912  15.885  17.711  0.00  0.00    +0.000 C 
ATOM     21  C   UNL     1      10.878  17.384  17.564  0.00  0.00    +0.000 C 
ATOM     22  C   UNL     1      11.166  16.780  18.905  0.00  0.00    +0.000 C 
ENDBRANCH   6  20
BRANCH   7  23
ATOM     23  C   UNL     1      11.136  12.876  17.976  0.00  0.00    +0.000 C 
ATOM     24  C   UNL     1      11.847  12.890  16.615  0.00  0.00    +0.000 C 
ATOM     25  C   UNL     1      12.109  13.253  19.110  0.00  0.00    +0.000 C 
ENDBRANCH   7  23
TORSDOF 7
ENDMDL
MODEL 7
REMARK VINA RESULT:      -6.0      3.824      6.790
REMARK  Name = 
REMARK  11 active torsions:
REMARK  status: ('A' for Active; 'I' for Inactive)
REMARK    1  A    between atoms: C_1  and  C_2
REMARK    2  A    between atoms: C_2  and  C_12
REMARK    3  A    between atoms: C_3  and  C_4
REMARK    4  A    between atoms: C_5  and  C_6
REMARK    5  A    between atoms: C_6  and  C_7
REMARK    6  A    between atoms: C_8  and  C_9
REMARK    7  A    between atoms: C_9  and  O_11
REMARK    8  A    between atoms: C_17  and  C_18
REMARK    9  A    between atoms: C_21  and  C_22
REMARK   10  A    between atoms: C_22  and  C_23
REMARK   11  A    between atoms: C_22  and  C_24
REMARK                            x       y       z     vdW  Elec       q    Type
REMARK                         _______ _______ _______ _____ _____    ______ ____
ROOT
ATOM      1  C   UNL     1      -2.066  11.879  22.695  0.00  0.00    +0.000 C 
ATOM      2  C   UNL     1      -0.981  11.720  21.907  0.00  0.00    +0.000 C 
ATOM      3  C   UNL     1      -0.312  10.356  22.024  0.00  0.00    +0.000 C 
ATOM      4  C   UNL     1      -0.138   9.767  20.643  0.00  0.00    +0.000 C 
ATOM      5  C   UNL     1       0.787  10.661  19.843  0.00  0.00    +0.000 C 
ATOM      6  C   UNL     1       0.502  12.155  19.970  0.00  0.00    +0.000 C 
ATOM      7  C   UNL     1      -0.347  12.652  20.927  0.00  0.00    +0.000 C 
ENDROOT
BRANCH   1   9
ATOM      8  C   UNL     1      -2.907  13.760  24.080  0.00  0.00    +0.000 C 
ATOM      9  C   UNL     1      -3.057  12.934  22.827  0.00  0.00    +0.000 C 
ATOM     10  C   UNL     1      -4.065  13.148  21.964  0.00  0.00    +0.000 C 
BRANCH  10  11
ATOM     11  C   UNL     1      -4.326  12.474  20.713  0.00  0.00    +0.000 C 
ATOM     12  C   UNL     1      -3.470  12.376  19.686  0.00  0.00    +0.000 C 
BRANCH  12  13
ATOM     13  C   UNL     1      -3.731  11.655  18.440  0.00  0.00    +0.000 C 
ATOM     14  C   UNL     1      -5.110  11.085  18.208  0.00  0.00    +0.000 C 
ATOM     15  C   UNL     1      -2.735  11.542  17.536  0.00  0.00    +0.000 C 
BRANCH  15  16
ATOM     16  C   UNL     1      -2.837  10.744  16.289  0.00  0.00    +0.000 C 
ATOM     17  O   UNL     1      -2.610   9.552  16.181  0.00  0.00    +0.000 OA
BRANCH  16  18
ATOM     18  O   UNL     1      -3.197  11.515  15.240  0.00  0.00    +0.000 OA
ATOM     19  H   UNL     1      -4.148  11.694  15.156  0.00  0.00    +0.000 HD
ENDBRANCH  16  18
ENDBRANCH  15  16
ENDBRANCH  12  13
ENDBRANCH  10  11
ENDBRANCH   1   9
BRANCH   6  20
ATOM     20  C   UNL     1       1.243  13.000  18.990  0.00  0.00    +0.000 C 
ATOM     21  C   UNL     1       2.640  13.531  19.172  0.00  0.00    +0.000 C 
ATOM     22  C   UNL     1       2.412  12.340  18.293  0.00  0.00    +0.000 C 
ENDBRANCH   6  20
BRANCH   7  23
ATOM     23  C   UNL     1      -0.600  14.170  21.090  0.00  0.00    +0.000 C 
ATOM     24  C   UNL     1       0.476  14.840  21.957  0.00  0.00    +0.000 C 
ATOM     25  C   UNL     1      -0.854  14.980  19.803  0.00  0.00    +0.000 C 
ENDBRANCH   7  23
TORSDOF 7
ENDMDL
MODEL 8
REMARK VINA RESULT:      -6.0      8.571     10.688
REMARK  Name = 
REMARK  11 active torsions:
REMARK  status: ('A' for Active; 'I' for Inactive)
REMARK    1  A    between atoms: C_1  and  C_2
REMARK    2  A    between atoms: C_2  and  C_12
REMARK    3  A    between atoms: C_3  and  C_4
REMARK    4  A    between atoms: C_5  and  C_6
REMARK    5  A    between atoms: C_6  and  C_7
REMARK    6  A    between atoms: C_8  and  C_9
REMARK    7  A    between atoms: C_9  and  O_11
REMARK    8  A    between atoms: C_17  and  C_18
REMARK    9  A    between atoms: C_21  and  C_22
REMARK   10  A    between atoms: C_22  and  C_23
REMARK   11  A    between atoms: C_22  and  C_24
REMARK                            x       y       z     vdW  Elec       q    Type
REMARK                         _______ _______ _______ _____ _____    ______ ____
ROOT
ATOM      1  C   UNL     1       9.419  12.574  18.616  0.00  0.00    +0.000 C 
ATOM      2  C   UNL     1       8.855  13.801  18.632  0.00  0.00    +0.000 C 
ATOM      3  C   UNL     1       7.747  13.998  17.604  0.00  0.00    +0.000 C 
ATOM      4  C   UNL     1       6.517  14.540  18.296  0.00  0.00    +0.000 C 
ATOM      5  C   UNL     1       6.844  15.900  18.879  0.00  0.00    +0.000 C 
ATOM      6  C   UNL     1       8.185  15.981  19.603  0.00  0.00    +0.000 C 
ATOM      7  C   UNL     1       9.122  14.983  19.505  0.00  0.00    +0.000 C 
ENDROOT
BRANCH   1   9
ATOM      8  C   UNL     1      11.761  11.780  18.831  0.00  0.00    +0.000 C 
ATOM      9  C   UNL     1      10.399  11.917  19.464  0.00  0.00    +0.000 C 
ATOM     10  C   UNL     1      10.139  11.410  20.682  0.00  0.00    +0.000 C 
BRANCH  10  11
ATOM     11  C   UNL     1       8.909  11.487  21.436  0.00  0.00    +0.000 C 
ATOM     12  C   UNL     1       8.537  12.509  22.220  0.00  0.00    +0.000 C 
BRANCH  12  13
ATOM     13  C   UNL     1       7.269  12.593  22.945  0.00  0.00    +0.000 C 
ATOM     14  C   UNL     1       6.266  13.643  22.532  0.00  0.00    +0.000 C 
ATOM     15  C   UNL     1       7.036  11.717  23.944  0.00  0.00    +0.000 C 
BRANCH  15  16
ATOM     16  C   UNL     1       5.844  11.767  24.827  0.00  0.00    +0.000 C 
ATOM     17  O   UNL     1       5.461  12.735  25.459  0.00  0.00    +0.000 OA
BRANCH  16  18
ATOM     18  O   UNL     1       5.219  10.570  24.878  0.00  0.00    +0.000 OA
ATOM     19  H   UNL     1       5.797   9.801  25.015  0.00  0.00    +0.000 HD
ENDBRANCH  16  18
ENDBRANCH  15  16
ENDBRANCH  12  13
ENDBRANCH  10  11
ENDBRANCH   1   9
BRANCH   6  20
ATOM     20  C   UNL     1       8.378  17.234  20.386  0.00  0.00    +0.000 C 
ATOM     21  C   UNL     1       7.357  18.330  20.551  0.00  0.00    +0.000 C 
ATOM     22  C   UNL     1       7.576  17.351  21.664  0.00  0.00    +0.000 C 
ENDBRANCH   6  20
BRANCH   7  23
ATOM     23  C   UNL     1      10.503  15.084  20.198  0.00  0.00    +0.000 C 
ATOM     24  C   UNL     1      11.436  16.067  19.476  0.00  0.00    +0.000 C 
ATOM     25  C   UNL     1      10.506  15.338  21.718  0.00  0.00    +0.000 C 
ENDBRANCH   7  23
TORSDOF 7
ENDMDL
MODEL 9
REMARK VINA RESULT:      -5.9      3.800      9.134
REMARK  Name = 
REMARK  11 active torsions:
REMARK  status: ('A' for Active; 'I' for Inactive)
REMARK    1  A    between atoms: C_1  and  C_2
REMARK    2  A    between atoms: C_2  and  C_12
REMARK    3  A    between atoms: C_3  and  C_4
REMARK    4  A    between atoms: C_5  and  C_6
REMARK    5  A    between atoms: C_6  and  C_7
REMARK    6  A    between atoms: C_8  and  C_9
REMARK    7  A    between atoms: C_9  and  O_11
REMARK    8  A    between atoms: C_17  and  C_18
REMARK    9  A    between atoms: C_21  and  C_22
REMARK   10  A    between atoms: C_22  and  C_23
REMARK   11  A    between atoms: C_22  and  C_24
REMARK                            x       y       z     vdW  Elec       q    Type
REMARK                         _______ _______ _______ _____ _____    ______ ____
ROOT
ATOM      1  C   UNL     1       4.458   4.762  19.889  0.00  0.00    +0.000 C 
ATOM      2  C   UNL     1       5.159   4.876  18.740  0.00  0.00    +0.000 C 
ATOM      3  C   UNL     1       6.340   5.836  18.813  0.00  0.00    +0.000 C 
ATOM      4  C   UNL     1       7.581   5.138  18.309  0.00  0.00    +0.000 C 
ATOM      5  C   UNL     1       7.380   4.776  16.851  0.00  0.00    +0.000 C 
ATOM      6  C   UNL     1       6.017   4.171  16.524  0.00  0.00    +0.000 C 
ATOM      7  C   UNL     1       4.979   4.199  17.421  0.00  0.00    +0.000 C 
ENDROOT
BRANCH   1   9
ATOM      8  C   UNL     1       3.740   2.451  20.441  0.00  0.00    +0.000 C 
ATOM      9  C   UNL     1       3.362   3.906  20.308  0.00  0.00    +0.000 C 
ATOM     10  C   UNL     1       2.100   4.322  20.510  0.00  0.00    +0.000 C 
BRANCH  10  11
ATOM     11  C   UNL     1       1.588   5.672  20.457  0.00  0.00    +0.000 C 
ATOM     12  C   UNL     1       2.260   6.746  20.018  0.00  0.00    +0.000 C 
BRANCH  12  13
ATOM     13  C   UNL     1       1.715   8.101  19.932  0.00  0.00    +0.000 C 
ATOM     14  C   UNL     1       1.160   8.740  21.182  0.00  0.00    +0.000 C 
ATOM     15  C   UNL     1       1.745   8.735  18.741  0.00  0.00    +0.000 C 
BRANCH  15  16
ATOM     16  C   UNL     1       1.126  10.062  18.496  0.00  0.00    +0.000 C 
ATOM     17  O   UNL     1       1.685  11.141  18.586  0.00  0.00    +0.000 OA
BRANCH  16  18
ATOM     18  O   UNL     1      -0.182   9.943  18.177  0.00  0.00    +0.000 OA
ATOM     19  H   UNL     1      -0.808  10.285  18.837  0.00  0.00    +0.000 HD
ENDBRANCH  16  18
ENDBRANCH  15  16
ENDBRANCH  12  13
ENDBRANCH  10  11
ENDBRANCH   1   9
BRANCH   6  20
ATOM     20  C   UNL     1       5.925   3.587  15.156  0.00  0.00    +0.000 C 
ATOM     21  C   UNL     1       5.207   4.207  13.986  0.00  0.00    +0.000 C 
ATOM     22  C   UNL     1       6.700   4.305  14.072  0.00  0.00    +0.000 C 
ENDBRANCH   6  20
BRANCH   7  23
ATOM     23  C   UNL     1       3.581   3.630  17.074  0.00  0.00    +0.000 C 
ATOM     24  C   UNL     1       3.381   2.218  17.643  0.00  0.00    +0.000 C 
ATOM     25  C   UNL     1       2.365   4.525  17.382  0.00  0.00    +0.000 C 
ENDBRANCH   7  23
TORSDOF 7
ENDMDL
