MODEL 1
REMARK VINA RESULT:      -8.2      0.000      0.000
REMARK  Name = 
REMARK  6 active torsions:
REMARK  status: ('A' for Active; 'I' for Inactive)
REMARK    1  A    between atoms: C_1  and  C_2
REMARK    2  A    between atoms: C_2  and  C_3
REMARK    3  A    between atoms: C_2  and  C_4
REMARK    4  A    between atoms: C_2  and  C_5
REMARK    5  A    between atoms: C_9  and  C_10
REMARK    6  A    between atoms: CB_16  and  CG_17
REMARK                            x       y       z     vdW  Elec       q    Type
REMARK                         _______ _______ _______ _____ _____    ______ ____
ROOT
ATOM      1  C   UNK A   1       5.713   3.938  19.037  0.00  0.00    +0.000 C 
ATOM      2  C   UNK A   1       6.372   5.073  18.667  0.00  0.00    +0.000 A 
ATOM      3  N   UNK A   1       5.989   5.767  17.539  0.00  0.00    +0.000 N 
ATOM      4  C   PHE A   2       6.441   6.979  17.119  0.00  0.00    +0.000 A 
ATOM      5  O   PHE A   2       6.027   7.481  16.077  0.00  0.00    +0.000 OA
ATOM      6  CA  PHE A   2       7.454   7.647  18.009  0.00  0.00    +0.000 A 
ATOM      7  CB  PHE A   2       7.872   8.870  17.624  0.00  0.00    +0.000 C 
ATOM      8  N   PHE A   2       7.873   6.980  19.139  0.00  0.00    +0.000 N 
ATOM      9  C   UNK A   1       7.453   5.714  19.524  0.00  0.00    +0.000 A 
ATOM     10  O   UNK A   1       7.864   5.191  20.555  0.00  0.00    +0.000 OA
ATOM     11  H   UNK A   1       5.228   5.393  16.990  0.00  0.00    +0.000 HD
ATOM     12  H   PHE A   2       8.514   7.450  19.771  0.00  0.00    +0.000 HD
ENDROOT
BRANCH   7  13
ATOM     13  CG  PHE A   2       8.843   9.758  18.274  0.00  0.00    +0.000 A 
ATOM     14  CD1 PHE A   2       9.586  10.659  17.502  0.00  0.00    +0.000 A 
ATOM     15  CE1 PHE A   2      10.469  11.554  18.112  0.00  0.00    +0.000 A 
ATOM     16  CZ  PHE A   2      10.607  11.563  19.499  0.00  0.00    +0.000 A 
ATOM     17  CE2 PHE A   2       9.851  10.687  20.277  0.00  0.00    +0.000 A 
ATOM     18  CD2 PHE A   2       8.969   9.789  19.667  0.00  0.00    +0.000 A 
ENDBRANCH   7  13
BRANCH   1  23
ATOM     19  C   UNK A   1       3.060   3.650  19.149  0.00  0.00    +0.000 A 
ATOM     20  O   UNK A   1       2.208   3.488  18.064  0.00  0.00    +0.000 OA
ATOM     21  C   UNK A   1       2.991   3.376  16.977  0.00  0.00    +0.000 A 
ATOM     22  N   UNK A   1       4.258   3.476  17.230  0.00  0.00    +0.000 NA
ATOM     23  C   UNK A   1       4.354   3.653  18.610  0.00  0.00    +0.000 A 
BRANCH  19  25
ATOM     24  C   UNK A   1       0.761   3.423  20.113  0.00  0.00    +0.000 C 
ATOM     25  C   UNK A   1       2.251   3.749  20.434  0.00  0.00    +0.000 C 
ATOM     26  C   UNK A   1       2.260   5.198  20.977  0.00  0.00    +0.000 C 
ATOM     27  C   UNK A   1       2.699   2.802  21.545  0.00  0.00    +0.000 C 
ENDBRANCH  19  25
ENDBRANCH   1  23
TORSDOF 3
ENDMDL
MODEL 2
REMARK VINA RESULT:      -7.5      8.609     11.169
REMARK  Name = 
REMARK  6 active torsions:
REMARK  status: ('A' for Active; 'I' for Inactive)
REMARK    1  A    between atoms: C_1  and  C_2
REMARK    2  A    between atoms: C_2  and  C_3
REMARK    3  A    between atoms: C_2  and  C_4
REMARK    4  A    between atoms: C_2  and  C_5
REMARK    5  A    between atoms: C_9  and  C_10
REMARK    6  A    between atoms: CB_16  and  CG_17
REMARK                            x       y       z     vdW  Elec       q    Type
REMARK                         _______ _______ _______ _____ _____    ______ ____
ROOT
ATOM      1  C   UNK A   1       0.668  11.228  18.829  0.00  0.00    +0.000 C 
ATOM      2  C   UNK A   1      -0.613  11.367  18.381  0.00  0.00    +0.000 A 
ATOM      3  N   UNK A   1      -1.158  10.432  17.528  0.00  0.00    +0.000 N 
ATOM      4  C   PHE A   2      -2.451  10.345  17.111  0.00  0.00    +0.000 A 
ATOM      5  O   PHE A   2      -2.804   9.468  16.328  0.00  0.00    +0.000 OA
ATOM      6  CA  PHE A   2      -3.392  11.375  17.674  0.00  0.00    +0.000 A 
ATOM      7  CB  PHE A   2      -4.684  11.268  17.303  0.00  0.00    +0.000 C 
ATOM      8  N   PHE A   2      -2.883  12.335  18.520  0.00  0.00    +0.000 N 
ATOM      9  C   UNK A   1      -1.550  12.452  18.888  0.00  0.00    +0.000 A 
ATOM     10  O   UNK A   1      -1.174  13.330  19.659  0.00  0.00    +0.000 OA
ATOM     11  H   UNK A   1      -0.572   9.664  17.231  0.00  0.00    +0.000 HD
ATOM     12  H   PHE A   2      -3.525  12.997  18.945  0.00  0.00    +0.000 HD
ENDROOT
BRANCH   7  13
ATOM     13  CG  PHE A   2      -5.824  12.113  17.677  0.00  0.00    +0.000 A 
ATOM     14  CD1 PHE A   2      -6.460  11.916  18.908  0.00  0.00    +0.000 A 
ATOM     15  CE1 PHE A   2      -7.507  12.752  19.306  0.00  0.00    +0.000 A 
ATOM     16  CZ  PHE A   2      -7.916  13.799  18.482  0.00  0.00    +0.000 A 
ATOM     17  CE2 PHE A   2      -7.270  14.019  17.266  0.00  0.00    +0.000 A 
ATOM     18  CD2 PHE A   2      -6.225  13.180  16.866  0.00  0.00    +0.000 A 
ENDBRANCH   7  13
BRANCH   1  23
ATOM     19  C   UNK A   1       1.415   8.806  19.670  0.00  0.00    +0.000 A 
ATOM     20  O   UNK A   1       2.118   7.863  18.931  0.00  0.00    +0.000 OA
ATOM     21  C   UNK A   1       2.453   8.460  17.774  0.00  0.00    +0.000 A 
ATOM     22  N   UNK A   1       2.022   9.677  17.666  0.00  0.00    +0.000 NA
ATOM     23  C   UNK A   1       1.349   9.946  18.856  0.00  0.00    +0.000 A 
BRANCH  19  25
ATOM     24  C   UNK A   1       1.814   8.971  22.136  0.00  0.00    +0.000 C 
ATOM     25  C   UNK A   1       1.026   8.221  21.020  0.00  0.00    +0.000 C 
ATOM     26  C   UNK A   1       1.460   6.738  21.120  0.00  0.00    +0.000 C 
ATOM     27  C   UNK A   1      -0.459   8.324  21.357  0.00  0.00    +0.000 C 
ENDBRANCH  19  25
ENDBRANCH   1  23
TORSDOF 3
ENDMDL
MODEL 3
REMARK VINA RESULT:      -7.4      6.305      8.943
REMARK  Name = 
REMARK  6 active torsions:
REMARK  status: ('A' for Active; 'I' for Inactive)
REMARK    1  A    between atoms: C_1  and  C_2
REMARK    2  A    between atoms: C_2  and  C_3
REMARK    3  A    between atoms: C_2  and  C_4
REMARK    4  A    between atoms: C_2  and  C_5
REMARK    5  A    between atoms: C_9  and  C_10
REMARK    6  A    between atoms: CB_16  and  CG_17
REMARK                            x       y       z     vdW  Elec       q    Type
REMARK                         _______ _______ _______ _____ _____    ______ ____
ROOT
ATOM      1  C   UNK A   1       0.361  11.201  18.548  0.00  0.00    +0.000 C 
ATOM      2  C   UNK A   1       0.857  10.066  19.121  0.00  0.00    +0.000 A 
ATOM      3  N   UNK A   1       0.384   9.638  20.343  0.00  0.00    +0.000 N 
ATOM      4  C   PHE A   2       0.663   8.466  20.974  0.00  0.00    +0.000 A 
ATOM      5  O   PHE A   2       0.186   8.213  22.077  0.00  0.00    +0.000 OA
ATOM      6  CA  PHE A   2       1.571   7.522  20.234  0.00  0.00    +0.000 A 
ATOM      7  CB  PHE A   2       1.816   6.338  20.832  0.00  0.00    +0.000 C 
ATOM      8  N   PHE A   2       2.077   7.919  19.016  0.00  0.00    +0.000 N 
ATOM      9  C   UNK A   1       1.836   9.145  18.410  0.00  0.00    +0.000 A 
ATOM     10  O   UNK A   1       2.313   9.421  17.314  0.00  0.00    +0.000 OA
ATOM     11  H   UNK A   1      -0.317  10.202  20.803  0.00  0.00    +0.000 HD
ATOM     12  H   PHE A   2       2.644   7.263  18.488  0.00  0.00    +0.000 HD
ENDROOT
BRANCH   7  13
ATOM     13  CG  PHE A   2       2.652   5.226  20.366  0.00  0.00    +0.000 A 
ATOM     14  CD1 PHE A   2       2.231   3.907  20.567  0.00  0.00    +0.000 A 
ATOM     15  CE1 PHE A   2       2.985   2.838  20.075  0.00  0.00    +0.000 A 
ATOM     16  CZ  PHE A   2       4.161   3.082  19.366  0.00  0.00    +0.000 A 
ATOM     17  CE2 PHE A   2       4.574   4.394  19.138  0.00  0.00    +0.000 A 
ATOM     18  CD2 PHE A   2       3.821   5.463  19.633  0.00  0.00    +0.000 A 
ENDBRANCH   7  13
BRANCH   1  23
ATOM     19  C   UNK A   1      -2.280  11.589  18.496  0.00  0.00    +0.000 A 
ATOM     20  O   UNK A   1      -3.025  12.278  19.445  0.00  0.00    +0.000 OA
ATOM     21  C   UNK A   1      -2.143  12.812  20.307  0.00  0.00    +0.000 A 
ATOM     22  N   UNK A   1      -0.908  12.523  20.042  0.00  0.00    +0.000 NA
ATOM     23  C   UNK A   1      -0.943  11.739  18.890  0.00  0.00    +0.000 A 
BRANCH  19  25
ATOM     24  C   UNK A   1      -4.605  11.655  17.570  0.00  0.00    +0.000 C 
ATOM     25  C   UNK A   1      -3.206  10.979  17.454  0.00  0.00    +0.000 C 
ATOM     26  C   UNK A   1      -3.438   9.475  17.739  0.00  0.00    +0.000 C 
ATOM     27  C   UNK A   1      -2.736  11.141  16.010  0.00  0.00    +0.000 C 
ENDBRANCH  19  25
ENDBRANCH   1  23
TORSDOF 3
ENDMDL
MODEL 4
REMARK VINA RESULT:      -7.4      6.219      8.832
REMARK  Name = 
REMARK  6 active torsions:
REMARK  status: ('A' for Active; 'I' for Inactive)
REMARK    1  A    between atoms: C_1  and  C_2
REMARK    2  A    between atoms: C_2  and  C_3
REMARK    3  A    between atoms: C_2  and  C_4
REMARK    4  A    between atoms: C_2  and  C_5
REMARK    5  A    between atoms: C_9  and  C_10
REMARK    6  A    between atoms: CB_16  and  CG_17
REMARK                            x       y       z     vdW  Elec       q    Type
REMARK                         _______ _______ _______ _____ _____    ______ ____
ROOT
ATOM      1  C   UNK A   1       0.579  11.111  18.354  0.00  0.00    +0.000 C 
ATOM      2  C   UNK A   1       1.066   9.976  18.934  0.00  0.00    +0.000 A 
ATOM      3  N   UNK A   1       0.697   9.635  20.218  0.00  0.00    +0.000 N 
ATOM      4  C   PHE A   2       0.973   8.478  20.879  0.00  0.00    +0.000 A 
ATOM      5  O   PHE A   2       0.598   8.307  22.036  0.00  0.00    +0.000 OA
ATOM      6  CA  PHE A   2       1.745   7.446  20.103  0.00  0.00    +0.000 A 
ATOM      7  CB  PHE A   2       1.982   6.279  20.735  0.00  0.00    +0.000 C 
ATOM      8  N   PHE A   2       2.145   7.754  18.821  0.00  0.00    +0.000 N 
ATOM      9  C   UNK A   1       1.912   8.963  18.179  0.00  0.00    +0.000 A 
ATOM     10  O   UNK A   1       2.290   9.158  17.028  0.00  0.00    +0.000 OA
ATOM     11  H   UNK A   1       0.080  10.262  20.715  0.00  0.00    +0.000 HD
ATOM     12  H   PHE A   2       2.617   7.041  18.275  0.00  0.00    +0.000 HD
ENDROOT
BRANCH   7  13
ATOM     13  CG  PHE A   2       2.702   5.097  20.247  0.00  0.00    +0.000 A 
ATOM     14  CD1 PHE A   2       3.986   5.237  19.708  0.00  0.00    +0.000 A 
ATOM     15  CE1 PHE A   2       4.709   4.114  19.296  0.00  0.00    +0.000 A 
ATOM     16  CZ  PHE A   2       4.158   2.841  19.432  0.00  0.00    +0.000 A 
ATOM     17  CE2 PHE A   2       2.890   2.690  19.992  0.00  0.00    +0.000 A 
ATOM     18  CD2 PHE A   2       2.164   3.814  20.401  0.00  0.00    +0.000 A 
ENDBRANCH   7  13
BRANCH   1  23
ATOM     19  C   UNK A   1      -2.025  11.680  18.524  0.00  0.00    +0.000 A 
ATOM     20  O   UNK A   1      -2.635  12.435  19.517  0.00  0.00    +0.000 OA
ATOM     21  C   UNK A   1      -1.646  12.921  20.287  0.00  0.00    +0.000 A 
ATOM     22  N   UNK A   1      -0.462  12.543  19.923  0.00  0.00    +0.000 NA
ATOM     23  C   UNK A   1      -0.651  11.744  18.796  0.00  0.00    +0.000 A 
BRANCH  19  25
ATOM     24  C   UNK A   1      -3.160   9.576  17.782  0.00  0.00    +0.000 C 
ATOM     25  C   UNK A   1      -3.078  11.119  17.579  0.00  0.00    +0.000 C 
ATOM     26  C   UNK A   1      -2.660  11.331  16.104  0.00  0.00    +0.000 C 
ATOM     27  C   UNK A   1      -4.482  11.684  17.780  0.00  0.00    +0.000 C 
ENDBRANCH  19  25
ENDBRANCH   1  23
TORSDOF 3
ENDMDL
MODEL 5
REMARK VINA RESULT:      -7.3      5.318      6.754
REMARK  Name = 
REMARK  6 active torsions:
REMARK  status: ('A' for Active; 'I' for Inactive)
REMARK    1  A    between atoms: C_1  and  C_2
REMARK    2  A    between atoms: C_2  and  C_3
REMARK    3  A    between atoms: C_2  and  C_4
REMARK    4  A    between atoms: C_2  and  C_5
REMARK    5  A    between atoms: C_9  and  C_10
REMARK    6  A    between atoms: CB_16  and  CG_17
REMARK                            x       y       z     vdW  Elec       q    Type
REMARK                         _______ _______ _______ _____ _____    ______ ____
ROOT
ATOM      1  C   UNK A   1       2.729   6.565  18.162  0.00  0.00    +0.000 C 
ATOM      2  C   UNK A   1       2.095   7.583  18.814  0.00  0.00    +0.000 A 
ATOM      3  N   UNK A   1       1.764   7.458  20.146  0.00  0.00    +0.000 N 
ATOM      4  C   PHE A   2       1.268   8.421  20.970  0.00  0.00    +0.000 A 
ATOM      5  O   PHE A   2       0.996   8.172  22.141  0.00  0.00    +0.000 OA
ATOM      6  CA  PHE A   2       1.092   9.783  20.356  0.00  0.00    +0.000 A 
ATOM      7  CB  PHE A   2       0.646  10.755  21.177  0.00  0.00    +0.000 C 
ATOM      8  N   PHE A   2       1.399   9.946  19.023  0.00  0.00    +0.000 N 
ATOM      9  C   UNK A   1       1.844   8.939  18.175  0.00  0.00    +0.000 A 
ATOM     10  O   UNK A   1       2.110   9.166  16.999  0.00  0.00    +0.000 OA
ATOM     11  H   UNK A   1       1.983   6.587  20.608  0.00  0.00    +0.000 HD
ATOM     12  H   PHE A   2       1.335  10.875  18.619  0.00  0.00    +0.000 HD
ENDROOT
BRANCH   7  13
ATOM     13  CG  PHE A   2       0.375  12.165  20.875  0.00  0.00    +0.000 A 
ATOM     14  CD1 PHE A   2       1.438  13.067  20.754  0.00  0.00    +0.000 A 
ATOM     15  CE1 PHE A   2       1.201  14.399  20.405  0.00  0.00    +0.000 A 
ATOM     16  CZ  PHE A   2      -0.100  14.837  20.164  0.00  0.00    +0.000 A 
ATOM     17  CE2 PHE A   2      -1.162  13.939  20.257  0.00  0.00    +0.000 A 
ATOM     18  CD2 PHE A   2      -0.926  12.606  20.608  0.00  0.00    +0.000 A 
ENDBRANCH   7  13
BRANCH   1  23
ATOM     19  C   UNK A   1       3.283   4.323  19.502  0.00  0.00    +0.000 A 
ATOM     20  O   UNK A   1       4.550   3.806  19.745  0.00  0.00    +0.000 OA
ATOM     21  C   UNK A   1       5.427   4.718  19.291  0.00  0.00    +0.000 A 
ATOM     22  N   UNK A   1       4.872   5.758  18.753  0.00  0.00    +0.000 NA
ATOM     23  C   UNK A   1       3.498   5.552  18.863  0.00  0.00    +0.000 A 
BRANCH  19  25
ATOM     24  C   UNK A   1       2.693   2.797  21.396  0.00  0.00    +0.000 C 
ATOM     25  C   UNK A   1       2.224   3.363  20.022  0.00  0.00    +0.000 C 
ATOM     26  C   UNK A   1       2.086   2.138  19.085  0.00  0.00    +0.000 C 
ATOM     27  C   UNK A   1       0.844   3.985  20.228  0.00  0.00    +0.000 C 
ENDBRANCH  19  25
ENDBRANCH   1  23
TORSDOF 3
ENDMDL
MODEL 6
REMARK VINA RESULT:      -7.3      6.328      8.693
REMARK  Name = 
REMARK  6 active torsions:
REMARK  status: ('A' for Active; 'I' for Inactive)
REMARK    1  A    between atoms: C_1  and  C_2
REMARK    2  A    between atoms: C_2  and  C_3
REMARK    3  A    between atoms: C_2  and  C_4
REMARK    4  A    between atoms: C_2  and  C_5
REMARK    5  A    between atoms: C_9  and  C_10
REMARK    6  A    between atoms: CB_16  and  CG_17
REMARK                            x       y       z     vdW  Elec       q    Type
REMARK                         _______ _______ _______ _____ _____    ______ ____
ROOT
ATOM      1  C   UNK A   1       0.337  11.537  18.738  0.00  0.00    +0.000 C 
ATOM      2  C   UNK A   1       0.927  10.346  19.050  0.00  0.00    +0.000 A 
ATOM      3  N   UNK A   1       0.512   9.629  20.151  0.00  0.00    +0.000 N 
ATOM      4  C   PHE A   2       0.890   8.373  20.512  0.00  0.00    +0.000 A 
ATOM      5  O   PHE A   2       0.457   7.853  21.536  0.00  0.00    +0.000 OA
ATOM      6  CA  PHE A   2       1.849   7.683  19.581  0.00  0.00    +0.000 A 
ATOM      7  CB  PHE A   2       2.193   6.421  19.906  0.00  0.00    +0.000 C 
ATOM      8  N   PHE A   2       2.299   8.372  18.475  0.00  0.00    +0.000 N 
ATOM      9  C   UNK A   1       1.955   9.678  18.151  0.00  0.00    +0.000 A 
ATOM     10  O   UNK A   1       2.387  10.219  17.139  0.00  0.00    +0.000 OA
ATOM     11  H   UNK A   1      -0.218  10.026  20.726  0.00  0.00    +0.000 HD
ATOM     12  H   PHE A   2       2.901   7.891  17.815  0.00  0.00    +0.000 HD
ENDROOT
BRANCH   7  13
ATOM     13  CG  PHE A   2       3.099   5.503  19.206  0.00  0.00    +0.000 A 
ATOM     14  CD1 PHE A   2       2.615   4.713  18.157  0.00  0.00    +0.000 A 
ATOM     15  CE1 PHE A   2       3.478   3.880  17.440  0.00  0.00    +0.000 A 
ATOM     16  CZ  PHE A   2       4.834   3.840  17.759  0.00  0.00    +0.000 A 
ATOM     17  CE2 PHE A   2       5.330   4.643  18.785  0.00  0.00    +0.000 A 
ATOM     18  CD2 PHE A   2       4.466   5.475  19.505  0.00  0.00    +0.000 A 
ENDBRANCH   7  13
BRANCH   1  23
ATOM     19  C   UNK A   1      -2.330  11.655  18.829  0.00  0.00    +0.000 A 
ATOM     20  O   UNK A   1      -3.093  12.129  19.889  0.00  0.00    +0.000 OA
ATOM     21  C   UNK A   1      -2.227  12.630  20.788  0.00  0.00    +0.000 A 
ATOM     22  N   UNK A   1      -0.984  12.507  20.444  0.00  0.00    +0.000 NA
ATOM     23  C   UNK A   1      -0.997  11.887  19.195  0.00  0.00    +0.000 A 
BRANCH  19  25
ATOM     24  C   UNK A   1      -3.345   9.555  17.920  0.00  0.00    +0.000 C 
ATOM     25  C   UNK A   1      -3.240  11.100  17.744  0.00  0.00    +0.000 C 
ATOM     26  C   UNK A   1      -2.622  11.325  16.342  0.00  0.00    +0.000 C 
ATOM     27  C   UNK A   1      -4.660  11.661  17.752  0.00  0.00    +0.000 C 
ENDBRANCH  19  25
ENDBRANCH   1  23
TORSDOF 3
ENDMDL
MODEL 7
REMARK VINA RESULT:      -7.3      5.348      6.730
REMARK  Name = 
REMARK  6 active torsions:
REMARK  status: ('A' for Active; 'I' for Inactive)
REMARK    1  A    between atoms: C_1  and  C_2
REMARK    2  A    between atoms: C_2  and  C_3
REMARK    3  A    between atoms: C_2  and  C_4
REMARK    4  A    between atoms: C_2  and  C_5
REMARK    5  A    between atoms: C_9  and  C_10
REMARK    6  A    between atoms: CB_16  and  CG_17
REMARK                            x       y       z     vdW  Elec       q    Type
REMARK                         _______ _______ _______ _____ _____    ______ ____
ROOT
ATOM      1  C   UNK A   1       2.690   6.543  18.225  0.00  0.00    +0.000 C 
ATOM      2  C   UNK A   1       2.086   7.582  18.871  0.00  0.00    +0.000 A 
ATOM      3  N   UNK A   1       1.795   7.493  20.215  0.00  0.00    +0.000 N 
ATOM      4  C   PHE A   2       1.334   8.480  21.030  0.00  0.00    +0.000 A 
ATOM      5  O   PHE A   2       1.095   8.262  22.214  0.00  0.00    +0.000 OA
ATOM      6  CA  PHE A   2       1.154   9.829  20.389  0.00  0.00    +0.000 A 
ATOM      7  CB  PHE A   2       0.743  10.825  21.200  0.00  0.00    +0.000 C 
ATOM      8  N   PHE A   2       1.422   9.957  19.043  0.00  0.00    +0.000 N 
ATOM      9  C   UNK A   1       1.830   8.926  18.208  0.00  0.00    +0.000 A 
ATOM     10  O   UNK A   1       2.062   9.122  17.019  0.00  0.00    +0.000 OA
ATOM     11  H   UNK A   1       2.019   6.630  20.691  0.00  0.00    +0.000 HD
ATOM     12  H   PHE A   2       1.355  10.877  18.620  0.00  0.00    +0.000 HD
ENDROOT
BRANCH   7  13
ATOM     13  CG  PHE A   2       0.477  12.231  20.872  0.00  0.00    +0.000 A 
ATOM     14  CD1 PHE A   2      -0.843  12.680  20.758  0.00  0.00    +0.000 A 
ATOM     15  CE1 PHE A   2      -1.113  14.029  20.507  0.00  0.00    +0.000 A 
ATOM     16  CZ  PHE A   2      -0.065  14.939  20.382  0.00  0.00    +0.000 A 
ATOM     17  CE2 PHE A   2       1.252  14.504  20.521  0.00  0.00    +0.000 A 
ATOM     18  CD2 PHE A   2       1.523  13.154  20.768  0.00  0.00    +0.000 A 
ENDBRANCH   7  13
BRANCH   1  23
ATOM     19  C   UNK A   1       3.268   4.304  19.561  0.00  0.00    +0.000 A 
ATOM     20  O   UNK A   1       4.541   3.804  19.808  0.00  0.00    +0.000 OA
ATOM     21  C   UNK A   1       5.407   4.729  19.360  0.00  0.00    +0.000 A 
ATOM     22  N   UNK A   1       4.841   5.763  18.823  0.00  0.00    +0.000 NA
ATOM     23  C   UNK A   1       3.469   5.538  18.926  0.00  0.00    +0.000 A 
BRANCH  19  25
ATOM     24  C   UNK A   1       0.881   4.097  20.284  0.00  0.00    +0.000 C 
ATOM     25  C   UNK A   1       2.220   3.328  20.073  0.00  0.00    +0.000 C 
ATOM     26  C   UNK A   1       2.616   2.779  21.465  0.00  0.00    +0.000 C 
ATOM     27  C   UNK A   1       1.932   2.152  19.142  0.00  0.00    +0.000 C 
ENDBRANCH  19  25
ENDBRANCH   1  23
TORSDOF 3
ENDMDL
MODEL 8
REMARK VINA RESULT:      -7.2      4.926      7.197
REMARK  Name = 
REMARK  6 active torsions:
REMARK  status: ('A' for Active; 'I' for Inactive)
REMARK    1  A    between atoms: C_1  and  C_2
REMARK    2  A    between atoms: C_2  and  C_3
REMARK    3  A    between atoms: C_2  and  C_4
REMARK    4  A    between atoms: C_2  and  C_5
REMARK    5  A    between atoms: C_9  and  C_10
REMARK    6  A    between atoms: CB_16  and  CG_17
REMARK                            x       y       z     vdW  Elec       q    Type
REMARK                         _______ _______ _______ _____ _____    ______ ____
ROOT
ATOM      1  C   UNK A   1       3.201   7.527  17.318  0.00  0.00    +0.000 C 
ATOM      2  C   UNK A   1       2.384   8.036  18.286  0.00  0.00    +0.000 A 
ATOM      3  N   UNK A   1       2.087   7.293  19.408  0.00  0.00    +0.000 N 
ATOM      4  C   PHE A   2       1.417   7.704  20.519  0.00  0.00    +0.000 A 
ATOM      5  O   PHE A   2       1.201   6.931  21.448  0.00  0.00    +0.000 OA
ATOM      6  CA  PHE A   2       0.980   9.143  20.528  0.00  0.00    +0.000 A 
ATOM      7  CB  PHE A   2       0.357   9.571  21.644  0.00  0.00    +0.000 C 
ATOM      8  N   PHE A   2       1.246   9.915  19.418  0.00  0.00    +0.000 N 
ATOM      9  C   UNK A   1       1.874   9.468  18.264  0.00  0.00    +0.000 A 
ATOM     10  O   UNK A   1       2.088  10.222  17.320  0.00  0.00    +0.000 OA
ATOM     11  H   UNK A   1       2.471   6.361  19.474  0.00  0.00    +0.000 HD
ATOM     12  H   PHE A   2       1.003  10.900  19.442  0.00  0.00    +0.000 HD
ENDROOT
BRANCH   7  13
ATOM     13  CG  PHE A   2      -0.182  10.902  21.947  0.00  0.00    +0.000 A 
ATOM     14  CD1 PHE A   2      -1.225  11.037  22.871  0.00  0.00    +0.000 A 
ATOM     15  CE1 PHE A   2      -1.707  12.302  23.216  0.00  0.00    +0.000 A 
ATOM     16  CZ  PHE A   2      -1.142  13.443  22.648  0.00  0.00    +0.000 A 
ATOM     17  CE2 PHE A   2      -0.085  13.319  21.747  0.00  0.00    +0.000 A 
ATOM     18  CD2 PHE A   2       0.396  12.053  21.399  0.00  0.00    +0.000 A 
ENDBRANCH   7  13
BRANCH   1  23
ATOM     19  C   UNK A   1       4.144   5.095  17.890  0.00  0.00    +0.000 A 
ATOM     20  O   UNK A   1       5.465   4.681  17.776  0.00  0.00    +0.000 OA
ATOM     21  C   UNK A   1       6.179   5.773  17.452  0.00  0.00    +0.000 A 
ATOM     22  N   UNK A   1       5.466   6.846  17.313  0.00  0.00    +0.000 NA
ATOM     23  C   UNK A   1       4.153   6.463  17.583  0.00  0.00    +0.000 A 
BRANCH  19  25
ATOM     24  C   UNK A   1       1.836   4.141  17.715  0.00  0.00    +0.000 C 
ATOM     25  C   UNK A   1       3.266   3.920  18.294  0.00  0.00    +0.000 C 
ATOM     26  C   UNK A   1       3.096   3.865  19.832  0.00  0.00    +0.000 C 
ATOM     27  C   UNK A   1       3.755   2.559  17.802  0.00  0.00    +0.000 C 
ENDBRANCH  19  25
ENDBRANCH   1  23
TORSDOF 3
ENDMDL
MODEL 9
REMARK VINA RESULT:      -7.2      4.880      7.222
REMARK  Name = 
REMARK  6 active torsions:
REMARK  status: ('A' for Active; 'I' for Inactive)
REMARK    1  A    between atoms: C_1  and  C_2
REMARK    2  A    between atoms: C_2  and  C_3
REMARK    3  A    between atoms: C_2  and  C_4
REMARK    4  A    between atoms: C_2  and  C_5
REMARK    5  A    between atoms: C_9  and  C_10
REMARK    6  A    between atoms: CB_16  and  CG_17
REMARK                            x       y       z     vdW  Elec       q    Type
REMARK                         _______ _______ _______ _____ _____    ______ ____
ROOT
ATOM      1  C   UNK A   1       3.315   6.552  17.736  0.00  0.00    +0.000 C 
ATOM      2  C   UNK A   1       2.516   7.350  18.502  0.00  0.00    +0.000 A 
ATOM      3  N   UNK A   1       2.107   6.936  19.750  0.00  0.00    +0.000 N 
ATOM      4  C   PHE A   2       1.440   7.663  20.687  0.00  0.00    +0.000 A 
ATOM      5  O   PHE A   2       1.116   7.164  21.761  0.00  0.00    +0.000 OA
ATOM      6  CA  PHE A   2       1.143   9.091  20.320  0.00  0.00    +0.000 A 
ATOM      7  CB  PHE A   2       0.524   9.833  21.261  0.00  0.00    +0.000 C 
ATOM      8  N   PHE A   2       1.524   9.540  19.075  0.00  0.00    +0.000 N 
ATOM      9  C   UNK A   1       2.148   8.770  18.102  0.00  0.00    +0.000 A 
ATOM     10  O   UNK A   1       2.468   9.248  17.018  0.00  0.00    +0.000 OA
ATOM     11  H   UNK A   1       2.397   6.019  20.063  0.00  0.00    +0.000 HD
ATOM     12  H   PHE A   2       1.376  10.518  18.845  0.00  0.00    +0.000 HD
ENDROOT
BRANCH   7  13
ATOM     13  CG  PHE A   2       0.105  11.238  21.199  0.00  0.00    +0.000 A 
ATOM     14  CD1 PHE A   2      -1.209  11.587  21.529  0.00  0.00    +0.000 A 
ATOM     15  CE1 PHE A   2      -1.606  12.927  21.535  0.00  0.00    +0.000 A 
ATOM     16  CZ  PHE A   2      -0.689  13.928  21.223  0.00  0.00    +0.000 A 
ATOM     17  CE2 PHE A   2       0.629  13.591  20.919  0.00  0.00    +0.000 A 
ATOM     18  CD2 PHE A   2       1.027  12.250  20.909  0.00  0.00    +0.000 A 
ENDBRANCH   7  13
BRANCH   1  23
ATOM     19  C   UNK A   1       5.511   5.243  18.509  0.00  0.00    +0.000 A 
ATOM     20  O   UNK A   1       5.552   4.133  19.343  0.00  0.00    +0.000 OA
ATOM     21  C   UNK A   1       4.274   3.780  19.570  0.00  0.00    +0.000 A 
ATOM     22  N   UNK A   1       3.406   4.554  18.999  0.00  0.00    +0.000 NA
ATOM     23  C   UNK A   1       4.150   5.509  18.307  0.00  0.00    +0.000 A 
BRANCH  19  25
ATOM     24  C   UNK A   1       7.595   4.599  17.281  0.00  0.00    +0.000 C 
ATOM     25  C   UNK A   1       6.926   5.689  18.171  0.00  0.00    +0.000 C 
ATOM     26  C   UNK A   1       7.792   5.781  19.451  0.00  0.00    +0.000 C 
ATOM     27  C   UNK A   1       7.016   7.015  17.419  0.00  0.00    +0.000 C 
ENDBRANCH  19  25
ENDBRANCH   1  23
TORSDOF 3
ENDMDL
