MODEL 1
REMARK VINA RESULT:      -7.4      0.000      0.000
REMARK  Name = 
REMARK  9 active torsions:
REMARK  status: ('A' for Active; 'I' for Inactive)
REMARK    1  A    between atoms: C_1  and  C_2
REMARK    2  A    between atoms: C_3  and  C_4
REMARK    3  A    between atoms: N_6  and  N_7
REMARK    4  A    between atoms: N_7  and  C_16
REMARK    5  A    between atoms: C_8  and  C_10
REMARK    6  A    between atoms: C_16  and  C_17
REMARK    7  A    between atoms: C_16  and  C_18
REMARK    8  A    between atoms: C_16  and  C_19
REMARK    9  A    between atoms: C_25  and  C_26
REMARK                            x       y       z     vdW  Elec       q    Type
REMARK                         _______ _______ _______ _____ _____    ______ ____
ROOT
ATOM      1  C   UNL     1       0.787  10.639  20.186  0.00  0.00    +0.000 C 
ATOM      2  O   UNL     1       1.512  11.614  20.348  0.00  0.00    +0.000 OA
ATOM      3  N   UNL     1      -0.575  10.592  20.500  0.00  0.00    +0.000 N 
ATOM      4  H   UNL     1      -1.094   9.726  20.426  0.00  0.00    +0.000 HD
ENDROOT
BRANCH   1   7
ATOM      5  C   UNL     1       1.109   7.923  21.643  0.00  0.00    +0.000 C 
ATOM      6  C   UNL     1       1.540   8.166  20.223  0.00  0.00    +0.000 A 
ATOM      7  C   UNL     1       1.355   9.392  19.529  0.00  0.00    +0.000 A 
ATOM      8  C   UNL     1       1.821   9.493  18.195  0.00  0.00    +0.000 A 
ATOM      9  C   UNL     1       2.417   8.398  17.538  0.00  0.00    +0.000 A 
ATOM     10  C   UNL     1       2.568   7.215  18.228  0.00  0.00    +0.000 A 
ATOM     11  C   UNL     1       2.169   7.101  19.545  0.00  0.00    +0.000 A 
ATOM     12  C   UNL     1       2.584   5.773  20.061  0.00  0.00    +0.000 C 
ATOM     13  C   UNL     1       3.075   5.098  18.772  0.00  0.00    +0.000 C 
ATOM     14  C   UNL     1       2.175   3.936  18.364  0.00  0.00    +0.000 C 
ATOM     15  O   UNL     1       3.137   6.084  17.706  0.00  0.00    +0.000 OA
ENDBRANCH   1   7
BRANCH   3  16
ATOM     16  N   UNL     1      -1.272  11.717  21.095  0.00  0.00    +0.000 N 
ATOM     17  C   UNL     1      -1.354  11.740  22.521  0.00  0.00    +0.000 C 
ATOM     18  O   UNL     1      -0.828  10.839  23.185  0.00  0.00    +0.000 OA
BRANCH  17  19
ATOM     19  C   UNL     1      -2.060  12.837  23.341  0.00  0.00    +0.000 A 
ATOM     20  C   UNL     1      -3.347  12.800  23.902  0.00  0.00    +0.000 A 
ATOM     21  C   UNL     1      -3.881  13.807  24.716  0.00  0.00    +0.000 A 
ATOM     22  C   UNL     1      -3.129  14.928  24.987  0.00  0.00    +0.000 A 
ATOM     23  C   UNL     1      -1.855  15.036  24.440  0.00  0.00    +0.000 A 
ATOM     24  C   UNL     1      -1.326  14.004  23.634  0.00  0.00    +0.000 A 
ENDBRANCH  17  19
BRANCH  16  25
ATOM     25  C   UNL     1      -2.041  12.517  20.092  0.00  0.00    +0.000 C 
ATOM     26  C   UNL     1      -3.512  12.860  20.475  0.00  0.00    +0.000 C 
ATOM     27  C   UNL     1      -1.388  13.926  19.969  0.00  0.00    +0.000 C 
ATOM     28  C   UNL     1      -2.217  11.680  18.787  0.00  0.00    +0.000 C 
ENDBRANCH  16  25
ENDBRANCH   3  16
TORSDOF 4
ENDMDL
MODEL 2
REMARK VINA RESULT:      -7.3      2.777      9.499
REMARK  Name = 
REMARK  9 active torsions:
REMARK  status: ('A' for Active; 'I' for Inactive)
REMARK    1  A    between atoms: C_1  and  C_2
REMARK    2  A    between atoms: C_3  and  C_4
REMARK    3  A    between atoms: N_6  and  N_7
REMARK    4  A    between atoms: N_7  and  C_16
REMARK    5  A    between atoms: C_8  and  C_10
REMARK    6  A    between atoms: C_16  and  C_17
REMARK    7  A    between atoms: C_16  and  C_18
REMARK    8  A    between atoms: C_16  and  C_19
REMARK    9  A    between atoms: C_25  and  C_26
REMARK                            x       y       z     vdW  Elec       q    Type
REMARK                         _______ _______ _______ _____ _____    ______ ____
ROOT
ATOM      1  C   UNL     1       1.709   7.776  19.259  0.00  0.00    +0.000 C 
ATOM      2  O   UNL     1       1.510   7.949  18.060  0.00  0.00    +0.000 OA
ATOM      3  N   UNL     1       2.554   6.801  19.797  0.00  0.00    +0.000 N 
ATOM      4  H   UNL     1       2.601   6.653  20.798  0.00  0.00    +0.000 HD
ENDROOT
BRANCH   1   7
ATOM      5  C   UNL     1       0.099  10.300  18.460  0.00  0.00    +0.000 C 
ATOM      6  C   UNL     1       0.369   9.896  19.882  0.00  0.00    +0.000 A 
ATOM      7  C   UNL     1       1.065   8.718  20.262  0.00  0.00    +0.000 A 
ATOM      8  C   UNL     1       1.264   8.462  21.641  0.00  0.00    +0.000 A 
ATOM      9  C   UNL     1       0.752   9.323  22.632  0.00  0.00    +0.000 A 
ATOM     10  C   UNL     1       0.064  10.450  22.237  0.00  0.00    +0.000 A 
ATOM     11  C   UNL     1      -0.102  10.752  20.900  0.00  0.00    +0.000 A 
ATOM     12  C   UNL     1      -0.748  12.083  20.784  0.00  0.00    +0.000 C 
ATOM     13  C   UNL     1      -1.103  12.365  22.252  0.00  0.00    +0.000 C 
ATOM     14  C   UNL     1      -2.613  12.374  22.477  0.00  0.00    +0.000 C 
ATOM     15  O   UNL     1      -0.475  11.367  23.100  0.00  0.00    +0.000 OA
ENDBRANCH   1   7
BRANCH   3  16
ATOM     16  N   UNL     1       3.272   5.853  18.967  0.00  0.00    +0.000 N 
ATOM     17  C   UNL     1       4.265   6.389  18.091  0.00  0.00    +0.000 C 
ATOM     18  O   UNL     1       4.488   7.606  18.082  0.00  0.00    +0.000 OA
BRANCH  17  19
ATOM     19  C   UNL     1       5.125   5.554  17.123  0.00  0.00    +0.000 A 
ATOM     20  C   UNL     1       4.784   5.103  15.838  0.00  0.00    +0.000 A 
ATOM     21  C   UNL     1       5.661   4.425  14.983  0.00  0.00    +0.000 A 
ATOM     22  C   UNL     1       6.943   4.149  15.407  0.00  0.00    +0.000 A 
ATOM     23  C   UNL     1       7.332   4.548  16.681  0.00  0.00    +0.000 A 
ATOM     24  C   UNL     1       6.440   5.244  17.524  0.00  0.00    +0.000 A 
ENDBRANCH  17  19
BRANCH  16  25
ATOM     25  C   UNL     1       2.644   4.495  18.962  0.00  0.00    +0.000 C 
ATOM     26  C   UNL     1       1.622   4.212  20.103  0.00  0.00    +0.000 C 
ATOM     27  C   UNL     1       1.767   4.355  17.682  0.00  0.00    +0.000 C 
ATOM     28  C   UNL     1       3.741   3.416  19.214  0.00  0.00    +0.000 C 
ENDBRANCH  16  25
ENDBRANCH   3  16
TORSDOF 4
ENDMDL
MODEL 3
REMARK VINA RESULT:      -7.1      2.839      9.561
REMARK  Name = 
REMARK  9 active torsions:
REMARK  status: ('A' for Active; 'I' for Inactive)
REMARK    1  A    between atoms: C_1  and  C_2
REMARK    2  A    between atoms: C_3  and  C_4
REMARK    3  A    between atoms: N_6  and  N_7
REMARK    4  A    between atoms: N_7  and  C_16
REMARK    5  A    between atoms: C_8  and  C_10
REMARK    6  A    between atoms: C_16  and  C_17
REMARK    7  A    between atoms: C_16  and  C_18
REMARK    8  A    between atoms: C_16  and  C_19
REMARK    9  A    between atoms: C_25  and  C_26
REMARK                            x       y       z     vdW  Elec       q    Type
REMARK                         _______ _______ _______ _____ _____    ______ ____
ROOT
ATOM      1  C   UNL     1       1.829   7.825  19.162  0.00  0.00    +0.000 C 
ATOM      2  O   UNL     1       1.541   7.885  17.971  0.00  0.00    +0.000 OA
ATOM      3  N   UNL     1       2.799   6.980  19.710  0.00  0.00    +0.000 N 
ATOM      4  H   UNL     1       2.922   6.914  20.712  0.00  0.00    +0.000 HD
ENDROOT
BRANCH   1   7
ATOM      5  C   UNL     1       1.334  10.827  18.578  0.00  0.00    +0.000 C 
ATOM      6  C   UNL     1       0.977  10.159  19.876  0.00  0.00    +0.000 A 
ATOM      7  C   UNL     1       1.155   8.775  20.139  0.00  0.00    +0.000 A 
ATOM      8  C   UNL     1       0.788   8.273  21.412  0.00  0.00    +0.000 A 
ATOM      9  C   UNL     1       0.216   9.105  22.395  0.00  0.00    +0.000 A 
ATOM     10  C   UNL     1       0.037  10.441  22.107  0.00  0.00    +0.000 A 
ATOM     11  C   UNL     1       0.431  10.969  20.894  0.00  0.00    +0.000 A 
ATOM     12  C   UNL     1       0.247  12.440  20.926  0.00  0.00    +0.000 C 
ATOM     13  C   UNL     1      -0.504  12.613  22.255  0.00  0.00    +0.000 C 
ATOM     14  C   UNL     1      -1.937  13.092  22.036  0.00  0.00    +0.000 C 
ATOM     15  O   UNL     1      -0.500  11.352  22.977  0.00  0.00    +0.000 OA
ENDBRANCH   1   7
BRANCH   3  16
ATOM     16  N   UNL     1       3.557   6.044  18.901  0.00  0.00    +0.000 N 
ATOM     17  C   UNL     1       4.507   6.604  17.992  0.00  0.00    +0.000 C 
ATOM     18  O   UNL     1       4.663   7.829  17.939  0.00  0.00    +0.000 OA
BRANCH  17  19
ATOM     19  C   UNL     1       5.399   5.783  17.041  0.00  0.00    +0.000 A 
ATOM     20  C   UNL     1       6.639   5.188  17.321  0.00  0.00    +0.000 A 
ATOM     21  C   UNL     1       7.344   4.377  16.423  0.00  0.00    +0.000 A 
ATOM     22  C   UNL     1       6.825   4.144  15.168  0.00  0.00    +0.000 A 
ATOM     23  C   UNL     1       5.611   4.728  14.822  0.00  0.00    +0.000 A 
ATOM     24  C   UNL     1       4.906   5.530  15.745  0.00  0.00    +0.000 A 
ENDBRANCH  17  19
BRANCH  16  25
ATOM     25  C   UNL     1       3.005   4.655  18.952  0.00  0.00    +0.000 C 
ATOM     26  C   UNL     1       1.997   4.362  20.103  0.00  0.00    +0.000 C 
ATOM     27  C   UNL     1       2.140   4.414  17.678  0.00  0.00    +0.000 C 
ATOM     28  C   UNL     1       4.159   3.649  19.248  0.00  0.00    +0.000 C 
ENDBRANCH  16  25
ENDBRANCH   3  16
TORSDOF 4
ENDMDL
MODEL 4
REMARK VINA RESULT:      -7.0      1.401      2.499
REMARK  Name = 
REMARK  9 active torsions:
REMARK  status: ('A' for Active; 'I' for Inactive)
REMARK    1  A    between atoms: C_1  and  C_2
REMARK    2  A    between atoms: C_3  and  C_4
REMARK    3  A    between atoms: N_6  and  N_7
REMARK    4  A    between atoms: N_7  and  C_16
REMARK    5  A    between atoms: C_8  and  C_10
REMARK    6  A    between atoms: C_16  and  C_17
REMARK    7  A    between atoms: C_16  and  C_18
REMARK    8  A    between atoms: C_16  and  C_19
REMARK    9  A    between atoms: C_25  and  C_26
REMARK                            x       y       z     vdW  Elec       q    Type
REMARK                         _______ _______ _______ _____ _____    ______ ____
ROOT
ATOM      1  C   UNL     1       0.213   9.849  20.357  0.00  0.00    +0.000 C 
ATOM      2  O   UNL     1      -0.909   9.876  19.860  0.00  0.00    +0.000 OA
ATOM      3  N   UNL     1       0.710  10.792  21.262  0.00  0.00    +0.000 N 
ATOM      4  H   UNL     1       1.676  10.761  21.563  0.00  0.00    +0.000 HD
ENDROOT
BRANCH   1   7
ATOM      5  C   UNL     1       1.987   9.687  17.822  0.00  0.00    +0.000 C 
ATOM      6  C   UNL     1       1.908   8.600  18.858  0.00  0.00    +0.000 A 
ATOM      7  C   UNL     1       1.135   8.683  20.046  0.00  0.00    +0.000 A 
ATOM      8  C   UNL     1       1.138   7.579  20.935  0.00  0.00    +0.000 A 
ATOM      9  C   UNL     1       1.919   6.433  20.685  0.00  0.00    +0.000 A 
ATOM     10  C   UNL     1       2.674   6.387  19.533  0.00  0.00    +0.000 A 
ATOM     11  C   UNL     1       2.653   7.425  18.623  0.00  0.00    +0.000 A 
ATOM     12  C   UNL     1       3.441   7.036  17.428  0.00  0.00    +0.000 C 
ATOM     13  C   UNL     1       4.071   5.720  17.909  0.00  0.00    +0.000 C 
ATOM     14  C   UNL     1       5.584   5.842  18.064  0.00  0.00    +0.000 C 
ATOM     15  O   UNL     1       3.467   5.330  19.172  0.00  0.00    +0.000 OA
ENDBRANCH   1   7
BRANCH   3  16
ATOM     16  N   UNL     1      -0.066  11.941  21.689  0.00  0.00    +0.000 N 
ATOM     17  C   UNL     1      -1.020  11.722  22.730  0.00  0.00    +0.000 C 
ATOM     18  O   UNL     1      -1.138  10.598  23.233  0.00  0.00    +0.000 OA
BRANCH  17  19
ATOM     19  C   UNL     1      -1.947  12.805  23.313  0.00  0.00    +0.000 A 
ATOM     20  C   UNL     1      -1.581  14.029  23.897  0.00  0.00    +0.000 A 
ATOM     21  C   UNL     1      -2.493  15.003  24.320  0.00  0.00    +0.000 A 
ATOM     22  C   UNL     1      -3.845  14.771  24.186  0.00  0.00    +0.000 A 
ATOM     23  C   UNL     1      -4.270  13.566  23.637  0.00  0.00    +0.000 A 
ATOM     24  C   UNL     1      -3.337  12.600  23.202  0.00  0.00    +0.000 A 
ENDBRANCH  17  19
BRANCH  16  25
ATOM     25  C   UNL     1       0.065  13.105  20.759  0.00  0.00    +0.000 C 
ATOM     26  C   UNL     1       0.965  12.882  19.507  0.00  0.00    +0.000 C 
ATOM     27  C   UNL     1      -1.328  13.396  20.124  0.00  0.00    +0.000 C 
ATOM     28  C   UNL     1       0.789  14.276  21.493  0.00  0.00    +0.000 C 
ENDBRANCH  16  25
ENDBRANCH   3  16
TORSDOF 4
ENDMDL
MODEL 5
REMARK VINA RESULT:      -7.0      1.226      2.009
REMARK  Name = 
REMARK  9 active torsions:
REMARK  status: ('A' for Active; 'I' for Inactive)
REMARK    1  A    between atoms: C_1  and  C_2
REMARK    2  A    between atoms: C_3  and  C_4
REMARK    3  A    between atoms: N_6  and  N_7
REMARK    4  A    between atoms: N_7  and  C_16
REMARK    5  A    between atoms: C_8  and  C_10
REMARK    6  A    between atoms: C_16  and  C_17
REMARK    7  A    between atoms: C_16  and  C_18
REMARK    8  A    between atoms: C_16  and  C_19
REMARK    9  A    between atoms: C_25  and  C_26
REMARK                            x       y       z     vdW  Elec       q    Type
REMARK                         _______ _______ _______ _____ _____    ______ ____
ROOT
ATOM      1  C   UNL     1       1.131   9.179  20.922  0.00  0.00    +0.000 C 
ATOM      2  O   UNL     1       1.913   9.920  21.509  0.00  0.00    +0.000 OA
ATOM      3  N   UNL     1      -0.198   9.494  20.622  0.00  0.00    +0.000 N 
ATOM      4  H   UNL     1      -0.816   8.801  20.218  0.00  0.00    +0.000 HD
ENDROOT
BRANCH   1   7
ATOM      5  C   UNL     1       2.539   8.804  18.188  0.00  0.00    +0.000 C 
ATOM      6  C   UNL     1       2.226   7.674  19.129  0.00  0.00    +0.000 A 
ATOM      7  C   UNL     1       1.624   7.838  20.404  0.00  0.00    +0.000 A 
ATOM      8  C   UNL     1       1.369   6.685  21.188  0.00  0.00    +0.000 A 
ATOM      9  C   UNL     1       1.740   5.399  20.748  0.00  0.00    +0.000 A 
ATOM     10  C   UNL     1       2.340   5.270  19.514  0.00  0.00    +0.000 A 
ATOM     11  C   UNL     1       2.554   6.369  18.706  0.00  0.00    +0.000 A 
ATOM     12  C   UNL     1       3.078   5.909  17.396  0.00  0.00    +0.000 C 
ATOM     13  C   UNL     1       3.318   4.419  17.683  0.00  0.00    +0.000 C 
ATOM     14  C   UNL     1       4.804   4.073  17.665  0.00  0.00    +0.000 C 
ATOM     15  O   UNL     1       2.738   4.078  18.971  0.00  0.00    +0.000 OA
ENDBRANCH   1   7
BRANCH   3  16
ATOM     16  N   UNL     1      -0.804  10.753  21.014  0.00  0.00    +0.000 N 
ATOM     17  C   UNL     1      -1.188  10.882  22.384  0.00  0.00    +0.000 C 
ATOM     18  O   UNL     1      -0.980   9.952  23.174  0.00  0.00    +0.000 OA
BRANCH  17  19
ATOM     19  C   UNL     1      -1.856  12.129  22.994  0.00  0.00    +0.000 A 
ATOM     20  C   UNL     1      -3.172  12.257  23.466  0.00  0.00    +0.000 A 
ATOM     21  C   UNL     1      -3.675  13.404  24.094  0.00  0.00    +0.000 A 
ATOM     22  C   UNL     1      -2.858  14.501  24.258  0.00  0.00    +0.000 A 
ATOM     23  C   UNL     1      -1.550  14.444  23.788  0.00  0.00    +0.000 A 
ATOM     24  C   UNL     1      -1.054  13.275  23.171  0.00  0.00    +0.000 A 
ENDBRANCH  17  19
BRANCH  16  25
ATOM     25  C   UNL     1      -1.188  11.599  19.843  0.00  0.00    +0.000 C 
ATOM     26  C   UNL     1      -2.566  12.320  19.943  0.00  0.00    +0.000 C 
ATOM     27  C   UNL     1      -0.191  12.792  19.739  0.00  0.00    +0.000 C 
ATOM     28  C   UNL     1      -1.371  10.693  18.586  0.00  0.00    +0.000 C 
ENDBRANCH  16  25
ENDBRANCH   3  16
TORSDOF 4
ENDMDL
MODEL 6
REMARK VINA RESULT:      -6.9      1.258      2.376
REMARK  Name = 
REMARK  9 active torsions:
REMARK  status: ('A' for Active; 'I' for Inactive)
REMARK    1  A    between atoms: C_1  and  C_2
REMARK    2  A    between atoms: C_3  and  C_4
REMARK    3  A    between atoms: N_6  and  N_7
REMARK    4  A    between atoms: N_7  and  C_16
REMARK    5  A    between atoms: C_8  and  C_10
REMARK    6  A    between atoms: C_16  and  C_17
REMARK    7  A    between atoms: C_16  and  C_18
REMARK    8  A    between atoms: C_16  and  C_19
REMARK    9  A    between atoms: C_25  and  C_26
REMARK                            x       y       z     vdW  Elec       q    Type
REMARK                         _______ _______ _______ _____ _____    ______ ____
ROOT
ATOM      1  C   UNL     1       1.172   9.182  21.075  0.00  0.00    +0.000 C 
ATOM      2  O   UNL     1       1.943   9.814  21.790  0.00  0.00    +0.000 OA
ATOM      3  N   UNL     1      -0.093   9.624  20.674  0.00  0.00    +0.000 N 
ATOM      4  H   UNL     1      -0.715   9.013  20.159  0.00  0.00    +0.000 HD
ENDROOT
BRANCH   1   7
ATOM      5  C   UNL     1       2.491   8.858  18.290  0.00  0.00    +0.000 C 
ATOM      6  C   UNL     1       2.177   7.708  19.205  0.00  0.00    +0.000 A 
ATOM      7  C   UNL     1       1.616   7.847  20.503  0.00  0.00    +0.000 A 
ATOM      8  C   UNL     1       1.356   6.677  21.259  0.00  0.00    +0.000 A 
ATOM      9  C   UNL     1       1.681   5.396  20.769  0.00  0.00    +0.000 A 
ATOM     10  C   UNL     1       2.242   5.290  19.515  0.00  0.00    +0.000 A 
ATOM     11  C   UNL     1       2.460   6.408  18.734  0.00  0.00    +0.000 A 
ATOM     12  C   UNL     1       2.934   5.977  17.396  0.00  0.00    +0.000 C 
ATOM     13  C   UNL     1       3.145   4.473  17.631  0.00  0.00    +0.000 C 
ATOM     14  C   UNL     1       4.621   4.092  17.558  0.00  0.00    +0.000 C 
ATOM     15  O   UNL     1       2.595   4.106  18.924  0.00  0.00    +0.000 OA
ENDBRANCH   1   7
BRANCH   3  16
ATOM     16  N   UNL     1      -0.642  10.896  21.104  0.00  0.00    +0.000 N 
ATOM     17  C   UNL     1      -1.107  10.972  22.453  0.00  0.00    +0.000 C 
ATOM     18  O   UNL     1      -1.013   9.987  23.195  0.00  0.00    +0.000 OA
BRANCH  17  19
ATOM     19  C   UNL     1      -1.734  12.224  23.095  0.00  0.00    +0.000 A 
ATOM     20  C   UNL     1      -1.156  13.496  23.246  0.00  0.00    +0.000 A 
ATOM     21  C   UNL     1      -1.830  14.610  23.760  0.00  0.00    +0.000 A 
ATOM     22  C   UNL     1      -3.139  14.481  24.171  0.00  0.00    +0.000 A 
ATOM     23  C   UNL     1      -3.758  13.240  24.071  0.00  0.00    +0.000 A 
ATOM     24  C   UNL     1      -3.069  12.130  23.536  0.00  0.00    +0.000 A 
ENDBRANCH  17  19
BRANCH  16  25
ATOM     25  C   UNL     1      -0.893  11.832  19.965  0.00  0.00    +0.000 C 
ATOM     26  C   UNL     1      -0.667  11.249  18.539  0.00  0.00    +0.000 C 
ATOM     27  C   UNL     1      -2.407  12.198  19.943  0.00  0.00    +0.000 C 
ATOM     28  C   UNL     1       0.137  13.003  20.020  0.00  0.00    +0.000 C 
ENDBRANCH  16  25
ENDBRANCH   3  16
TORSDOF 4
ENDMDL
MODEL 7
REMARK VINA RESULT:      -6.8      0.962      1.985
REMARK  Name = 
REMARK  9 active torsions:
REMARK  status: ('A' for Active; 'I' for Inactive)
REMARK    1  A    between atoms: C_1  and  C_2
REMARK    2  A    between atoms: C_3  and  C_4
REMARK    3  A    between atoms: N_6  and  N_7
REMARK    4  A    between atoms: N_7  and  C_16
REMARK    5  A    between atoms: C_8  and  C_10
REMARK    6  A    between atoms: C_16  and  C_17
REMARK    7  A    between atoms: C_16  and  C_18
REMARK    8  A    between atoms: C_16  and  C_19
REMARK    9  A    between atoms: C_25  and  C_26
REMARK                            x       y       z     vdW  Elec       q    Type
REMARK                         _______ _______ _______ _____ _____    ______ ____
ROOT
ATOM      1  C   UNL     1       0.629  10.569  20.887  0.00  0.00    +0.000 C 
ATOM      2  O   UNL     1       1.357  11.481  21.268  0.00  0.00    +0.000 OA
ATOM      3  N   UNL     1      -0.763  10.644  20.788  0.00  0.00    +0.000 N 
ATOM      4  H   UNL     1      -1.310   9.824  20.554  0.00  0.00    +0.000 HD
ENDROOT
BRANCH   1   7
ATOM      5  C   UNL     1       1.948  10.211  18.107  0.00  0.00    +0.000 C 
ATOM      6  C   UNL     1       1.815   9.106  19.117  0.00  0.00    +0.000 A 
ATOM      7  C   UNL     1       1.255   9.268  20.412  0.00  0.00    +0.000 A 
ATOM      8  C   UNL     1       1.176   8.139  21.264  0.00  0.00    +0.000 A 
ATOM      9  C   UNL     1       1.678   6.882  20.870  0.00  0.00    +0.000 A 
ATOM     10  C   UNL     1       2.233   6.756  19.615  0.00  0.00    +0.000 A 
ATOM     11  C   UNL     1       2.278   7.826  18.744  0.00  0.00    +0.000 A 
ATOM     12  C   UNL     1       2.793   7.359  17.433  0.00  0.00    +0.000 C 
ATOM     13  C   UNL     1       3.222   5.926  17.781  0.00  0.00    +0.000 C 
ATOM     14  C   UNL     1       4.737   5.755  17.704  0.00  0.00    +0.000 C 
ATOM     15  O   UNL     1       2.746   5.590  19.112  0.00  0.00    +0.000 OA
ENDBRANCH   1   7
BRANCH   3  16
ATOM     16  N   UNL     1      -1.505  11.832  21.165  0.00  0.00    +0.000 N 
ATOM     17  C   UNL     1      -1.943  11.912  22.523  0.00  0.00    +0.000 C 
ATOM     18  O   UNL     1      -1.668  11.002  23.315  0.00  0.00    +0.000 OA
BRANCH  17  19
ATOM     19  C   UNL     1      -2.752  13.081  23.116  0.00  0.00    +0.000 A 
ATOM     20  C   UNL     1      -4.147  13.192  23.232  0.00  0.00    +0.000 A 
ATOM     21  C   UNL     1      -4.802  14.252  23.871  0.00  0.00    +0.000 A 
ATOM     22  C   UNL     1      -4.060  15.279  24.414  0.00  0.00    +0.000 A 
ATOM     23  C   UNL     1      -2.674  15.238  24.309  0.00  0.00    +0.000 A 
ATOM     24  C   UNL     1      -2.029  14.154  23.674  0.00  0.00    +0.000 A 
ENDBRANCH  17  19
BRANCH  16  25
ATOM     25  C   UNL     1      -1.935  12.645  19.985  0.00  0.00    +0.000 C 
ATOM     26  C   UNL     1      -1.395  12.178  18.601  0.00  0.00    +0.000 C 
ATOM     27  C   UNL     1      -3.476  12.498  19.813  0.00  0.00    +0.000 C 
ATOM     28  C   UNL     1      -1.351  14.086  20.108  0.00  0.00    +0.000 C 
ENDBRANCH  16  25
ENDBRANCH   3  16
TORSDOF 4
ENDMDL
MODEL 8
REMARK VINA RESULT:      -6.8      1.188      1.817
REMARK  Name = 
REMARK  9 active torsions:
REMARK  status: ('A' for Active; 'I' for Inactive)
REMARK    1  A    between atoms: C_1  and  C_2
REMARK    2  A    between atoms: C_3  and  C_4
REMARK    3  A    between atoms: N_6  and  N_7
REMARK    4  A    between atoms: N_7  and  C_16
REMARK    5  A    between atoms: C_8  and  C_10
REMARK    6  A    between atoms: C_16  and  C_17
REMARK    7  A    between atoms: C_16  and  C_18
REMARK    8  A    between atoms: C_16  and  C_19
REMARK    9  A    between atoms: C_25  and  C_26
REMARK                            x       y       z     vdW  Elec       q    Type
REMARK                         _______ _______ _______ _____ _____    ______ ____
ROOT
ATOM      1  C   UNL     1       0.348   9.968  19.668  0.00  0.00    +0.000 C 
ATOM      2  O   UNL     1      -0.854   9.791  19.499  0.00  0.00    +0.000 OA
ATOM      3  N   UNL     1       0.907  11.028  20.389  0.00  0.00    +0.000 N 
ATOM      4  H   UNL     1       1.910  11.167  20.411  0.00  0.00    +0.000 HD
ENDROOT
BRANCH   1   7
ATOM      5  C   UNL     1       1.126   7.375  21.175  0.00  0.00    +0.000 C 
ATOM      6  C   UNL     1       1.715   7.783  19.854  0.00  0.00    +0.000 A 
ATOM      7  C   UNL     1       1.333   8.944  19.131  0.00  0.00    +0.000 A 
ATOM      8  C   UNL     1       1.980   9.221  17.900  0.00  0.00    +0.000 A 
ATOM      9  C   UNL     1       2.951   8.351  17.367  0.00  0.00    +0.000 A 
ATOM     10  C   UNL     1       3.290   7.221  18.079  0.00  0.00    +0.000 A 
ATOM     11  C   UNL     1       2.714   6.951  19.305  0.00  0.00    +0.000 A 
ATOM     12  C   UNL     1       3.372   5.759  19.894  0.00  0.00    +0.000 C 
ATOM     13  C   UNL     1       4.242   5.292  18.717  0.00  0.00    +0.000 C 
ATOM     14  C   UNL     1       3.769   3.952  18.162  0.00  0.00    +0.000 C 
ATOM     15  O   UNL     1       4.222   6.303  17.674  0.00  0.00    +0.000 OA
ENDBRANCH   1   7
BRANCH   3  16
ATOM     16  N   UNL     1       0.096  12.066  20.997  0.00  0.00    +0.000 N 
ATOM     17  C   UNL     1      -0.442  11.784  22.290  0.00  0.00    +0.000 C 
ATOM     18  O   UNL     1      -0.191  10.706  22.843  0.00  0.00    +0.000 OA
BRANCH  17  19
ATOM     19  C   UNL     1      -1.336  12.745  23.097  0.00  0.00    +0.000 A 
ATOM     20  C   UNL     1      -1.025  14.040  23.544  0.00  0.00    +0.000 A 
ATOM     21  C   UNL     1      -1.932  14.887  24.193  0.00  0.00    +0.000 A 
ATOM     22  C   UNL     1      -3.213  14.446  24.443  0.00  0.00    +0.000 A 
ATOM     23  C   UNL     1      -3.573  13.163  24.047  0.00  0.00    +0.000 A 
ATOM     24  C   UNL     1      -2.652  12.327  23.380  0.00  0.00    +0.000 A 
ENDBRANCH  17  19
BRANCH  16  25
ATOM     25  C   UNL     1      -0.279  13.147  20.034  0.00  0.00    +0.000 C 
ATOM     26  C   UNL     1       0.255  12.982  18.580  0.00  0.00    +0.000 C 
ATOM     27  C   UNL     1      -1.823  13.122  19.831  0.00  0.00    +0.000 C 
ATOM     28  C   UNL     1       0.374  14.490  20.484  0.00  0.00    +0.000 C 
ENDBRANCH  16  25
ENDBRANCH   3  16
TORSDOF 4
ENDMDL
MODEL 9
REMARK VINA RESULT:      -6.8      0.912      1.961
REMARK  Name = 
REMARK  9 active torsions:
REMARK  status: ('A' for Active; 'I' for Inactive)
REMARK    1  A    between atoms: C_1  and  C_2
REMARK    2  A    between atoms: C_3  and  C_4
REMARK    3  A    between atoms: N_6  and  N_7
REMARK    4  A    between atoms: N_7  and  C_16
REMARK    5  A    between atoms: C_8  and  C_10
REMARK    6  A    between atoms: C_16  and  C_17
REMARK    7  A    between atoms: C_16  and  C_18
REMARK    8  A    between atoms: C_16  and  C_19
REMARK    9  A    between atoms: C_25  and  C_26
REMARK                            x       y       z     vdW  Elec       q    Type
REMARK                         _______ _______ _______ _____ _____    ______ ____
ROOT
ATOM      1  C   UNL     1       0.733  10.285  20.831  0.00  0.00    +0.000 C 
ATOM      2  O   UNL     1       1.463  11.205  21.184  0.00  0.00    +0.000 OA
ATOM      3  N   UNL     1      -0.663  10.350  20.766  0.00  0.00    +0.000 N 
ATOM      4  H   UNL     1      -1.210   9.525  20.554  0.00  0.00    +0.000 HD
ENDROOT
BRANCH   1   7
ATOM      5  C   UNL     1       2.065   9.935  18.055  0.00  0.00    +0.000 C 
ATOM      6  C   UNL     1       1.921   8.826  19.059  0.00  0.00    +0.000 A 
ATOM      7  C   UNL     1       1.355   8.984  20.352  0.00  0.00    +0.000 A 
ATOM      8  C   UNL     1       1.266   7.850  21.198  0.00  0.00    +0.000 A 
ATOM      9  C   UNL     1       1.764   6.594  20.800  0.00  0.00    +0.000 A 
ATOM     10  C   UNL     1       2.325   6.471  19.547  0.00  0.00    +0.000 A 
ATOM     11  C   UNL     1       2.380   7.546  18.682  0.00  0.00    +0.000 A 
ATOM     12  C   UNL     1       2.900   7.083  17.371  0.00  0.00    +0.000 C 
ATOM     13  C   UNL     1       3.321   5.646  17.714  0.00  0.00    +0.000 C 
ATOM     14  C   UNL     1       4.836   5.470  17.644  0.00  0.00    +0.000 C 
ATOM     15  O   UNL     1       2.837   5.306  19.041  0.00  0.00    +0.000 OA
ENDBRANCH   1   7
BRANCH   3  16
ATOM     16  N   UNL     1      -1.402  11.537  21.150  0.00  0.00    +0.000 N 
ATOM     17  C   UNL     1      -1.716  11.677  22.537  0.00  0.00    +0.000 C 
ATOM     18  O   UNL     1      -1.342  10.818  23.345  0.00  0.00    +0.000 OA
BRANCH  17  19
ATOM     19  C   UNL     1      -2.502  12.855  23.144  0.00  0.00    +0.000 A 
ATOM     20  C   UNL     1      -2.085  14.188  23.285  0.00  0.00    +0.000 A 
ATOM     21  C   UNL     1      -2.899  15.222  23.764  0.00  0.00    +0.000 A 
ATOM     22  C   UNL     1      -4.192  14.943  24.150  0.00  0.00    +0.000 A 
ATOM     23  C   UNL     1      -4.656  13.635  24.058  0.00  0.00    +0.000 A 
ATOM     24  C   UNL     1      -3.827  12.608  23.558  0.00  0.00    +0.000 A 
ENDBRANCH  17  19
BRANCH  16  25
ATOM     25  C   UNL     1      -1.964  12.274  19.977  0.00  0.00    +0.000 C 
ATOM     26  C   UNL     1      -3.457  12.705  20.091  0.00  0.00    +0.000 C 
ATOM     27  C   UNL     1      -1.229  13.642  19.847  0.00  0.00    +0.000 C 
ATOM     28  C   UNL     1      -1.977  11.334  18.732  0.00  0.00    +0.000 C 
ENDBRANCH  16  25
ENDBRANCH   3  16
TORSDOF 4
ENDMDL
