MODEL 1
REMARK VINA RESULT:      -8.3      0.000      0.000
REMARK  Name = 
REMARK  6 active torsions:
REMARK  status: ('A' for Active; 'I' for Inactive)
REMARK    1  A    between atoms: C_1  and  C_2
REMARK    2  A    between atoms: C_5  and  C_6
REMARK    3  A    between atoms: C_6  and  N_7
REMARK    4  A    between atoms: C_8  and  C_10
REMARK    5  A    between atoms: C_10  and  C_11
REMARK    6  A    between atoms: C_10  and  C_12
REMARK                            x       y       z     vdW  Elec       q    Type
REMARK                         _______ _______ _______ _____ _____    ______ ____
ROOT
ATOM      1  C   UNL     1       2.663   6.901  17.858  0.00  0.00    +0.000 C 
ATOM      2  C   UNL     1       2.456   8.372  18.247  0.00  0.00    +0.000 C 
ENDROOT
BRANCH   1   3
ATOM      3  C   UNL     1       2.364   5.943  19.017  0.00  0.00    +0.000 A 
ATOM      4  N   UNL     1       2.258   6.443  20.215  0.00  0.00    +0.000 NA
ATOM      5  N   UNL     1       2.124   5.594  21.266  0.00  0.00    +0.000 N 
ATOM      6  C   UNL     1       2.278   4.229  21.217  0.00  0.00    +0.000 A 
ATOM      7  O   UNL     1       2.301   3.535  22.225  0.00  0.00    +0.000 OA
ATOM      8  C   UNL     1       2.366   3.642  19.871  0.00  0.00    +0.000 A 
ATOM      9  C   UNL     1       2.484   2.257  19.713  0.00  0.00    +0.000 A 
ATOM     10  C   UNL     1       2.471   1.706  18.433  0.00  0.00    +0.000 A 
ATOM     11  C   UNL     1       2.287   2.533  17.324  0.00  0.00    +0.000 A 
ATOM     12  C   UNL     1       2.184   3.918  17.484  0.00  0.00    +0.000 A 
ATOM     13  C   UNL     1       2.283   4.480  18.761  0.00  0.00    +0.000 A 
ATOM     14  H   UNL     1       2.055   6.020  22.186  0.00  0.00    +0.000 HD
ENDBRANCH   1   3
BRANCH   1  16
ATOM     15  N   UNL     1       4.866   5.834  17.980  0.00  0.00    +0.000 N 
ATOM     16  C   UNL     1       4.079   6.738  17.316  0.00  0.00    +0.000 C 
ATOM     17  O   UNL     1       4.481   7.384  16.352  0.00  0.00    +0.000 OA
ATOM     18  H   UNL     1       4.516   5.295  18.770  0.00  0.00    +0.000 HD
BRANCH  15  19
ATOM     19  C   UNL     1       6.252   5.604  17.618  0.00  0.00    +0.000 C 
BRANCH  19  24
ATOM     20  C   UNL     1       6.693   3.547  12.308  0.00  0.00    +0.000 C 
ATOM     21  C   UNL     1       6.584   4.095  13.699  0.00  0.00    +0.000 A 
ATOM     22  C   UNL     1       7.362   5.168  14.119  0.00  0.00    +0.000 A 
ATOM     23  N   UNL     1       7.290   5.685  15.373  0.00  0.00    +0.000 NA
ATOM     24  C   UNL     1       6.402   5.083  16.210  0.00  0.00    +0.000 A 
ATOM     25  C   UNL     1       5.630   4.009  15.785  0.00  0.00    +0.000 A 
ATOM     26  N   UNL     1       5.704   3.495  14.533  0.00  0.00    +0.000 NA
ENDBRANCH  19  24
ENDBRANCH  15  19
ENDBRANCH   1  16
TORSDOF 4
ENDMDL
MODEL 2
REMARK VINA RESULT:      -8.2      2.342      6.213
REMARK  Name = 
REMARK  6 active torsions:
REMARK  status: ('A' for Active; 'I' for Inactive)
REMARK    1  A    between atoms: C_1  and  C_2
REMARK    2  A    between atoms: C_5  and  C_6
REMARK    3  A    between atoms: C_6  and  N_7
REMARK    4  A    between atoms: C_8  and  C_10
REMARK    5  A    between atoms: C_10  and  C_11
REMARK    6  A    between atoms: C_10  and  C_12
REMARK                            x       y       z     vdW  Elec       q    Type
REMARK                         _______ _______ _______ _____ _____    ______ ____
ROOT
ATOM      1  C   UNL     1       4.083   3.172  18.934  0.00  0.00    +0.000 C 
ATOM      2  C   UNL     1       4.330   2.097  20.002  0.00  0.00    +0.000 C 
ENDROOT
BRANCH   1   3
ATOM      3  C   UNL     1       5.311   4.063  18.708  0.00  0.00    +0.000 A 
ATOM      4  N   UNL     1       5.892   4.583  19.750  0.00  0.00    +0.000 NA
ATOM      5  N   UNL     1       6.897   5.476  19.558  0.00  0.00    +0.000 N 
ATOM      6  C   UNL     1       7.248   6.040  18.354  0.00  0.00    +0.000 A 
ATOM      7  O   UNL     1       8.056   6.955  18.269  0.00  0.00    +0.000 OA
ATOM      8  C   UNL     1       6.626   5.443  17.162  0.00  0.00    +0.000 A 
ATOM      9  C   UNL     1       6.948   5.920  15.887  0.00  0.00    +0.000 A 
ATOM     10  C   UNL     1       6.427   5.284  14.762  0.00  0.00    +0.000 A 
ATOM     11  C   UNL     1       5.631   4.148  14.914  0.00  0.00    +0.000 A 
ATOM     12  C   UNL     1       5.299   3.682  16.190  0.00  0.00    +0.000 A 
ATOM     13  C   UNL     1       5.752   4.370  17.320  0.00  0.00    +0.000 A 
ATOM     14  H   UNL     1       7.319   5.869  20.394  0.00  0.00    +0.000 HD
ENDBRANCH   1   3
BRANCH   1  16
ATOM     15  N   UNL     1       3.047   4.942  20.276  0.00  0.00    +0.000 N 
ATOM     16  C   UNL     1       2.847   3.972  19.330  0.00  0.00    +0.000 C 
ATOM     17  O   UNL     1       1.746   3.750  18.832  0.00  0.00    +0.000 OA
ATOM     18  H   UNL     1       3.968   5.126  20.671  0.00  0.00    +0.000 HD
BRANCH  15  19
ATOM     19  C   UNL     1       1.962   5.753  20.794  0.00  0.00    +0.000 C 
BRANCH  19  24
ATOM     20  C   UNL     1       1.650  10.766  18.074  0.00  0.00    +0.000 C 
ATOM     21  C   UNL     1       1.726   9.454  18.796  0.00  0.00    +0.000 A 
ATOM     22  C   UNL     1       1.163   9.286  20.055  0.00  0.00    +0.000 A 
ATOM     23  N   UNL     1       1.217   8.112  20.738  0.00  0.00    +0.000 NA
ATOM     24  C   UNL     1       1.866   7.094  20.110  0.00  0.00    +0.000 A 
ATOM     25  C   UNL     1       2.430   7.270  18.852  0.00  0.00    +0.000 A 
ATOM     26  N   UNL     1       2.375   8.442  18.174  0.00  0.00    +0.000 NA
ENDBRANCH  19  24
ENDBRANCH  15  19
ENDBRANCH   1  16
TORSDOF 4
ENDMDL
MODEL 3
REMARK VINA RESULT:      -8.2      2.270      6.428
REMARK  Name = 
REMARK  6 active torsions:
REMARK  status: ('A' for Active; 'I' for Inactive)
REMARK    1  A    between atoms: C_1  and  C_2
REMARK    2  A    between atoms: C_5  and  C_6
REMARK    3  A    between atoms: C_6  and  N_7
REMARK    4  A    between atoms: C_8  and  C_10
REMARK    5  A    between atoms: C_10  and  C_11
REMARK    6  A    between atoms: C_10  and  C_12
REMARK                            x       y       z     vdW  Elec       q    Type
REMARK                         _______ _______ _______ _____ _____    ______ ____
ROOT
ATOM      1  C   UNL     1       3.523   3.285  18.457  0.00  0.00    +0.000 C 
ATOM      2  C   UNL     1       3.598   1.795  18.820  0.00  0.00    +0.000 C 
ENDROOT
BRANCH   1   3
ATOM      3  C   UNL     1       4.905   3.950  18.436  0.00  0.00    +0.000 A 
ATOM      4  N   UNL     1       5.438   4.294  19.572  0.00  0.00    +0.000 NA
ATOM      5  N   UNL     1       6.598   5.000  19.561  0.00  0.00    +0.000 N 
ATOM      6  C   UNL     1       7.184   5.559  18.450  0.00  0.00    +0.000 A 
ATOM      7  O   UNL     1       8.143   6.316  18.524  0.00  0.00    +0.000 OA
ATOM      8  C   UNL     1       6.616   5.155  17.154  0.00  0.00    +0.000 A 
ATOM      9  C   UNL     1       7.167   5.638  15.962  0.00  0.00    +0.000 A 
ATOM     10  C   UNL     1       6.683   5.174  14.742  0.00  0.00    +0.000 A 
ATOM     11  C   UNL     1       5.690   4.194  14.717  0.00  0.00    +0.000 A 
ATOM     12  C   UNL     1       5.131   3.724  15.910  0.00  0.00    +0.000 A 
ATOM     13  C   UNL     1       5.556   4.251  17.133  0.00  0.00    +0.000 A 
ATOM     14  H   UNL     1       6.979   5.261  20.466  0.00  0.00    +0.000 HD
ENDBRANCH   1   3
BRANCH   1  16
ATOM     15  N   UNL     1       2.742   5.319  19.580  0.00  0.00    +0.000 N 
ATOM     16  C   UNL     1       2.561   3.971  19.421  0.00  0.00    +0.000 C 
ATOM     17  O   UNL     1       1.688   3.345  20.017  0.00  0.00    +0.000 OA
ATOM     18  H   UNL     1       3.462   5.828  19.069  0.00  0.00    +0.000 HD
BRANCH  15  19
ATOM     19  C   UNL     1       1.942   6.104  20.500  0.00  0.00    +0.000 C 
BRANCH  19  24
ATOM     20  C   UNL     1       1.015  11.468  18.769  0.00  0.00    +0.000 C 
ATOM     21  C   UNL     1       1.263  10.058  19.213  0.00  0.00    +0.000 A 
ATOM     22  C   UNL     1       1.833   9.119  18.362  0.00  0.00    +0.000 A 
ATOM     23  N   UNL     1       2.068   7.833  18.733  0.00  0.00    +0.000 NA
ATOM     24  C   UNL     1       1.705   7.510  20.004  0.00  0.00    +0.000 A 
ATOM     25  C   UNL     1       1.132   8.453  20.849  0.00  0.00    +0.000 A 
ATOM     26  N   UNL     1       0.899   9.735  20.476  0.00  0.00    +0.000 NA
ENDBRANCH  19  24
ENDBRANCH  15  19
ENDBRANCH   1  16
TORSDOF 4
ENDMDL
MODEL 4
REMARK VINA RESULT:      -8.2      2.682      6.827
REMARK  Name = 
REMARK  6 active torsions:
REMARK  status: ('A' for Active; 'I' for Inactive)
REMARK    1  A    between atoms: C_1  and  C_2
REMARK    2  A    between atoms: C_5  and  C_6
REMARK    3  A    between atoms: C_6  and  N_7
REMARK    4  A    between atoms: C_8  and  C_10
REMARK    5  A    between atoms: C_10  and  C_11
REMARK    6  A    between atoms: C_10  and  C_12
REMARK                            x       y       z     vdW  Elec       q    Type
REMARK                         _______ _______ _______ _____ _____    ______ ____
ROOT
ATOM      1  C   UNL     1       2.770   4.925  17.971  0.00  0.00    +0.000 C 
ATOM      2  C   UNL     1       2.035   3.614  17.659  0.00  0.00    +0.000 C 
ENDROOT
BRANCH   1   3
ATOM      3  C   UNL     1       4.281   4.721  18.137  0.00  0.00    +0.000 A 
ATOM      4  N   UNL     1       4.775   4.742  19.341  0.00  0.00    +0.000 NA
ATOM      5  N   UNL     1       6.123   4.694  19.494  0.00  0.00    +0.000 N 
ATOM      6  C   UNL     1       7.048   4.814  18.484  0.00  0.00    +0.000 A 
ATOM      7  O   UNL     1       8.248   4.921  18.702  0.00  0.00    +0.000 OA
ATOM      8  C   UNL     1       6.512   4.759  17.116  0.00  0.00    +0.000 A 
ATOM      9  C   UNL     1       7.376   4.832  16.017  0.00  0.00    +0.000 A 
ATOM     10  C   UNL     1       6.868   4.683  14.729  0.00  0.00    +0.000 A 
ATOM     11  C   UNL     1       5.511   4.409  14.547  0.00  0.00    +0.000 A 
ATOM     12  C   UNL     1       4.648   4.350  15.645  0.00  0.00    +0.000 A 
ATOM     13  C   UNL     1       5.142   4.585  16.932  0.00  0.00    +0.000 A 
ATOM     14  H   UNL     1       6.472   4.724  20.448  0.00  0.00    +0.000 HD
ENDBRANCH   1   3
BRANCH   1  16
ATOM     15  N   UNL     1       2.361   6.898  19.367  0.00  0.00    +0.000 N 
ATOM     16  C   UNL     1       2.129   5.558  19.201  0.00  0.00    +0.000 C 
ATOM     17  O   UNL     1       1.454   4.900  19.990  0.00  0.00    +0.000 OA
ATOM     18  H   UNL     1       2.911   7.434  18.698  0.00  0.00    +0.000 HD
BRANCH  15  19
ATOM     19  C   UNL     1       1.863   7.633  20.514  0.00  0.00    +0.000 C 
BRANCH  19  24
ATOM     20  C   UNL     1      -0.983  12.398  19.164  0.00  0.00    +0.000 C 
ATOM     21  C   UNL     1      -0.231  11.147  19.508  0.00  0.00    +0.000 A 
ATOM     22  C   UNL     1       0.546  10.485  18.565  0.00  0.00    +0.000 A 
ATOM     23  N   UNL     1       1.236   9.348  18.844  0.00  0.00    +0.000 NA
ATOM     24  C   UNL     1       1.120   8.885  20.118  0.00  0.00    +0.000 A 
ATOM     25  C   UNL     1       0.338   9.550  21.055  0.00  0.00    +0.000 A 
ATOM     26  N   UNL     1      -0.350  10.683  20.774  0.00  0.00    +0.000 NA
ENDBRANCH  19  24
ENDBRANCH  15  19
ENDBRANCH   1  16
TORSDOF 4
ENDMDL
MODEL 5
REMARK VINA RESULT:      -8.0      1.023      1.091
REMARK  Name = 
REMARK  6 active torsions:
REMARK  status: ('A' for Active; 'I' for Inactive)
REMARK    1  A    between atoms: C_1  and  C_2
REMARK    2  A    between atoms: C_5  and  C_6
REMARK    3  A    between atoms: C_6  and  N_7
REMARK    4  A    between atoms: C_8  and  C_10
REMARK    5  A    between atoms: C_10  and  C_11
REMARK    6  A    between atoms: C_10  and  C_12
REMARK                            x       y       z     vdW  Elec       q    Type
REMARK                         _______ _______ _______ _____ _____    ______ ____
ROOT
ATOM      1  C   UNL     1       3.131   6.609  17.825  0.00  0.00    +0.000 C 
ATOM      2  C   UNL     1       2.840   8.095  18.077  0.00  0.00    +0.000 C 
ENDROOT
BRANCH   1   3
ATOM      3  C   UNL     1       2.615   5.713  18.957  0.00  0.00    +0.000 A 
ATOM      4  N   UNL     1       2.373   6.262  20.112  0.00  0.00    +0.000 NA
ATOM      5  N   UNL     1       2.043   5.461  21.158  0.00  0.00    +0.000 N 
ATOM      6  C   UNL     1       2.118   4.089  21.171  0.00  0.00    +0.000 A 
ATOM      7  O   UNL     1       1.958   3.432  22.192  0.00  0.00    +0.000 OA
ATOM      8  C   UNL     1       2.358   3.448  19.869  0.00  0.00    +0.000 A 
ATOM      9  C   UNL     1       2.413   2.054  19.769  0.00  0.00    +0.000 A 
ATOM     10  C   UNL     1       2.545   1.458  18.517  0.00  0.00    +0.000 A 
ATOM     11  C   UNL     1       2.568   2.252  17.369  0.00  0.00    +0.000 A 
ATOM     12  C   UNL     1       2.528   3.646  17.473  0.00  0.00    +0.000 A 
ATOM     13  C   UNL     1       2.482   4.248  18.734  0.00  0.00    +0.000 A 
ATOM     14  H   UNL     1       1.872   5.924  22.046  0.00  0.00    +0.000 HD
ENDBRANCH   1   3
BRANCH   1  16
ATOM     15  N   UNL     1       5.024   6.469  16.274  0.00  0.00    +0.000 N 
ATOM     16  C   UNL     1       4.627   6.443  17.585  0.00  0.00    +0.000 C 
ATOM     17  O   UNL     1       5.418   6.290  18.513  0.00  0.00    +0.000 OA
ATOM     18  H   UNL     1       4.360   6.610  15.515  0.00  0.00    +0.000 HD
BRANCH  15  19
ATOM     19  C   UNL     1       6.406   6.273  15.880  0.00  0.00    +0.000 C 
BRANCH  19  24
ATOM     20  C   UNL     1       6.778   2.732  11.413  0.00  0.00    +0.000 C 
ATOM     21  C   UNL     1       6.689   3.666  12.582  0.00  0.00    +0.000 A 
ATOM     22  C   UNL     1       7.663   4.631  12.816  0.00  0.00    +0.000 A 
ATOM     23  N   UNL     1       7.614   5.490  13.867  0.00  0.00    +0.000 NA
ATOM     24  C   UNL     1       6.543   5.350  14.694  0.00  0.00    +0.000 A 
ATOM     25  C   UNL     1       5.574   4.381  14.457  0.00  0.00    +0.000 A 
ATOM     26  N   UNL     1       5.626   3.525  13.408  0.00  0.00    +0.000 NA
ENDBRANCH  19  24
ENDBRANCH  15  19
ENDBRANCH   1  16
TORSDOF 4
ENDMDL
MODEL 6
REMARK VINA RESULT:      -7.9      2.800      6.913
REMARK  Name = 
REMARK  6 active torsions:
REMARK  status: ('A' for Active; 'I' for Inactive)
REMARK    1  A    between atoms: C_1  and  C_2
REMARK    2  A    between atoms: C_5  and  C_6
REMARK    3  A    between atoms: C_6  and  N_7
REMARK    4  A    between atoms: C_8  and  C_10
REMARK    5  A    between atoms: C_10  and  C_11
REMARK    6  A    between atoms: C_10  and  C_12
REMARK                            x       y       z     vdW  Elec       q    Type
REMARK                         _______ _______ _______ _____ _____    ______ ____
ROOT
ATOM      1  C   UNL     1       2.762   5.307  18.107  0.00  0.00    +0.000 C 
ATOM      2  C   UNL     1       1.973   4.061  17.681  0.00  0.00    +0.000 C 
ENDROOT
BRANCH   1   3
ATOM      3  C   UNL     1       4.260   5.021  18.273  0.00  0.00    +0.000 A 
ATOM      4  N   UNL     1       4.771   5.101  19.467  0.00  0.00    +0.000 NA
ATOM      5  N   UNL     1       6.116   4.979  19.610  0.00  0.00    +0.000 N 
ATOM      6  C   UNL     1       7.032   4.965  18.584  0.00  0.00    +0.000 A 
ATOM      7  O   UNL     1       8.239   5.012  18.782  0.00  0.00    +0.000 OA
ATOM      8  C   UNL     1       6.474   4.843  17.229  0.00  0.00    +0.000 A 
ATOM      9  C   UNL     1       7.324   4.780  16.120  0.00  0.00    +0.000 A 
ATOM     10  C   UNL     1       6.789   4.567  14.852  0.00  0.00    +0.000 A 
ATOM     11  C   UNL     1       5.415   4.367  14.704  0.00  0.00    +0.000 A 
ATOM     12  C   UNL     1       4.566   4.445  15.812  0.00  0.00    +0.000 A 
ATOM     13  C   UNL     1       5.093   4.743  17.072  0.00  0.00    +0.000 A 
ATOM     14  H   UNL     1       6.480   5.057  20.555  0.00  0.00    +0.000 HD
ENDBRANCH   1   3
BRANCH   1  16
ATOM     15  N   UNL     1       2.203   7.228  19.524  0.00  0.00    +0.000 N 
ATOM     16  C   UNL     1       2.132   5.868  19.377  0.00  0.00    +0.000 C 
ATOM     17  O   UNL     1       1.602   5.139  20.213  0.00  0.00    +0.000 OA
ATOM     18  H   UNL     1       2.633   7.823  18.816  0.00  0.00    +0.000 HD
BRANCH  15  19
ATOM     19  C   UNL     1       1.696   7.908  20.700  0.00  0.00    +0.000 C 
BRANCH  19  24
ATOM     20  C   UNL     1      -0.258  13.113  19.389  0.00  0.00    +0.000 C 
ATOM     21  C   UNL     1       0.255  11.749  19.744  0.00  0.00    +0.000 A 
ATOM     22  C   UNL     1       0.548  11.404  21.058  0.00  0.00    +0.000 A 
ATOM     23  N   UNL     1       1.017  10.179  21.412  0.00  0.00    +0.000 NA
ATOM     24  C   UNL     1       1.189   9.295  20.392  0.00  0.00    +0.000 A 
ATOM     25  C   UNL     1       0.896   9.648  19.079  0.00  0.00    +0.000 A 
ATOM     26  N   UNL     1       0.429  10.871  18.729  0.00  0.00    +0.000 NA
ENDBRANCH  19  24
ENDBRANCH  15  19
ENDBRANCH   1  16
TORSDOF 4
ENDMDL
MODEL 7
REMARK VINA RESULT:      -7.9      0.579      1.006
REMARK  Name = 
REMARK  6 active torsions:
REMARK  status: ('A' for Active; 'I' for Inactive)
REMARK    1  A    between atoms: C_1  and  C_2
REMARK    2  A    between atoms: C_5  and  C_6
REMARK    3  A    between atoms: C_6  and  N_7
REMARK    4  A    between atoms: C_8  and  C_10
REMARK    5  A    between atoms: C_10  and  C_11
REMARK    6  A    between atoms: C_10  and  C_12
REMARK                            x       y       z     vdW  Elec       q    Type
REMARK                         _______ _______ _______ _____ _____    ______ ____
ROOT
ATOM      1  C   UNL     1       2.516   6.788  18.040  0.00  0.00    +0.000 C 
ATOM      2  C   UNL     1       2.230   8.236  18.460  0.00  0.00    +0.000 C 
ENDROOT
BRANCH   1   3
ATOM      3  C   UNL     1       2.242   5.788  19.171  0.00  0.00    +0.000 A 
ATOM      4  N   UNL     1       2.138   6.248  20.384  0.00  0.00    +0.000 NA
ATOM      5  N   UNL     1       2.027   5.364  21.409  0.00  0.00    +0.000 N 
ATOM      6  C   UNL     1       2.203   4.003  21.315  0.00  0.00    +0.000 A 
ATOM      7  O   UNL     1       2.247   3.278  22.300  0.00  0.00    +0.000 OA
ATOM      8  C   UNL     1       2.291   3.461  19.951  0.00  0.00    +0.000 A 
ATOM      9  C   UNL     1       2.431   2.084  19.747  0.00  0.00    +0.000 A 
ATOM     10  C   UNL     1       2.416   1.574  18.451  0.00  0.00    +0.000 A 
ATOM     11  C   UNL     1       2.209   2.433  17.370  0.00  0.00    +0.000 A 
ATOM     12  C   UNL     1       2.084   3.810  17.575  0.00  0.00    +0.000 A 
ATOM     13  C   UNL     1       2.184   4.333  18.868  0.00  0.00    +0.000 A 
ATOM     14  H   UNL     1       1.959   5.758  22.342  0.00  0.00    +0.000 HD
ENDBRANCH   1   3
BRANCH   1  16
ATOM     15  N   UNL     1       4.728   5.733  18.090  0.00  0.00    +0.000 N 
ATOM     16  C   UNL     1       3.948   6.707  17.524  0.00  0.00    +0.000 C 
ATOM     17  O   UNL     1       4.369   7.474  16.662  0.00  0.00    +0.000 OA
ATOM     18  H   UNL     1       4.362   5.094  18.794  0.00  0.00    +0.000 HD
BRANCH  15  19
ATOM     19  C   UNL     1       6.126   5.562  17.743  0.00  0.00    +0.000 C 
BRANCH  19  24
ATOM     20  C   UNL     1       6.970   3.851  12.359  0.00  0.00    +0.000 C 
ATOM     21  C   UNL     1       6.741   4.293  13.773  0.00  0.00    +0.000 A 
ATOM     22  C   UNL     1       5.757   3.710  14.564  0.00  0.00    +0.000 A 
ATOM     23  N   UNL     1       5.522   4.089  15.848  0.00  0.00    +0.000 NA
ATOM     24  C   UNL     1       6.314   5.089  16.322  0.00  0.00    +0.000 A 
ATOM     25  C   UNL     1       7.293   5.669  15.524  0.00  0.00    +0.000 A 
ATOM     26  N   UNL     1       7.525   5.290  14.245  0.00  0.00    +0.000 NA
ENDBRANCH  19  24
ENDBRANCH  15  19
ENDBRANCH   1  16
TORSDOF 4
ENDMDL
MODEL 8
REMARK VINA RESULT:      -7.9      2.974      7.203
REMARK  Name = 
REMARK  6 active torsions:
REMARK  status: ('A' for Active; 'I' for Inactive)
REMARK    1  A    between atoms: C_1  and  C_2
REMARK    2  A    between atoms: C_5  and  C_6
REMARK    3  A    between atoms: C_6  and  N_7
REMARK    4  A    between atoms: C_8  and  C_10
REMARK    5  A    between atoms: C_10  and  C_11
REMARK    6  A    between atoms: C_10  and  C_12
REMARK                            x       y       z     vdW  Elec       q    Type
REMARK                         _______ _______ _______ _____ _____    ______ ____
ROOT
ATOM      1  C   UNL     1       3.031   5.648  18.072  0.00  0.00    +0.000 C 
ATOM      2  C   UNL     1       2.164   5.165  19.243  0.00  0.00    +0.000 C 
ENDROOT
BRANCH   1   3
ATOM      3  C   UNL     1       4.477   5.146  18.171  0.00  0.00    +0.000 A 
ATOM      4  N   UNL     1       5.039   5.123  19.344  0.00  0.00    +0.000 NA
ATOM      5  N   UNL     1       6.357   4.806  19.429  0.00  0.00    +0.000 N 
ATOM      6  C   UNL     1       7.221   4.685  18.366  0.00  0.00    +0.000 A 
ATOM      7  O   UNL     1       8.429   4.554  18.515  0.00  0.00    +0.000 OA
ATOM      8  C   UNL     1       6.600   4.676  17.033  0.00  0.00    +0.000 A 
ATOM      9  C   UNL     1       7.390   4.518  15.889  0.00  0.00    +0.000 A 
ATOM     10  C   UNL     1       6.781   4.415  14.641  0.00  0.00    +0.000 A 
ATOM     11  C   UNL     1       5.388   4.418  14.546  0.00  0.00    +0.000 A 
ATOM     12  C   UNL     1       4.602   4.591  15.689  0.00  0.00    +0.000 A 
ATOM     13  C   UNL     1       5.214   4.780  16.932  0.00  0.00    +0.000 A 
ATOM     14  H   UNL     1       6.765   4.809  20.359  0.00  0.00    +0.000 HD
ENDBRANCH   1   3
BRANCH   1  16
ATOM     15  N   UNL     1       1.815   7.725  18.541  0.00  0.00    +0.000 N 
ATOM     16  C   UNL     1       2.945   7.169  18.002  0.00  0.00    +0.000 C 
ATOM     17  O   UNL     1       3.834   7.844  17.488  0.00  0.00    +0.000 OA
ATOM     18  H   UNL     1       1.092   7.155  18.977  0.00  0.00    +0.000 HD
BRANCH  15  19
ATOM     19  C   UNL     1       1.562   9.152  18.506  0.00  0.00    +0.000 C 
BRANCH  19  24
ATOM     20  C   UNL     1      -1.247  11.109  23.079  0.00  0.00    +0.000 C 
ATOM     21  C   UNL     1      -0.507  10.587  21.884  0.00  0.00    +0.000 A 
ATOM     22  C   UNL     1       0.181   9.380  21.928  0.00  0.00    +0.000 A 
ATOM     23  N   UNL     1       0.864   8.880  20.865  0.00  0.00    +0.000 NA
ATOM     24  C   UNL     1       0.838   9.641  19.737  0.00  0.00    +0.000 A 
ATOM     25  C   UNL     1       0.151  10.848  19.701  0.00  0.00    +0.000 A 
ATOM     26  N   UNL     1      -0.528  11.344  20.763  0.00  0.00    +0.000 NA
ENDBRANCH  19  24
ENDBRANCH  15  19
ENDBRANCH   1  16
TORSDOF 4
ENDMDL
MODEL 9
REMARK VINA RESULT:      -7.9      2.221      4.618
REMARK  Name = 
REMARK  6 active torsions:
REMARK  status: ('A' for Active; 'I' for Inactive)
REMARK    1  A    between atoms: C_1  and  C_2
REMARK    2  A    between atoms: C_5  and  C_6
REMARK    3  A    between atoms: C_6  and  N_7
REMARK    4  A    between atoms: C_8  and  C_10
REMARK    5  A    between atoms: C_10  and  C_11
REMARK    6  A    between atoms: C_10  and  C_12
REMARK                            x       y       z     vdW  Elec       q    Type
REMARK                         _______ _______ _______ _____ _____    ______ ____
ROOT
ATOM      1  C   UNL     1       2.339   5.370  20.456  0.00  0.00    +0.000 C 
ATOM      2  C   UNL     1       1.188   4.356  20.402  0.00  0.00    +0.000 C 
ENDROOT
BRANCH   1   3
ATOM      3  C   UNL     1       2.076   6.597  19.572  0.00  0.00    +0.000 A 
ATOM      4  N   UNL     1       2.470   6.555  18.332  0.00  0.00    +0.000 NA
ATOM      5  N   UNL     1       2.363   7.678  17.577  0.00  0.00    +0.000 N 
ATOM      6  C   UNL     1       2.048   8.931  18.046  0.00  0.00    +0.000 A 
ATOM      7  O   UNL     1       2.121   9.932  17.344  0.00  0.00    +0.000 OA
ATOM      8  C   UNL     1       1.570   8.994  19.435  0.00  0.00    +0.000 A 
ATOM      9  C   UNL     1       1.187  10.218  19.994  0.00  0.00    +0.000 A 
ATOM     10  C   UNL     1       0.646  10.251  21.277  0.00  0.00    +0.000 A 
ATOM     11  C   UNL     1       0.443   9.059  21.974  0.00  0.00    +0.000 A 
ATOM     12  C   UNL     1       0.840   7.838  21.420  0.00  0.00    +0.000 A 
ATOM     13  C   UNL     1       1.461   7.813  20.167  0.00  0.00    +0.000 A 
ATOM     14  H   UNL     1       2.689   7.611  16.617  0.00  0.00    +0.000 HD
ENDBRANCH   1   3
BRANCH   1  16
ATOM     15  N   UNL     1       4.660   5.460  19.673  0.00  0.00    +0.000 N 
ATOM     16  C   UNL     1       3.634   4.653  20.089  0.00  0.00    +0.000 C 
ATOM     17  O   UNL     1       3.738   3.431  20.159  0.00  0.00    +0.000 OA
ATOM     18  H   UNL     1       4.564   6.473  19.633  0.00  0.00    +0.000 HD
BRANCH  15  19
ATOM     19  C   UNL     1       5.937   4.925  19.241  0.00  0.00    +0.000 C 
BRANCH  19  24
ATOM     20  C   UNL     1       5.976   4.005  13.603  0.00  0.00    +0.000 C 
ATOM     21  C   UNL     1       5.976   4.250  15.082  0.00  0.00    +0.000 A 
ATOM     22  C   UNL     1       7.110   4.709  15.741  0.00  0.00    +0.000 A 
ATOM     23  N   UNL     1       7.144   4.938  17.080  0.00  0.00    +0.000 NA
ATOM     24  C   UNL     1       5.988   4.686  17.751  0.00  0.00    +0.000 A 
ATOM     25  C   UNL     1       4.858   4.224  17.087  0.00  0.00    +0.000 A 
ATOM     26  N   UNL     1       4.827   3.996  15.752  0.00  0.00    +0.000 NA
ENDBRANCH  19  24
ENDBRANCH  15  19
ENDBRANCH   1  16
TORSDOF 4
ENDMDL
