MODEL 1
REMARK VINA RESULT:      -6.7      0.000      0.000
REMARK  Name = 
REMARK  4 active torsions:
REMARK  status: ('A' for Active; 'I' for Inactive)
REMARK    1  A    between atoms: C_6  and  C_7
REMARK    2  A    between atoms: N_14  and  C_15
REMARK    3  A    between atoms: C_15  and  C_16
REMARK    4  A    between atoms: C_15  and  C_23
REMARK                            x       y       z     vdW  Elec       q    Type
REMARK                         _______ _______ _______ _____ _____    ______ ____
ROOT
ATOM      1  C   UNL     1       2.311  13.424  19.324  0.00  0.00    +0.000 C 
ATOM      2  C   UNL     1       1.154  13.274  18.296  0.00  0.00    +0.000 C 
ATOM      3  C   UNL     1      -0.157  13.984  18.706  0.00  0.00    +0.000 C 
ATOM      4  C   UNL     1       0.109  15.488  18.828  0.00  0.00    +0.000 C 
ATOM      5  C   UNL     1       0.465  15.670  20.300  0.00  0.00    +0.000 C 
ATOM      6  C   UNL     1       0.444  14.253  20.906  0.00  0.00    +0.000 C 
ATOM      7  C   UNL     1       1.701  13.366  20.730  0.00  0.00    +0.000 C 
ATOM      8  N   UNL     1      -0.650  13.730  20.069  0.00  0.00    +0.000 NA
ENDROOT
BRANCH   1  14
ATOM      9  F   UNL     1       5.687  15.964  21.442  0.00  0.00    +0.000 F 
ATOM     10  C   UNL     1       5.006  15.748  20.309  0.00  0.00    +0.000 A 
ATOM     11  C   UNL     1       5.357  16.435  19.173  0.00  0.00    +0.000 A 
ATOM     12  C   UNL     1       4.622  16.192  18.017  0.00  0.00    +0.000 A 
ATOM     13  C   UNL     1       3.572  15.262  18.038  0.00  0.00    +0.000 A 
ATOM     14  C   UNL     1       3.294  14.592  19.222  0.00  0.00    +0.000 A 
ATOM     15  N   UNL     1       4.017  14.843  20.345  0.00  0.00    +0.000 NA
ENDBRANCH   1  14
BRANCH   8  16
ATOM     16  C   UNL     1      -1.208  12.426  20.513  0.00  0.00    +0.000 C 
BRANCH  16  17
ATOM     17  C   UNL     1      -2.266  12.653  21.622  0.00  0.00    +0.000 A 
ATOM     18  C   UNL     1      -3.184  13.721  21.493  0.00  0.00    +0.000 A 
ATOM     19  C   UNL     1      -4.133  14.006  22.487  0.00  0.00    +0.000 A 
ATOM     20  C   UNL     1      -4.195  13.223  23.632  0.00  0.00    +0.000 A 
ATOM     21  C   UNL     1      -3.291  12.177  23.796  0.00  0.00    +0.000 A 
ATOM     22  C   UNL     1      -2.324  11.902  22.815  0.00  0.00    +0.000 A 
ATOM     23 CL   UNL     1      -1.193  10.656  23.212  0.00  0.00    +0.000 Cl
ENDBRANCH  16  17
BRANCH  16  24
ATOM     24  C   UNL     1      -1.783  11.583  19.360  0.00  0.00    +0.000 A 
ATOM     25  C   UNL     1      -3.039  11.890  18.800  0.00  0.00    +0.000 A 
ATOM     26  C   UNL     1      -3.486  11.268  17.631  0.00  0.00    +0.000 A 
ATOM     27  C   UNL     1      -2.707  10.288  17.027  0.00  0.00    +0.000 A 
ATOM     28  C   UNL     1      -1.518   9.886  17.625  0.00  0.00    +0.000 A 
ATOM     29  C   UNL     1      -1.066  10.513  18.792  0.00  0.00    +0.000 A 
ATOM     30 CL   UNL     1       0.402   9.895  19.456  0.00  0.00    +0.000 Cl
ENDBRANCH  16  24
ENDBRANCH   8  16
TORSDOF 4
ENDMDL
MODEL 2
REMARK VINA RESULT:      -6.7      1.122      1.313
REMARK  Name = 
REMARK  4 active torsions:
REMARK  status: ('A' for Active; 'I' for Inactive)
REMARK    1  A    between atoms: C_6  and  C_7
REMARK    2  A    between atoms: N_14  and  C_15
REMARK    3  A    between atoms: C_15  and  C_16
REMARK    4  A    between atoms: C_15  and  C_23
REMARK                            x       y       z     vdW  Elec       q    Type
REMARK                         _______ _______ _______ _____ _____    ______ ____
ROOT
ATOM      1  C   UNL     1       2.160  13.348  19.244  0.00  0.00    +0.000 C 
ATOM      2  C   UNL     1       0.961  13.241  18.260  0.00  0.00    +0.000 C 
ATOM      3  C   UNL     1      -0.317  13.972  18.733  0.00  0.00    +0.000 C 
ATOM      4  C   UNL     1      -0.014  15.467  18.870  0.00  0.00    +0.000 C 
ATOM      5  C   UNL     1       0.402  15.614  20.330  0.00  0.00    +0.000 C 
ATOM      6  C   UNL     1       0.375  14.187  20.912  0.00  0.00    +0.000 C 
ATOM      7  C   UNL     1       1.604  13.277  20.671  0.00  0.00    +0.000 C 
ATOM      8  N   UNL     1      -0.762  13.703  20.110  0.00  0.00    +0.000 NA
ENDROOT
BRANCH   1  14
ATOM      9  F   UNL     1       3.569  17.147  16.810  0.00  0.00    +0.000 F 
ATOM     10  C   UNL     1       3.747  16.404  17.910  0.00  0.00    +0.000 A 
ATOM     11  C   UNL     1       4.644  16.821  18.864  0.00  0.00    +0.000 A 
ATOM     12  C   UNL     1       4.810  16.019  19.989  0.00  0.00    +0.000 A 
ATOM     13  C   UNL     1       4.065  14.838  20.123  0.00  0.00    +0.000 A 
ATOM     14  C   UNL     1       3.163  14.497  19.124  0.00  0.00    +0.000 A 
ATOM     15  N   UNL     1       3.014  15.287  18.028  0.00  0.00    +0.000 NA
ENDBRANCH   1  14
BRANCH   8  16
ATOM     16  C   UNL     1      -1.331  12.403  20.552  0.00  0.00    +0.000 C 
BRANCH  16  17
ATOM     17  C   UNL     1      -2.364  12.635  21.684  0.00  0.00    +0.000 A 
ATOM     18  C   UNL     1      -3.290  13.698  21.567  0.00  0.00    +0.000 A 
ATOM     19  C   UNL     1      -4.217  13.988  22.580  0.00  0.00    +0.000 A 
ATOM     20  C   UNL     1      -4.249  13.215  23.732  0.00  0.00    +0.000 A 
ATOM     21  C   UNL     1      -3.337  12.174  23.885  0.00  0.00    +0.000 A 
ATOM     22  C   UNL     1      -2.391  11.895  22.884  0.00  0.00    +0.000 A 
ATOM     23 CL   UNL     1      -1.246  10.657  23.265  0.00  0.00    +0.000 Cl
ENDBRANCH  16  17
BRANCH  16  24
ATOM     24  C   UNL     1      -1.940  11.579  19.403  0.00  0.00    +0.000 A 
ATOM     25  C   UNL     1      -3.207  11.904  18.876  0.00  0.00    +0.000 A 
ATOM     26  C   UNL     1      -3.687  11.300  17.711  0.00  0.00    +0.000 A 
ATOM     27  C   UNL     1      -2.930  10.322  17.077  0.00  0.00    +0.000 A 
ATOM     28  C   UNL     1      -1.732   9.902  17.642  0.00  0.00    +0.000 A 
ATOM     29  C   UNL     1      -1.246  10.511  18.805  0.00  0.00    +0.000 A 
ATOM     30 CL   UNL     1       0.231   9.872  19.427  0.00  0.00    +0.000 Cl
ENDBRANCH  16  24
ENDBRANCH   8  16
TORSDOF 4
ENDMDL
MODEL 3
REMARK VINA RESULT:      -6.5      1.982      3.802
REMARK  Name = 
REMARK  4 active torsions:
REMARK  status: ('A' for Active; 'I' for Inactive)
REMARK    1  A    between atoms: C_6  and  C_7
REMARK    2  A    between atoms: N_14  and  C_15
REMARK    3  A    between atoms: C_15  and  C_16
REMARK    4  A    between atoms: C_15  and  C_23
REMARK                            x       y       z     vdW  Elec       q    Type
REMARK                         _______ _______ _______ _____ _____    ______ ____
ROOT
ATOM      1  C   UNL     1       1.777  14.260  21.249  0.00  0.00    +0.000 C 
ATOM      2  C   UNL     1       1.911  12.740  20.950  0.00  0.00    +0.000 C 
ATOM      3  C   UNL     1       1.374  12.315  19.563  0.00  0.00    +0.000 C 
ATOM      4  C   UNL     1       2.180  13.034  18.476  0.00  0.00    +0.000 C 
ATOM      5  C   UNL     1       1.370  14.299  18.210  0.00  0.00    +0.000 C 
ATOM      6  C   UNL     1       0.195  14.253  19.207  0.00  0.00    +0.000 C 
ATOM      7  C   UNL     1       0.447  14.740  20.655  0.00  0.00    +0.000 C 
ATOM      8  N   UNL     1       0.029  12.789  19.201  0.00  0.00    +0.000 NA
ENDROOT
BRANCH   1  14
ATOM      9  F   UNL     1       6.299  14.784  19.979  0.00  0.00    +0.000 F 
ATOM     10  C   UNL     1       5.124  15.395  20.179  0.00  0.00    +0.000 A 
ATOM     11  C   UNL     1       5.000  16.729  19.875  0.00  0.00    +0.000 A 
ATOM     12  C   UNL     1       3.767  17.332  20.104  0.00  0.00    +0.000 A 
ATOM     13  C   UNL     1       2.702  16.576  20.617  0.00  0.00    +0.000 A 
ATOM     14  C   UNL     1       2.903  15.227  20.877  0.00  0.00    +0.000 A 
ATOM     15  N   UNL     1       4.113  14.652  20.653  0.00  0.00    +0.000 NA
ENDBRANCH   1  14
BRANCH   8  16
ATOM     16  C   UNL     1      -1.218  12.299  19.844  0.00  0.00    +0.000 C 
BRANCH  16  17
ATOM     17  C   UNL     1      -2.234  11.858  18.760  0.00  0.00    +0.000 A 
ATOM     18  C   UNL     1      -1.758  11.427  17.500  0.00  0.00    +0.000 A 
ATOM     19  C   UNL     1      -2.630  11.062  16.463  0.00  0.00    +0.000 A 
ATOM     20  C   UNL     1      -4.003  11.108  16.664  0.00  0.00    +0.000 A 
ATOM     21  C   UNL     1      -4.502  11.548  17.886  0.00  0.00    +0.000 A 
ATOM     22  C   UNL     1      -3.633  11.937  18.920  0.00  0.00    +0.000 A 
ATOM     23 CL   UNL     1      -4.396  12.576  20.334  0.00  0.00    +0.000 Cl
ENDBRANCH  16  17
BRANCH  16  24
ATOM     24  C   UNL     1      -0.976  11.176  20.869  0.00  0.00    +0.000 A 
ATOM     25  C   UNL     1      -0.547   9.900  20.453  0.00  0.00    +0.000 A 
ATOM     26  C   UNL     1      -0.133   8.935  21.375  0.00  0.00    +0.000 A 
ATOM     27  C   UNL     1      -0.188   9.210  22.736  0.00  0.00    +0.000 A 
ATOM     28  C   UNL     1      -0.717  10.418  23.175  0.00  0.00    +0.000 A 
ATOM     29  C   UNL     1      -1.126  11.388  22.253  0.00  0.00    +0.000 A 
ATOM     30 CL   UNL     1      -1.801  12.827  22.925  0.00  0.00    +0.000 Cl
ENDBRANCH  16  24
ENDBRANCH   8  16
TORSDOF 4
ENDMDL
MODEL 4
REMARK VINA RESULT:      -6.3      2.149      3.901
REMARK  Name = 
REMARK  4 active torsions:
REMARK  status: ('A' for Active; 'I' for Inactive)
REMARK    1  A    between atoms: C_6  and  C_7
REMARK    2  A    between atoms: N_14  and  C_15
REMARK    3  A    between atoms: C_15  and  C_16
REMARK    4  A    between atoms: C_15  and  C_23
REMARK                            x       y       z     vdW  Elec       q    Type
REMARK                         _______ _______ _______ _____ _____    ______ ____
ROOT
ATOM      1  C   UNL     1       1.795  14.140  21.242  0.00  0.00    +0.000 C 
ATOM      2  C   UNL     1       1.902  12.630  20.885  0.00  0.00    +0.000 C 
ATOM      3  C   UNL     1       1.336  12.264  19.493  0.00  0.00    +0.000 C 
ATOM      4  C   UNL     1       2.133  13.012  18.419  0.00  0.00    +0.000 C 
ATOM      5  C   UNL     1       1.337  14.297  18.214  0.00  0.00    +0.000 C 
ATOM      6  C   UNL     1       0.179  14.230  19.229  0.00  0.00    +0.000 C 
ATOM      7  C   UNL     1       0.462  14.660  20.688  0.00  0.00    +0.000 C 
ATOM      8  N   UNL     1      -0.008  12.770  19.171  0.00  0.00    +0.000 NA
ENDROOT
BRANCH   1  14
ATOM      9  F   UNL     1       3.117  18.626  20.560  0.00  0.00    +0.000 F 
ATOM     10  C   UNL     1       3.518  17.351  20.643  0.00  0.00    +0.000 A 
ATOM     11  C   UNL     1       4.860  17.063  20.581  0.00  0.00    +0.000 A 
ATOM     12  C   UNL     1       5.239  15.726  20.660  0.00  0.00    +0.000 A 
ATOM     13  C   UNL     1       4.262  14.729  20.811  0.00  0.00    +0.000 A 
ATOM     14  C   UNL     1       2.928  15.105  20.886  0.00  0.00    +0.000 A 
ATOM     15  N   UNL     1       2.572  16.414  20.803  0.00  0.00    +0.000 NA
ENDBRANCH   1  14
BRANCH   8  16
ATOM     16  C   UNL     1      -1.251  12.273  19.817  0.00  0.00    +0.000 C 
BRANCH  16  17
ATOM     17  C   UNL     1      -2.265  11.820  18.737  0.00  0.00    +0.000 A 
ATOM     18  C   UNL     1      -1.785  11.374  17.483  0.00  0.00    +0.000 A 
ATOM     19  C   UNL     1      -2.655  10.998  16.448  0.00  0.00    +0.000 A 
ATOM     20  C   UNL     1      -4.028  11.048  16.644  0.00  0.00    +0.000 A 
ATOM     21  C   UNL     1      -4.531  11.501  17.861  0.00  0.00    +0.000 A 
ATOM     22  C   UNL     1      -3.664  11.901  18.892  0.00  0.00    +0.000 A 
ATOM     23 CL   UNL     1      -4.430  12.557  20.297  0.00  0.00    +0.000 Cl
ENDBRANCH  16  17
BRANCH  16  24
ATOM     24  C   UNL     1      -1.000  11.157  20.848  0.00  0.00    +0.000 A 
ATOM     25  C   UNL     1      -0.570   9.879  20.436  0.00  0.00    +0.000 A 
ATOM     26  C   UNL     1      -0.147   8.920  21.360  0.00  0.00    +0.000 A 
ATOM     27  C   UNL     1      -0.196   9.203  22.721  0.00  0.00    +0.000 A 
ATOM     28  C   UNL     1      -0.726  10.411  23.156  0.00  0.00    +0.000 A 
ATOM     29  C   UNL     1      -1.143  11.376  22.231  0.00  0.00    +0.000 A 
ATOM     30 CL   UNL     1      -1.819  12.816  22.899  0.00  0.00    +0.000 Cl
ENDBRANCH  16  24
ENDBRANCH   8  16
TORSDOF 4
ENDMDL
MODEL 5
REMARK VINA RESULT:      -6.3      2.181      4.181
REMARK  Name = 
REMARK  4 active torsions:
REMARK  status: ('A' for Active; 'I' for Inactive)
REMARK    1  A    between atoms: C_6  and  C_7
REMARK    2  A    between atoms: N_14  and  C_15
REMARK    3  A    between atoms: C_15  and  C_16
REMARK    4  A    between atoms: C_15  and  C_23
REMARK                            x       y       z     vdW  Elec       q    Type
REMARK                         _______ _______ _______ _____ _____    ______ ____
ROOT
ATOM      1  C   UNL     1       1.727  14.425  20.283  0.00  0.00    +0.000 C 
ATOM      2  C   UNL     1       1.919  12.946  20.726  0.00  0.00    +0.000 C 
ATOM      3  C   UNL     1       1.571  11.905  19.637  0.00  0.00    +0.000 C 
ATOM      4  C   UNL     1       2.498  12.112  18.435  0.00  0.00    +0.000 C 
ATOM      5  C   UNL     1       1.712  13.061  17.536  0.00  0.00    +0.000 C 
ATOM      6  C   UNL     1       0.420  13.386  18.311  0.00  0.00    +0.000 C 
ATOM      7  C   UNL     1       0.478  14.490  19.395  0.00  0.00    +0.000 C 
ATOM      8  N   UNL     1       0.276  12.069  18.955  0.00  0.00    +0.000 NA
ENDROOT
BRANCH   1  14
ATOM      9  F   UNL     1       3.059  17.496  16.947  0.00  0.00    +0.000 F 
ATOM     10  C   UNL     1       3.441  16.778  18.011  0.00  0.00    +0.000 A 
ATOM     11  C   UNL     1       4.714  16.930  18.503  0.00  0.00    +0.000 A 
ATOM     12  C   UNL     1       5.079  16.160  19.604  0.00  0.00    +0.000 A 
ATOM     13  C   UNL     1       4.152  15.277  20.178  0.00  0.00    +0.000 A 
ATOM     14  C   UNL     1       2.877  15.197  19.635  0.00  0.00    +0.000 A 
ATOM     15  N   UNL     1       2.536  15.952  18.557  0.00  0.00    +0.000 NA
ENDBRANCH   1  14
BRANCH   8  16
ATOM     16  C   UNL     1      -1.036  11.834  19.612  0.00  0.00    +0.000 C 
BRANCH  16  17
ATOM     17  C   UNL     1      -2.052  11.281  18.582  0.00  0.00    +0.000 A 
ATOM     18  C   UNL     1      -1.584  10.503  17.498  0.00  0.00    +0.000 A 
ATOM     19  C   UNL     1      -2.450  10.016  16.506  0.00  0.00    +0.000 A 
ATOM     20  C   UNL     1      -3.809  10.285  16.580  0.00  0.00    +0.000 A 
ATOM     21  C   UNL     1      -4.298  11.065  17.624  0.00  0.00    +0.000 A 
ATOM     22  C   UNL     1      -3.432  11.575  18.606  0.00  0.00    +0.000 A 
ATOM     23 CL   UNL     1      -4.160  12.627  19.769  0.00  0.00    +0.000 Cl
ENDBRANCH  16  17
BRANCH  16  24
ATOM     24  C   UNL     1      -0.946  10.922  20.849  0.00  0.00    +0.000 A 
ATOM     25  C   UNL     1      -0.536   9.579  20.726  0.00  0.00    +0.000 A 
ATOM     26  C   UNL     1      -0.257   8.797  21.850  0.00  0.00    +0.000 A 
ATOM     27  C   UNL     1      -0.431   9.328  23.123  0.00  0.00    +0.000 A 
ATOM     28  C   UNL     1      -0.945  10.611  23.271  0.00  0.00    +0.000 A 
ATOM     29  C   UNL     1      -1.218  11.398  22.146  0.00  0.00    +0.000 A 
ATOM     30 CL   UNL     1      -1.890  12.956  22.463  0.00  0.00    +0.000 Cl
ENDBRANCH  16  24
ENDBRANCH   8  16
TORSDOF 4
ENDMDL
MODEL 6
REMARK VINA RESULT:      -6.2      2.104      3.339
REMARK  Name = 
REMARK  4 active torsions:
REMARK  status: ('A' for Active; 'I' for Inactive)
REMARK    1  A    between atoms: C_6  and  C_7
REMARK    2  A    between atoms: N_14  and  C_15
REMARK    3  A    between atoms: C_15  and  C_16
REMARK    4  A    between atoms: C_15  and  C_23
REMARK                            x       y       z     vdW  Elec       q    Type
REMARK                         _______ _______ _______ _____ _____    ______ ____
ROOT
ATOM      1  C   UNL     1       1.544  14.867  18.881  0.00  0.00    +0.000 C 
ATOM      2  C   UNL     1      -0.003  15.003  18.791  0.00  0.00    +0.000 C 
ATOM      3  C   UNL     1      -0.769  14.340  19.958  0.00  0.00    +0.000 C 
ATOM      4  C   UNL     1      -0.361  15.017  21.270  0.00  0.00    +0.000 C 
ATOM      5  C   UNL     1       0.796  14.158  21.770  0.00  0.00    +0.000 C 
ATOM      6  C   UNL     1       1.016  13.089  20.681  0.00  0.00    +0.000 C 
ATOM      7  C   UNL     1       1.860  13.474  19.441  0.00  0.00    +0.000 C 
ATOM      8  N   UNL     1      -0.399  12.956  20.292  0.00  0.00    +0.000 NA
ENDROOT
BRANCH   1  14
ATOM      9  F   UNL     1       5.770  16.102  20.599  0.00  0.00    +0.000 F 
ATOM     10  C   UNL     1       4.513  16.494  20.356  0.00  0.00    +0.000 A 
ATOM     11  C   UNL     1       4.156  17.798  20.600  0.00  0.00    +0.000 A 
ATOM     12  C   UNL     1       2.839  18.167  20.345  0.00  0.00    +0.000 A 
ATOM     13  C   UNL     1       1.932  17.221  19.843  0.00  0.00    +0.000 A 
ATOM     14  C   UNL     1       2.376  15.928  19.603  0.00  0.00    +0.000 A 
ATOM     15  N   UNL     1       3.664  15.580  19.861  0.00  0.00    +0.000 NA
ENDBRANCH   1  14
BRANCH   8  16
ATOM     16  C   UNL     1      -0.700  11.790  19.421  0.00  0.00    +0.000 C 
BRANCH  16  17
ATOM     17  C   UNL     1      -0.142  10.493  20.060  0.00  0.00    +0.000 A 
ATOM     18  C   UNL     1      -0.640  10.072  21.315  0.00  0.00    +0.000 A 
ATOM     19  C   UNL     1      -0.140   8.934  21.967  0.00  0.00    +0.000 A 
ATOM     20  C   UNL     1       0.864   8.181  21.374  0.00  0.00    +0.000 A 
ATOM     21  C   UNL     1       1.388   8.581  20.148  0.00  0.00    +0.000 A 
ATOM     22  C   UNL     1       0.907   9.733  19.503  0.00  0.00    +0.000 A 
ATOM     23 CL   UNL     1       1.736  10.175  18.051  0.00  0.00    +0.000 Cl
ENDBRANCH  16  17
BRANCH  16  24
ATOM     24  C   UNL     1      -2.196  11.646  19.087  0.00  0.00    +0.000 A 
ATOM     25  C   UNL     1      -3.174  12.305  19.860  0.00  0.00    +0.000 A 
ATOM     26  C   UNL     1      -4.511  12.350  19.458  0.00  0.00    +0.000 A 
ATOM     27  C   UNL     1      -4.907  11.692  18.299  0.00  0.00    +0.000 A 
ATOM     28  C   UNL     1      -3.984  10.939  17.583  0.00  0.00    +0.000 A 
ATOM     29  C   UNL     1      -2.643  10.899  17.981  0.00  0.00    +0.000 A 
ATOM     30 CL   UNL     1      -1.607   9.895  17.033  0.00  0.00    +0.000 Cl
ENDBRANCH  16  24
ENDBRANCH   8  16
TORSDOF 4
ENDMDL
MODEL 7
REMARK VINA RESULT:      -6.1      1.702      2.596
REMARK  Name = 
REMARK  4 active torsions:
REMARK  status: ('A' for Active; 'I' for Inactive)
REMARK    1  A    between atoms: C_6  and  C_7
REMARK    2  A    between atoms: N_14  and  C_15
REMARK    3  A    between atoms: C_15  and  C_16
REMARK    4  A    between atoms: C_15  and  C_23
REMARK                            x       y       z     vdW  Elec       q    Type
REMARK                         _______ _______ _______ _____ _____    ______ ____
ROOT
ATOM      1  C   UNL     1       2.362  13.850  18.978  0.00  0.00    +0.000 C 
ATOM      2  C   UNL     1       1.035  14.220  18.256  0.00  0.00    +0.000 C 
ATOM      3  C   UNL     1      -0.183  14.363  19.197  0.00  0.00    +0.000 C 
ATOM      4  C   UNL     1       0.087  15.495  20.193  0.00  0.00    +0.000 C 
ATOM      5  C   UNL     1       0.708  14.779  21.388  0.00  0.00    +0.000 C 
ATOM      6  C   UNL     1       0.814  13.298  20.972  0.00  0.00    +0.000 C 
ATOM      7  C   UNL     1       2.024  12.868  20.107  0.00  0.00    +0.000 C 
ATOM      8  N   UNL     1      -0.412  13.268  20.155  0.00  0.00    +0.000 NA
ENDROOT
BRANCH   1  14
ATOM      9  F   UNL     1       5.977  14.973  21.809  0.00  0.00    +0.000 F 
ATOM     10  C   UNL     1       5.136  15.401  20.858  0.00  0.00    +0.000 A 
ATOM     11  C   UNL     1       5.299  16.661  20.336  0.00  0.00    +0.000 A 
ATOM     12  C   UNL     1       4.400  17.077  19.357  0.00  0.00    +0.000 A 
ATOM     13  C   UNL     1       3.382  16.212  18.930  0.00  0.00    +0.000 A 
ATOM     14  C   UNL     1       3.298  14.946  19.493  0.00  0.00    +0.000 A 
ATOM     15  N   UNL     1       4.179  14.555  20.451  0.00  0.00    +0.000 NA
ENDBRANCH   1  14
BRANCH   8  16
ATOM     16  C   UNL     1      -0.865  11.910  19.759  0.00  0.00    +0.000 C 
BRANCH  16  17
ATOM     17  C   UNL     1      -0.569  10.900  20.896  0.00  0.00    +0.000 A 
ATOM     18  C   UNL     1      -1.089  11.143  22.189  0.00  0.00    +0.000 A 
ATOM     19  C   UNL     1      -0.814  10.291  23.270  0.00  0.00    +0.000 A 
ATOM     20  C   UNL     1      -0.021   9.168  23.084  0.00  0.00    +0.000 A 
ATOM     21  C   UNL     1       0.522   8.913  21.827  0.00  0.00    +0.000 A 
ATOM     22  C   UNL     1       0.269   9.775  20.747  0.00  0.00    +0.000 A 
ATOM     23 CL   UNL     1       1.108   9.401  19.282  0.00  0.00    +0.000 Cl
ENDBRANCH  16  17
BRANCH  16  24
ATOM     24  C   UNL     1      -2.347  11.858  19.341  0.00  0.00    +0.000 A 
ATOM     25  C   UNL     1      -3.324  12.578  20.058  0.00  0.00    +0.000 A 
ATOM     26  C   UNL     1      -4.631  12.703  19.581  0.00  0.00    +0.000 A 
ATOM     27  C   UNL     1      -5.001  12.068  18.402  0.00  0.00    +0.000 A 
ATOM     28  C   UNL     1      -4.088  11.257  17.739  0.00  0.00    +0.000 A 
ATOM     29  C   UNL     1      -2.776  11.136  18.211  0.00  0.00    +0.000 A 
ATOM     30 CL   UNL     1      -1.752  10.068  17.322  0.00  0.00    +0.000 Cl
ENDBRANCH  16  24
ENDBRANCH   8  16
TORSDOF 4
ENDMDL
MODEL 8
REMARK VINA RESULT:      -6.1      2.064      3.964
REMARK  Name = 
REMARK  4 active torsions:
REMARK  status: ('A' for Active; 'I' for Inactive)
REMARK    1  A    between atoms: C_6  and  C_7
REMARK    2  A    between atoms: N_14  and  C_15
REMARK    3  A    between atoms: C_15  and  C_16
REMARK    4  A    between atoms: C_15  and  C_23
REMARK                            x       y       z     vdW  Elec       q    Type
REMARK                         _______ _______ _______ _____ _____    ______ ____
ROOT
ATOM      1  C   UNL     1       0.856  14.953  21.718  0.00  0.00    +0.000 C 
ATOM      2  C   UNL     1       1.340  13.515  21.373  0.00  0.00    +0.000 C 
ATOM      3  C   UNL     1       0.993  13.054  19.939  0.00  0.00    +0.000 C 
ATOM      4  C   UNL     1       1.682  13.984  18.936  0.00  0.00    +0.000 C 
ATOM      5  C   UNL     1       0.629  15.054  18.661  0.00  0.00    +0.000 C 
ATOM      6  C   UNL     1      -0.563  14.703  19.573  0.00  0.00    +0.000 C 
ATOM      7  C   UNL     1      -0.510  15.160  21.051  0.00  0.00    +0.000 C 
ATOM      8  N   UNL     1      -0.400  13.240  19.503  0.00  0.00    +0.000 NA
ENDROOT
BRANCH   1  14
ATOM      9  F   UNL     1       5.234  16.524  20.877  0.00  0.00    +0.000 F 
ATOM     10  C   UNL     1       3.937  16.846  20.970  0.00  0.00    +0.000 A 
ATOM     11  C   UNL     1       3.539  18.125  20.665  0.00  0.00    +0.000 A 
ATOM     12  C   UNL     1       2.185  18.427  20.783  0.00  0.00    +0.000 A 
ATOM     13  C   UNL     1       1.280  17.435  21.189  0.00  0.00    +0.000 A 
ATOM     14  C   UNL     1       1.759  16.160  21.458  0.00  0.00    +0.000 A 
ATOM     15  N   UNL     1       3.084  15.880  21.343  0.00  0.00    +0.000 NA
ENDBRANCH   1  14
BRANCH   8  16
ATOM     16  C   UNL     1      -1.543  12.458  20.041  0.00  0.00    +0.000 C 
BRANCH  16  17
ATOM     17  C   UNL     1      -2.438  11.960  18.878  0.00  0.00    +0.000 A 
ATOM     18  C   UNL     1      -1.838  11.596  17.650  0.00  0.00    +0.000 A 
ATOM     19  C   UNL     1      -2.599  11.185  16.546  0.00  0.00    +0.000 A 
ATOM     20  C   UNL     1      -3.982  11.116  16.644  0.00  0.00    +0.000 A 
ATOM     21  C   UNL     1      -4.604  11.487  17.833  0.00  0.00    +0.000 A 
ATOM     22  C   UNL     1      -3.847  11.922  18.934  0.00  0.00    +0.000 A 
ATOM     23 CL   UNL     1      -4.760  12.467  20.297  0.00  0.00    +0.000 Cl
ENDBRANCH  16  17
BRANCH  16  24
ATOM     24  C   UNL     1      -1.112  11.291  20.949  0.00  0.00    +0.000 A 
ATOM     25  C   UNL     1      -0.504  10.142  20.406  0.00  0.00    +0.000 A 
ATOM     26  C   UNL     1       0.072   9.167  21.226  0.00  0.00    +0.000 A 
ATOM     27  C   UNL     1       0.005   9.298  22.608  0.00  0.00    +0.000 A 
ATOM     28  C   UNL     1      -0.692  10.363  23.167  0.00  0.00    +0.000 A 
ATOM     29  C   UNL     1      -1.262  11.344  22.348  0.00  0.00    +0.000 A 
ATOM     30 CL   UNL     1      -2.134  12.591  23.163  0.00  0.00    +0.000 Cl
ENDBRANCH  16  24
ENDBRANCH   8  16
TORSDOF 4
ENDMDL
MODEL 9
REMARK VINA RESULT:      -6.0      1.107      1.405
REMARK  Name = 
REMARK  4 active torsions:
REMARK  status: ('A' for Active; 'I' for Inactive)
REMARK    1  A    between atoms: C_6  and  C_7
REMARK    2  A    between atoms: N_14  and  C_15
REMARK    3  A    between atoms: C_15  and  C_16
REMARK    4  A    between atoms: C_15  and  C_23
REMARK                            x       y       z     vdW  Elec       q    Type
REMARK                         _______ _______ _______ _____ _____    ______ ____
ROOT
ATOM      1  C   UNL     1       2.207  13.284  19.400  0.00  0.00    +0.000 C 
ATOM      2  C   UNL     1       1.003  13.185  18.421  0.00  0.00    +0.000 C 
ATOM      3  C   UNL     1      -0.229  14.019  18.841  0.00  0.00    +0.000 C 
ATOM      4  C   UNL     1       0.163  15.500  18.882  0.00  0.00    +0.000 C 
ATOM      5  C   UNL     1       0.587  15.716  20.332  0.00  0.00    +0.000 C 
ATOM      6  C   UNL     1       0.475  14.333  21.004  0.00  0.00    +0.000 C 
ATOM      7  C   UNL     1       1.647  13.338  20.827  0.00  0.00    +0.000 C 
ATOM      8  N   UNL     1      -0.689  13.867  20.230  0.00  0.00    +0.000 NA
ENDROOT
BRANCH   1  14
ATOM      9  F   UNL     1       5.809  15.677  21.307  0.00  0.00    +0.000 F 
ATOM     10  C   UNL     1       5.094  15.444  20.199  0.00  0.00    +0.000 A 
ATOM     11  C   UNL     1       5.478  16.027  19.016  0.00  0.00    +0.000 A 
ATOM     12  C   UNL     1       4.705  15.770  17.887  0.00  0.00    +0.000 A 
ATOM     13  C   UNL     1       3.586  14.930  17.982  0.00  0.00    +0.000 A 
ATOM     14  C   UNL     1       3.277  14.362  19.210  0.00  0.00    +0.000 A 
ATOM     15  N   UNL     1       4.037  14.625  20.305  0.00  0.00    +0.000 NA
ENDBRANCH   1  14
BRANCH   8  16
ATOM     16  C   UNL     1      -1.334  12.634  20.754  0.00  0.00    +0.000 C 
BRANCH  16  17
ATOM     17  C   UNL     1      -2.315  12.995  21.897  0.00  0.00    +0.000 A 
ATOM     18  C   UNL     1      -2.558  12.051  22.922  0.00  0.00    +0.000 A 
ATOM     19  C   UNL     1      -3.473  12.300  23.957  0.00  0.00    +0.000 A 
ATOM     20  C   UNL     1      -4.161  13.505  23.999  0.00  0.00    +0.000 A 
ATOM     21  C   UNL     1      -3.959  14.445  22.993  0.00  0.00    +0.000 A 
ATOM     22  C   UNL     1      -3.061  14.191  21.942  0.00  0.00    +0.000 A 
ATOM     23 CL   UNL     1      -3.006  15.394  20.702  0.00  0.00    +0.000 Cl
ENDBRANCH  16  17
BRANCH  16  24
ATOM     24  C   UNL     1      -2.032  11.800  19.664  0.00  0.00    +0.000 A 
ATOM     25  C   UNL     1      -3.304  12.166  19.179  0.00  0.00    +0.000 A 
ATOM     26  C   UNL     1      -3.863  11.544  18.060  0.00  0.00    +0.000 A 
ATOM     27  C   UNL     1      -3.182  10.507  17.432  0.00  0.00    +0.000 A 
ATOM     28  C   UNL     1      -1.981  10.050  17.961  0.00  0.00    +0.000 A 
ATOM     29  C   UNL     1      -1.416  10.677  19.079  0.00  0.00    +0.000 A 
ATOM     30 CL   UNL     1       0.056   9.990  19.662  0.00  0.00    +0.000 Cl
ENDBRANCH  16  24
ENDBRANCH   8  16
TORSDOF 4
ENDMDL
