MODEL 1
REMARK VINA RESULT:      -7.7      0.000      0.000
REMARK  Name = 
REMARK  6 active torsions:
REMARK  status: ('A' for Active; 'I' for Inactive)
REMARK    1  A    between atoms: C_1  and  C_2
REMARK    2  A    between atoms: C_5  and  N_6
REMARK    3  A    between atoms: C_7  and  C_9
REMARK    4  A    between atoms: C_9  and  O_10
REMARK    5  A    between atoms: O_10  and  C_11
REMARK    6  A    between atoms: C_14  and  C_15
REMARK                            x       y       z     vdW  Elec       q    Type
REMARK                         _______ _______ _______ _____ _____    ______ ____
ROOT
ATOM      1  C   UNL     1       2.376   6.887  19.397  0.00  0.00    +0.000 A 
ATOM      2  C   UNL     1       2.424   7.527  18.154  0.00  0.00    +0.000 A 
ATOM      3  C   UNL     1       1.875   8.803  17.994  0.00  0.00    +0.000 A 
ATOM      4  C   UNL     1       1.276   9.436  19.080  0.00  0.00    +0.000 A 
ATOM      5  C   UNL     1       1.200   8.785  20.313  0.00  0.00    +0.000 A 
ATOM      6  C   UNL     1       1.740   7.511  20.470  0.00  0.00    +0.000 A 
ENDROOT
BRANCH   4   7
ATOM      7  C   UNL     1       0.734  10.783  18.969  0.00  0.00    +0.000 C 
ATOM      8  C   UNL     1      -0.485  11.078  18.471  0.00  0.00    +0.000 C 
ATOM      9  S   UNL     1      -1.628  10.058  17.710  0.00  0.00    +0.000 S 
ATOM     10  C   UNL     1      -2.827  11.336  17.696  0.00  0.00    +0.000 C 
ATOM     11  S   UNL     1      -4.282  11.309  16.905  0.00  0.00    +0.000 S 
ATOM     12  N   UNL     1      -2.414  12.381  18.467  0.00  0.00    +0.000 N 
ATOM     13  C   UNL     1      -1.062  12.422  18.689  0.00  0.00    +0.000 C 
ATOM     14  O   UNL     1      -0.428  13.424  18.986  0.00  0.00    +0.000 OA
ATOM     15  H   UNL     1      -2.905  12.370  19.358  0.00  0.00    +0.000 HD
ENDBRANCH   4   7
BRANCH   1  16
ATOM     16  O   UNL     1       2.887   5.645  19.660  0.00  0.00    +0.000 OA
BRANCH  16  17
ATOM     17  C   UNL     1       4.304   5.557  19.519  0.00  0.00    +0.000 C 
BRANCH  17  19
ATOM     18  N   UNL     1       5.168   5.554  17.243  0.00  0.00    +0.000 N 
ATOM     19  C   UNL     1       4.726   4.767  18.279  0.00  0.00    +0.000 C 
ATOM     20  O   UNL     1       4.650   3.537  18.306  0.00  0.00    +0.000 OA
ATOM     21  H   UNL     1       5.133   6.549  17.398  0.00  0.00    +0.000 HD
BRANCH  18  26
ATOM     22  C   UNL     1       6.933   3.599  12.148  0.00  0.00    +0.000 C 
ATOM     23  C   UNL     1       6.480   4.138  13.473  0.00  0.00    +0.000 A 
ATOM     24  C   UNL     1       7.375   4.800  14.315  0.00  0.00    +0.000 A 
ATOM     25  C   UNL     1       6.966   5.277  15.552  0.00  0.00    +0.000 A 
ATOM     26  C   UNL     1       5.641   5.110  15.988  0.00  0.00    +0.000 A 
ATOM     27  C   UNL     1       4.737   4.462  15.137  0.00  0.00    +0.000 A 
ATOM     28  C   UNL     1       5.153   3.979  13.889  0.00  0.00    +0.000 A 
ENDBRANCH  18  26
ENDBRANCH  17  19
ENDBRANCH  16  17
ENDBRANCH   1  16
TORSDOF 5
ENDMDL
MODEL 2
REMARK VINA RESULT:      -7.6      1.189      1.350
REMARK  Name = 
REMARK  6 active torsions:
REMARK  status: ('A' for Active; 'I' for Inactive)
REMARK    1  A    between atoms: C_1  and  C_2
REMARK    2  A    between atoms: C_5  and  N_6
REMARK    3  A    between atoms: C_7  and  C_9
REMARK    4  A    between atoms: C_9  and  O_10
REMARK    5  A    between atoms: O_10  and  C_11
REMARK    6  A    between atoms: C_14  and  C_15
REMARK                            x       y       z     vdW  Elec       q    Type
REMARK                         _______ _______ _______ _____ _____    ______ ____
ROOT
ATOM      1  C   UNL     1       2.064   7.060  19.973  0.00  0.00    +0.000 A 
ATOM      2  C   UNL     1       2.279   7.686  18.741  0.00  0.00    +0.000 A 
ATOM      3  C   UNL     1       1.730   8.945  18.482  0.00  0.00    +0.000 A 
ATOM      4  C   UNL     1       0.964   9.577  19.458  0.00  0.00    +0.000 A 
ATOM      5  C   UNL     1       0.722   8.939  20.677  0.00  0.00    +0.000 A 
ATOM      6  C   UNL     1       1.263   7.681  20.931  0.00  0.00    +0.000 A 
ENDROOT
BRANCH   4   7
ATOM      7  C   UNL     1       0.413  10.908  19.247  0.00  0.00    +0.000 C 
ATOM      8  C   UNL     1      -0.738  11.164  18.590  0.00  0.00    +0.000 C 
ATOM      9  S   UNL     1      -1.752  10.102  17.712  0.00  0.00    +0.000 S 
ATOM     10  C   UNL     1      -2.965  11.351  17.514  0.00  0.00    +0.000 C 
ATOM     11  S   UNL     1      -4.304  11.274  16.543  0.00  0.00    +0.000 S 
ATOM     12  N   UNL     1      -2.677  12.420  18.308  0.00  0.00    +0.000 N 
ATOM     13  C   UNL     1      -1.366  12.497  18.701  0.00  0.00    +0.000 C 
ATOM     14  O   UNL     1      -0.797  13.520  19.054  0.00  0.00    +0.000 OA
ATOM     15  H   UNL     1      -3.278  12.416  19.128  0.00  0.00    +0.000 HD
ENDBRANCH   4   7
BRANCH   1  16
ATOM     16  O   UNL     1       2.560   5.835  20.328  0.00  0.00    +0.000 OA
BRANCH  16  17
ATOM     17  C   UNL     1       1.955   4.740  19.643  0.00  0.00    +0.000 C 
BRANCH  17  19
ATOM     18  N   UNL     1       3.809   4.990  18.084  0.00  0.00    +0.000 N 
ATOM     19  C   UNL     1       2.519   4.541  18.235  0.00  0.00    +0.000 C 
ATOM     20  O   UNL     1       1.807   4.007  17.382  0.00  0.00    +0.000 OA
ATOM     21  H   UNL     1       4.223   5.425  18.893  0.00  0.00    +0.000 HD
BRANCH  18  26
ATOM     22  C   UNL     1       7.091   4.524  13.403  0.00  0.00    +0.000 C 
ATOM     23  C   UNL     1       6.211   4.659  14.611  0.00  0.00    +0.000 A 
ATOM     24  C   UNL     1       5.773   5.915  15.034  0.00  0.00    +0.000 A 
ATOM     25  C   UNL     1       4.981   6.047  16.166  0.00  0.00    +0.000 A 
ATOM     26  C   UNL     1       4.596   4.921  16.912  0.00  0.00    +0.000 A 
ATOM     27  C   UNL     1       5.020   3.658  16.479  0.00  0.00    +0.000 A 
ATOM     28  C   UNL     1       5.821   3.528  15.337  0.00  0.00    +0.000 A 
ENDBRANCH  18  26
ENDBRANCH  17  19
ENDBRANCH  16  17
ENDBRANCH   1  16
TORSDOF 5
ENDMDL
MODEL 3
REMARK VINA RESULT:      -7.6      0.427      1.038
REMARK  Name = 
REMARK  6 active torsions:
REMARK  status: ('A' for Active; 'I' for Inactive)
REMARK    1  A    between atoms: C_1  and  C_2
REMARK    2  A    between atoms: C_5  and  N_6
REMARK    3  A    between atoms: C_7  and  C_9
REMARK    4  A    between atoms: C_9  and  O_10
REMARK    5  A    between atoms: O_10  and  C_11
REMARK    6  A    between atoms: C_14  and  C_15
REMARK                            x       y       z     vdW  Elec       q    Type
REMARK                         _______ _______ _______ _____ _____    ______ ____
ROOT
ATOM      1  C   UNL     1       2.371   6.947  19.135  0.00  0.00    +0.000 A 
ATOM      2  C   UNL     1       1.787   7.510  20.274  0.00  0.00    +0.000 A 
ATOM      3  C   UNL     1       1.277   8.811  20.239  0.00  0.00    +0.000 A 
ATOM      4  C   UNL     1       1.354   9.549  19.061  0.00  0.00    +0.000 A 
ATOM      5  C   UNL     1       1.965   9.000  17.931  0.00  0.00    +0.000 A 
ATOM      6  C   UNL     1       2.480   7.706  17.970  0.00  0.00    +0.000 A 
ENDROOT
BRANCH   4   7
ATOM      7  C   UNL     1       0.794  10.890  18.967  0.00  0.00    +0.000 C 
ATOM      8  C   UNL     1      -0.449  11.169  18.522  0.00  0.00    +0.000 C 
ATOM      9  S   UNL     1      -1.614  10.134  17.817  0.00  0.00    +0.000 S 
ATOM     10  C   UNL     1      -2.825  11.400  17.850  0.00  0.00    +0.000 C 
ATOM     11  S   UNL     1      -4.313  11.353  17.123  0.00  0.00    +0.000 S 
ATOM     12  N   UNL     1      -2.390  12.452  18.596  0.00  0.00    +0.000 N 
ATOM     13  C   UNL     1      -1.030  12.508  18.759  0.00  0.00    +0.000 C 
ATOM     14  O   UNL     1      -0.395  13.519  19.023  0.00  0.00    +0.000 OA
ATOM     15  H   UNL     1      -2.841  12.441  19.508  0.00  0.00    +0.000 HD
ENDBRANCH   4   7
BRANCH   1  16
ATOM     16  O   UNL     1       2.893   5.684  19.062  0.00  0.00    +0.000 OA
BRANCH  16  17
ATOM     17  C   UNL     1       4.259   5.594  19.462  0.00  0.00    +0.000 C 
BRANCH  17  19
ATOM     18  N   UNL     1       4.765   5.371  17.091  0.00  0.00    +0.000 N 
ATOM     19  C   UNL     1       5.161   5.031  18.362  0.00  0.00    +0.000 C 
ATOM     20  O   UNL     1       6.136   4.352  18.686  0.00  0.00    +0.000 OA
ATOM     21  H   UNL     1       3.919   5.915  17.022  0.00  0.00    +0.000 HD
BRANCH  18  26
ATOM     22  C   UNL     1       7.241   3.769  12.172  0.00  0.00    +0.000 C 
ATOM     23  C   UNL     1       6.599   4.216  13.452  0.00  0.00    +0.000 A 
ATOM     24  C   UNL     1       7.322   4.956  14.389  0.00  0.00    +0.000 A 
ATOM     25  C   UNL     1       6.741   5.350  15.586  0.00  0.00    +0.000 A 
ATOM     26  C   UNL     1       5.408   5.018  15.883  0.00  0.00    +0.000 A 
ATOM     27  C   UNL     1       4.676   4.291  14.936  0.00  0.00    +0.000 A 
ATOM     28  C   UNL     1       5.266   3.893  13.730  0.00  0.00    +0.000 A 
ENDBRANCH  18  26
ENDBRANCH  17  19
ENDBRANCH  16  17
ENDBRANCH   1  16
TORSDOF 5
ENDMDL
MODEL 4
REMARK VINA RESULT:      -7.5      6.481      9.145
REMARK  Name = 
REMARK  6 active torsions:
REMARK  status: ('A' for Active; 'I' for Inactive)
REMARK    1  A    between atoms: C_1  and  C_2
REMARK    2  A    between atoms: C_5  and  N_6
REMARK    3  A    between atoms: C_7  and  C_9
REMARK    4  A    between atoms: C_9  and  O_10
REMARK    5  A    between atoms: O_10  and  C_11
REMARK    6  A    between atoms: C_14  and  C_15
REMARK                            x       y       z     vdW  Elec       q    Type
REMARK                         _______ _______ _______ _____ _____    ______ ____
ROOT
ATOM      1  C   UNL     1       7.288   7.630  17.582  0.00  0.00    +0.000 A 
ATOM      2  C   UNL     1       6.091   7.483  16.874  0.00  0.00    +0.000 A 
ATOM      3  C   UNL     1       5.421   6.256  16.864  0.00  0.00    +0.000 A 
ATOM      4  C   UNL     1       5.952   5.176  17.564  0.00  0.00    +0.000 A 
ATOM      5  C   UNL     1       7.163   5.312  18.245  0.00  0.00    +0.000 A 
ATOM      6  C   UNL     1       7.834   6.533  18.248  0.00  0.00    +0.000 A 
ENDROOT
BRANCH   4   7
ATOM      7  C   UNL     1       5.262   3.895  17.619  0.00  0.00    +0.000 C 
ATOM      8  C   UNL     1       4.316   3.574  18.526  0.00  0.00    +0.000 C 
ATOM      9  S   UNL     1       3.786   4.441  19.903  0.00  0.00    +0.000 S 
ATOM     10  C   UNL     1       2.482   3.302  20.173  0.00  0.00    +0.000 C 
ATOM     11  S   UNL     1       1.502   3.231  21.507  0.00  0.00    +0.000 S 
ATOM     12  N   UNL     1       2.348   2.471  19.102  0.00  0.00    +0.000 N 
ATOM     13  C   UNL     1       3.463   2.386  18.309  0.00  0.00    +0.000 C 
ATOM     14  O   UNL     1       3.726   1.452  17.565  0.00  0.00    +0.000 OA
ATOM     15  H   UNL     1       1.551   2.757  18.538  0.00  0.00    +0.000 HD
ENDBRANCH   4   7
BRANCH   1  16
ATOM     16  O   UNL     1       8.017   8.786  17.661  0.00  0.00    +0.000 OA
BRANCH  16  17
ATOM     17  C   UNL     1       8.593   9.025  18.943  0.00  0.00    +0.000 C 
BRANCH  17  19
ATOM     18  N   UNL     1       8.981  11.232  17.992  0.00  0.00    +0.000 N 
ATOM     19  C   UNL     1       9.269  10.394  19.041  0.00  0.00    +0.000 C 
ATOM     20  O   UNL     1       9.982  10.633  20.017  0.00  0.00    +0.000 OA
ATOM     21  H   UNL     1       8.394  10.848  17.267  0.00  0.00    +0.000 HD
BRANCH  18  26
ATOM     22  C   UNL     1      10.628  16.679  17.276  0.00  0.00    +0.000 C 
ATOM     23  C   UNL     1      10.221  15.250  17.480  0.00  0.00    +0.000 A 
ATOM     24  C   UNL     1      11.074  14.208  17.114  0.00  0.00    +0.000 A 
ATOM     25  C   UNL     1      10.692  12.884  17.276  0.00  0.00    +0.000 A 
ATOM     26  C   UNL     1       9.438  12.558  17.819  0.00  0.00    +0.000 A 
ATOM     27  C   UNL     1       8.587  13.602  18.204  0.00  0.00    +0.000 A 
ATOM     28  C   UNL     1       8.975  14.937  18.036  0.00  0.00    +0.000 A 
ENDBRANCH  18  26
ENDBRANCH  17  19
ENDBRANCH  16  17
ENDBRANCH   1  16
TORSDOF 5
ENDMDL
MODEL 5
REMARK VINA RESULT:      -7.4      6.305      8.912
REMARK  Name = 
REMARK  6 active torsions:
REMARK  status: ('A' for Active; 'I' for Inactive)
REMARK    1  A    between atoms: C_1  and  C_2
REMARK    2  A    between atoms: C_5  and  N_6
REMARK    3  A    between atoms: C_7  and  C_9
REMARK    4  A    between atoms: C_9  and  O_10
REMARK    5  A    between atoms: O_10  and  C_11
REMARK    6  A    between atoms: C_14  and  C_15
REMARK                            x       y       z     vdW  Elec       q    Type
REMARK                         _______ _______ _______ _____ _____    ______ ____
ROOT
ATOM      1  C   UNL     1       6.991   7.418  17.453  0.00  0.00    +0.000 A 
ATOM      2  C   UNL     1       7.291   6.253  18.168  0.00  0.00    +0.000 A 
ATOM      3  C   UNL     1       6.438   5.147  18.108  0.00  0.00    +0.000 A 
ATOM      4  C   UNL     1       5.283   5.209  17.332  0.00  0.00    +0.000 A 
ATOM      5  C   UNL     1       4.967   6.382  16.644  0.00  0.00    +0.000 A 
ATOM      6  C   UNL     1       5.813   7.486  16.710  0.00  0.00    +0.000 A 
ENDROOT
BRANCH   4   7
ATOM      7  C   UNL     1       4.392   4.065  17.205  0.00  0.00    +0.000 C 
ATOM      8  C   UNL     1       3.613   3.588  18.198  0.00  0.00    +0.000 C 
ATOM      9  S   UNL     1       3.556   4.034  19.849  0.00  0.00    +0.000 S 
ATOM     10  C   UNL     1       2.146   3.028  20.118  0.00  0.00    +0.000 C 
ATOM     11  S   UNL     1       1.471   2.656  21.585  0.00  0.00    +0.000 S 
ATOM     12  N   UNL     1       1.637   2.597  18.930  0.00  0.00    +0.000 N 
ATOM     13  C   UNL     1       2.525   2.636  17.886  0.00  0.00    +0.000 C 
ATOM     14  O   UNL     1       2.447   1.960  16.871  0.00  0.00    +0.000 OA
ATOM     15  H   UNL     1       0.809   3.136  18.691  0.00  0.00    +0.000 HD
ENDBRANCH   4   7
BRANCH   1  16
ATOM     16  O   UNL     1       7.761   8.549  17.439  0.00  0.00    +0.000 OA
BRANCH  16  17
ATOM     17  C   UNL     1       8.685   8.639  18.521  0.00  0.00    +0.000 C 
BRANCH  17  19
ATOM     18  N   UNL     1       9.071  10.925  17.775  0.00  0.00    +0.000 N 
ATOM     19  C   UNL     1       9.058  10.084  18.861  0.00  0.00    +0.000 C 
ATOM     20  O   UNL     1       9.297  10.372  20.035  0.00  0.00    +0.000 OA
ATOM     21  H   UNL     1       8.872  10.498  16.883  0.00  0.00    +0.000 HD
BRANCH  18  26
ATOM     22  C   UNL     1      10.014  16.582  17.744  0.00  0.00    +0.000 C 
ATOM     23  C   UNL     1       9.788  15.099  17.774  0.00  0.00    +0.000 A 
ATOM     24  C   UNL     1      10.843  14.214  17.548  0.00  0.00    +0.000 A 
ATOM     25  C   UNL     1      10.633  12.842  17.548  0.00  0.00    +0.000 A 
ATOM     26  C   UNL     1       9.355  12.309  17.781  0.00  0.00    +0.000 A 
ATOM     27  C   UNL     1       8.298  13.194  18.026  0.00  0.00    +0.000 A 
ATOM     28  C   UNL     1       8.512  14.579  18.022  0.00  0.00    +0.000 A 
ENDBRANCH  18  26
ENDBRANCH  17  19
ENDBRANCH  16  17
ENDBRANCH   1  16
TORSDOF 5
ENDMDL
MODEL 6
REMARK VINA RESULT:      -7.4      8.125      9.084
REMARK  Name = 
REMARK  6 active torsions:
REMARK  status: ('A' for Active; 'I' for Inactive)
REMARK    1  A    between atoms: C_1  and  C_2
REMARK    2  A    between atoms: C_5  and  N_6
REMARK    3  A    between atoms: C_7  and  C_9
REMARK    4  A    between atoms: C_9  and  O_10
REMARK    5  A    between atoms: O_10  and  C_11
REMARK    6  A    between atoms: C_14  and  C_15
REMARK                            x       y       z     vdW  Elec       q    Type
REMARK                         _______ _______ _______ _____ _____    ______ ____
ROOT
ATOM      1  C   UNL     1       9.337  10.698  18.601  0.00  0.00    +0.000 A 
ATOM      2  C   UNL     1      10.604  11.086  19.049  0.00  0.00    +0.000 A 
ATOM      3  C   UNL     1      11.073  12.381  18.810  0.00  0.00    +0.000 A 
ATOM      4  C   UNL     1      10.272  13.287  18.120  0.00  0.00    +0.000 A 
ATOM      5  C   UNL     1       9.019  12.891  17.645  0.00  0.00    +0.000 A 
ATOM      6  C   UNL     1       8.556  11.598  17.877  0.00  0.00    +0.000 A 
ENDROOT
BRANCH   4   7
ATOM      7  C   UNL     1      10.702  14.659  17.890  0.00  0.00    +0.000 C 
ATOM      8  C   UNL     1      10.394  15.701  18.691  0.00  0.00    +0.000 C 
ATOM      9  S   UNL     1       9.338  15.769  20.035  0.00  0.00    +0.000 S 
ATOM     10  C   UNL     1       9.853  17.401  20.414  0.00  0.00    +0.000 C 
ATOM     11  S   UNL     1       9.158  18.416  21.523  0.00  0.00    +0.000 S 
ATOM     12  N   UNL     1      10.951  17.734  19.680  0.00  0.00    +0.000 N 
ATOM     13  C   UNL     1      11.128  16.977  18.551  0.00  0.00    +0.000 C 
ATOM     14  O   UNL     1      11.766  17.322  17.566  0.00  0.00    +0.000 OA
ATOM     15  H   UNL     1      11.785  17.680  20.259  0.00  0.00    +0.000 HD
ENDBRANCH   4   7
BRANCH   1  16
ATOM     16  O   UNL     1       8.783   9.460  18.789  0.00  0.00    +0.000 OA
BRANCH  16  17
ATOM     17  C   UNL     1       8.271   8.865  17.598  0.00  0.00    +0.000 C 
BRANCH  17  19
ATOM     18  N   UNL     1       6.409   7.380  17.091  0.00  0.00    +0.000 N 
ATOM     19  C   UNL     1       7.531   7.553  17.865  0.00  0.00    +0.000 C 
ATOM     20  O   UNL     1       7.984   6.779  18.710  0.00  0.00    +0.000 OA
ATOM     21  H   UNL     1       6.180   8.140  16.469  0.00  0.00    +0.000 HD
BRANCH  18  26
ATOM     22  C   UNL     1       2.828   2.906  17.321  0.00  0.00    +0.000 C 
ATOM     23  C   UNL     1       3.760   4.079  17.232  0.00  0.00    +0.000 A 
ATOM     24  C   UNL     1       4.869   4.043  16.385  0.00  0.00    +0.000 A 
ATOM     25  C   UNL     1       5.748   5.115  16.318  0.00  0.00    +0.000 A 
ATOM     26  C   UNL     1       5.542   6.265  17.098  0.00  0.00    +0.000 A 
ATOM     27  C   UNL     1       4.420   6.311  17.935  0.00  0.00    +0.000 A 
ATOM     28  C   UNL     1       3.536   5.226  18.002  0.00  0.00    +0.000 A 
ENDBRANCH  18  26
ENDBRANCH  17  19
ENDBRANCH  16  17
ENDBRANCH   1  16
TORSDOF 5
ENDMDL
MODEL 7
REMARK VINA RESULT:      -7.4      7.187      8.008
REMARK  Name = 
REMARK  6 active torsions:
REMARK  status: ('A' for Active; 'I' for Inactive)
REMARK    1  A    between atoms: C_1  and  C_2
REMARK    2  A    between atoms: C_5  and  N_6
REMARK    3  A    between atoms: C_7  and  C_9
REMARK    4  A    between atoms: C_9  and  O_10
REMARK    5  A    between atoms: O_10  and  C_11
REMARK    6  A    between atoms: C_14  and  C_15
REMARK                            x       y       z     vdW  Elec       q    Type
REMARK                         _______ _______ _______ _____ _____    ______ ____
ROOT
ATOM      1  C   UNL     1       9.140  10.245  19.018  0.00  0.00    +0.000 A 
ATOM      2  C   UNL     1       9.684  10.890  20.133  0.00  0.00    +0.000 A 
ATOM      3  C   UNL     1       9.934  12.265  20.103  0.00  0.00    +0.000 A 
ATOM      4  C   UNL     1       9.640  12.993  18.953  0.00  0.00    +0.000 A 
ATOM      5  C   UNL     1       9.126  12.345  17.828  0.00  0.00    +0.000 A 
ATOM      6  C   UNL     1       8.884  10.973  17.857  0.00  0.00    +0.000 A 
ENDROOT
BRANCH   4   7
ATOM      7  C   UNL     1       9.841  14.434  18.895  0.00  0.00    +0.000 C 
ATOM      8  C   UNL     1       8.896  15.351  19.191  0.00  0.00    +0.000 C 
ATOM      9  S   UNL     1       7.234  15.131  19.536  0.00  0.00    +0.000 S 
ATOM     10  C   UNL     1       7.054  16.821  19.966  0.00  0.00    +0.000 C 
ATOM     11  S   UNL     1       5.629  17.614  20.254  0.00  0.00    +0.000 S 
ATOM     12  N   UNL     1       8.275  17.416  20.068  0.00  0.00    +0.000 N 
ATOM     13  C   UNL     1       9.282  16.761  19.406  0.00  0.00    +0.000 C 
ATOM     14  O   UNL     1      10.322  17.277  19.022  0.00  0.00    +0.000 OA
ATOM     15  H   UNL     1       8.528  17.526  21.047  0.00  0.00    +0.000 HD
ENDBRANCH   4   7
BRANCH   1  16
ATOM     16  O   UNL     1       8.851   8.909  18.947  0.00  0.00    +0.000 OA
BRANCH  16  17
ATOM     17  C   UNL     1       8.119   8.532  17.783  0.00  0.00    +0.000 C 
BRANCH  17  19
ATOM     18  N   UNL     1       6.151   7.169  17.334  0.00  0.00    +0.000 N 
ATOM     19  C   UNL     1       7.377   7.206  17.955  0.00  0.00    +0.000 C 
ATOM     20  O   UNL     1       7.915   6.306  18.602  0.00  0.00    +0.000 OA
ATOM     21  H   UNL     1       5.865   8.018  16.871  0.00  0.00    +0.000 HD
BRANCH  18  26
ATOM     22  C   UNL     1       2.412   2.820  17.377  0.00  0.00    +0.000 C 
ATOM     23  C   UNL     1       3.391   3.957  17.336  0.00  0.00    +0.000 A 
ATOM     24  C   UNL     1       4.635   3.802  16.723  0.00  0.00    +0.000 A 
ATOM     25  C   UNL     1       5.554   4.842  16.705  0.00  0.00    +0.000 A 
ATOM     26  C   UNL     1       5.253   6.079  17.300  0.00  0.00    +0.000 A 
ATOM     27  C   UNL     1       3.999   6.242  17.900  0.00  0.00    +0.000 A 
ATOM     28  C   UNL     1       3.074   5.190  17.918  0.00  0.00    +0.000 A 
ENDBRANCH  18  26
ENDBRANCH  17  19
ENDBRANCH  16  17
ENDBRANCH   1  16
TORSDOF 5
ENDMDL
MODEL 8
REMARK VINA RESULT:      -7.4      3.083      9.812
REMARK  Name = 
REMARK  6 active torsions:
REMARK  status: ('A' for Active; 'I' for Inactive)
REMARK    1  A    between atoms: C_1  and  C_2
REMARK    2  A    between atoms: C_5  and  N_6
REMARK    3  A    between atoms: C_7  and  C_9
REMARK    4  A    between atoms: C_9  and  O_10
REMARK    5  A    between atoms: O_10  and  C_11
REMARK    6  A    between atoms: C_14  and  C_15
REMARK                            x       y       z     vdW  Elec       q    Type
REMARK                         _______ _______ _______ _____ _____    ______ ____
ROOT
ATOM      1  C   UNL     1       1.291   9.300  19.610  0.00  0.00    +0.000 A 
ATOM      2  C   UNL     1       1.593   9.036  18.271  0.00  0.00    +0.000 A 
ATOM      3  C   UNL     1       2.032   7.768  17.880  0.00  0.00    +0.000 A 
ATOM      4  C   UNL     1       2.170   6.763  18.834  0.00  0.00    +0.000 A 
ATOM      5  C   UNL     1       1.899   7.033  20.177  0.00  0.00    +0.000 A 
ATOM      6  C   UNL     1       1.469   8.300  20.566  0.00  0.00    +0.000 A 
ENDROOT
BRANCH   4   7
ATOM      7  C   UNL     1       2.579   5.416  18.464  0.00  0.00    +0.000 C 
ATOM      8  C   UNL     1       3.664   5.124  17.717  0.00  0.00    +0.000 C 
ATOM      9  S   UNL     1       4.728   6.174  16.883  0.00  0.00    +0.000 S 
ATOM     10  C   UNL     1       5.804   4.846  16.494  0.00  0.00    +0.000 C 
ATOM     11  S   UNL     1       7.093   4.900  15.454  0.00  0.00    +0.000 S 
ATOM     12  N   UNL     1       5.457   3.733  17.197  0.00  0.00    +0.000 N 
ATOM     13  C   UNL     1       4.167   3.735  17.661  0.00  0.00    +0.000 C 
ATOM     14  O   UNL     1       3.522   2.737  17.949  0.00  0.00    +0.000 OA
ATOM     15  H   UNL     1       6.098   3.601  17.976  0.00  0.00    +0.000 HD
ENDBRANCH   4   7
BRANCH   1  16
ATOM     16  O   UNL     1       0.849  10.501  20.094  0.00  0.00    +0.000 OA
BRANCH  16  17
ATOM     17  C   UNL     1       1.021  11.592  19.191  0.00  0.00    +0.000 C 
BRANCH  17  19
ATOM     18  N   UNL     1      -1.385  11.339  18.914  0.00  0.00    +0.000 N 
ATOM     19  C   UNL     1      -0.308  12.165  18.697  0.00  0.00    +0.000 C 
ATOM     20  O   UNL     1      -0.313  13.279  18.172  0.00  0.00    +0.000 OA
ATOM     21  H   UNL     1      -1.179  10.446  19.337  0.00  0.00    +0.000 HD
BRANCH  18  26
ATOM     22  C   UNL     1      -6.799  12.449  17.383  0.00  0.00    +0.000 C 
ATOM     23  C   UNL     1      -5.393  12.140  17.804  0.00  0.00    +0.000 A 
ATOM     24  C   UNL     1      -4.974  12.383  19.113  0.00  0.00    +0.000 A 
ATOM     25  C   UNL     1      -3.667  12.124  19.501  0.00  0.00    +0.000 A 
ATOM     26  C   UNL     1      -2.733  11.605  18.588  0.00  0.00    +0.000 A 
ATOM     27  C   UNL     1      -3.157  11.343  17.279  0.00  0.00    +0.000 A 
ATOM     28  C   UNL     1      -4.476  11.609  16.890  0.00  0.00    +0.000 A 
ENDBRANCH  18  26
ENDBRANCH  17  19
ENDBRANCH  16  17
ENDBRANCH   1  16
TORSDOF 5
ENDMDL
MODEL 9
REMARK VINA RESULT:      -7.4      6.744      9.310
REMARK  Name = 
REMARK  6 active torsions:
REMARK  status: ('A' for Active; 'I' for Inactive)
REMARK    1  A    between atoms: C_1  and  C_2
REMARK    2  A    between atoms: C_5  and  N_6
REMARK    3  A    between atoms: C_7  and  C_9
REMARK    4  A    between atoms: C_9  and  O_10
REMARK    5  A    between atoms: O_10  and  C_11
REMARK    6  A    between atoms: C_14  and  C_15
REMARK                            x       y       z     vdW  Elec       q    Type
REMARK                         _______ _______ _______ _____ _____    ______ ____
ROOT
ATOM      1  C   UNL     1       7.853   7.820  17.854  0.00  0.00    +0.000 A 
ATOM      2  C   UNL     1       8.194   6.787  18.732  0.00  0.00    +0.000 A 
ATOM      3  C   UNL     1       7.458   5.598  18.745  0.00  0.00    +0.000 A 
ATOM      4  C   UNL     1       6.380   5.446  17.878  0.00  0.00    +0.000 A 
ATOM      5  C   UNL     1       6.019   6.489  17.023  0.00  0.00    +0.000 A 
ATOM      6  C   UNL     1       6.747   7.676  17.017  0.00  0.00    +0.000 A 
ENDROOT
BRANCH   4   7
ATOM      7  C   UNL     1       5.617   4.207  17.826  0.00  0.00    +0.000 C 
ATOM      8  C   UNL     1       4.435   4.010  18.448  0.00  0.00    +0.000 C 
ATOM      9  S   UNL     1       3.603   5.017  19.553  0.00  0.00    +0.000 S 
ATOM     10  C   UNL     1       2.200   3.967  19.523  0.00  0.00    +0.000 C 
ATOM     11  S   UNL     1       0.885   4.057  20.526  0.00  0.00    +0.000 S 
ATOM     12  N   UNL     1       2.314   3.053  18.519  0.00  0.00    +0.000 N 
ATOM     13  C   UNL     1       3.597   2.848  18.082  0.00  0.00    +0.000 C 
ATOM     14  O   UNL     1       3.993   1.842  17.511  0.00  0.00    +0.000 OA
ATOM     15  H   UNL     1       1.727   3.325  17.734  0.00  0.00    +0.000 HD
ENDBRANCH   4   7
BRANCH   1  16
ATOM     16  O   UNL     1       8.510   9.017  17.758  0.00  0.00    +0.000 OA
BRANCH  16  17
ATOM     17  C   UNL     1       8.743   9.657  19.011  0.00  0.00    +0.000 C 
BRANCH  17  19
ATOM     18  N   UNL     1       9.017  11.925  18.171  0.00  0.00    +0.000 N 
ATOM     19  C   UNL     1       9.610  10.910  18.883  0.00  0.00    +0.000 C 
ATOM     20  O   UNL     1      10.722  10.917  19.413  0.00  0.00    +0.000 OA
ATOM     21  H   UNL     1       8.106  11.723  17.788  0.00  0.00    +0.000 HD
BRANCH  18  26
ATOM     22  C   UNL     1      11.026  17.193  17.117  0.00  0.00    +0.000 C 
ATOM     23  C   UNL     1      10.526  15.808  17.406  0.00  0.00    +0.000 A 
ATOM     24  C   UNL     1      11.215  14.690  16.933  0.00  0.00    +0.000 A 
ATOM     25  C   UNL     1      10.743  13.408  17.175  0.00  0.00    +0.000 A 
ATOM     26  C   UNL     1       9.562  13.202  17.908  0.00  0.00    +0.000 A 
ATOM     27  C   UNL     1       8.879  14.322  18.399  0.00  0.00    +0.000 A 
ATOM     28  C   UNL     1       9.357  15.615  18.151  0.00  0.00    +0.000 A 
ENDBRANCH  18  26
ENDBRANCH  17  19
ENDBRANCH  16  17
ENDBRANCH   1  16
TORSDOF 5
ENDMDL
