MODEL 1
REMARK VINA RESULT:      -7.6      0.000      0.000
REMARK  Name = 
REMARK  5 active torsions:
REMARK  status: ('A' for Active; 'I' for Inactive)
REMARK    1  A    between atoms: C_1  and  C_2
REMARK    2  A    between atoms: C_2  and  C_3
REMARK    3  A    between atoms: N_7  and  C_8
REMARK    4  A    between atoms: C_13  and  C_15
REMARK    5  A    between atoms: C_15  and  C_16
REMARK                            x       y       z     vdW  Elec       q    Type
REMARK                         _______ _______ _______ _____ _____    ______ ____
ROOT
ATOM      1  C   UNL     1       2.802   5.462  19.492  0.00  0.00    +0.000 C 
ATOM      2  C   UNL     1       2.269   6.705  18.767  0.00  0.00    +0.000 C 
ATOM      3  C   UNL     1       2.975   7.010  17.444  0.00  0.00    +0.000 C 
ATOM      4  C   UNL     1       4.500   6.881  17.498  0.00  0.00    +0.000 C 
ATOM      5  N   UNL     1       4.975   5.714  18.246  0.00  0.00    +0.000 N 
ATOM      6  C   UNL     1       6.278   5.166  18.073  0.00  0.00    +0.000 C 
ATOM      7  O   UNL     1       6.735   4.367  18.906  0.00  0.00    +0.000 OA
ATOM      8  C   UNL     1       4.333   5.479  19.543  0.00  0.00    +0.000 C 
ENDROOT
BRANCH   1  13
ATOM      9  C   UNL     1       1.540   3.250  19.703  0.00  0.00    +0.000 A 
ATOM     10  N   UNL     1       1.234   2.221  18.940  0.00  0.00    +0.000 NA
ATOM     11  C   UNL     1       1.802   2.467  17.722  0.00  0.00    +0.000 A 
ATOM     12  C   UNL     1       2.458   3.674  17.739  0.00  0.00    +0.000 A 
ATOM     13  N   UNL     1       2.269   4.190  18.994  0.00  0.00    +0.000 N 
BRANCH   9  15
ATOM     14  C   UNL     1       2.209   2.841  22.077  0.00  0.00    +0.000 C 
ATOM     15  C   UNL     1       1.122   3.341  21.140  0.00  0.00    +0.000 C 
ENDBRANCH   9  15
ENDBRANCH   1  13
BRANCH   6  16
ATOM     16  C   UNL     1       7.104   5.527  16.898  0.00  0.00    +0.000 C 
BRANCH  16  17
ATOM     17  C   UNL     1       6.739   4.717  15.711  0.00  0.00    +0.000 A 
ATOM     18  N   UNL     1       6.053   3.577  15.907  0.00  0.00    +0.000 NA
ATOM     19  N   UNL     1       5.897   3.077  14.674  0.00  0.00    +0.000 N 
ATOM     20  C   UNL     1       6.370   3.884  13.679  0.00  0.00    +0.000 A 
ATOM     21  C   UNL     1       6.246   3.831  12.291  0.00  0.00    +0.000 A 
ATOM     22  C   UNL     1       7.271   4.424  11.562  0.00  0.00    +0.000 A 
ATOM     23  C   UNL     1       8.068   5.389  12.171  0.00  0.00    +0.000 A 
ATOM     24  C   UNL     1       7.897   5.715  13.530  0.00  0.00    +0.000 A 
ATOM     25  C   UNL     1       7.106   4.863  14.330  0.00  0.00    +0.000 A 
ATOM     26  H   UNL     1       5.541   2.129  14.586  0.00  0.00    +0.000 HD
ENDBRANCH  16  17
ENDBRANCH   6  16
TORSDOF 4
ENDMDL
MODEL 2
REMARK VINA RESULT:      -7.6      3.214      7.593
REMARK  Name = 
REMARK  5 active torsions:
REMARK  status: ('A' for Active; 'I' for Inactive)
REMARK    1  A    between atoms: C_1  and  C_2
REMARK    2  A    between atoms: C_2  and  C_3
REMARK    3  A    between atoms: N_7  and  C_8
REMARK    4  A    between atoms: C_13  and  C_15
REMARK    5  A    between atoms: C_15  and  C_16
REMARK                            x       y       z     vdW  Elec       q    Type
REMARK                         _______ _______ _______ _____ _____    ______ ____
ROOT
ATOM      1  C   UNL     1       4.813   3.787  18.113  0.00  0.00    +0.000 C 
ATOM      2  C   UNL     1       3.713   2.750  17.846  0.00  0.00    +0.000 C 
ATOM      3  C   UNL     1       2.454   3.326  17.196  0.00  0.00    +0.000 C 
ATOM      4  C   UNL     1       1.979   4.650  17.802  0.00  0.00    +0.000 C 
ATOM      5  N   UNL     1       3.060   5.594  18.096  0.00  0.00    +0.000 N 
ATOM      6  C   UNL     1       2.841   6.993  18.249  0.00  0.00    +0.000 C 
ATOM      7  O   UNL     1       3.715   7.709  18.763  0.00  0.00    +0.000 OA
ATOM      8  C   UNL     1       4.230   5.036  18.782  0.00  0.00    +0.000 C 
ENDROOT
BRANCH   1  13
ATOM      9  C   UNL     1       6.938   4.603  16.950  0.00  0.00    +0.000 A 
ATOM     10  N   UNL     1       7.373   4.784  15.720  0.00  0.00    +0.000 NA
ATOM     11  C   UNL     1       6.338   4.441  14.895  0.00  0.00    +0.000 A 
ATOM     12  C   UNL     1       5.256   4.033  15.636  0.00  0.00    +0.000 A 
ATOM     13  N   UNL     1       5.644   4.108  16.948  0.00  0.00    +0.000 N 
BRANCH   9  15
ATOM     14  C   UNL     1       7.728   6.377  18.524  0.00  0.00    +0.000 C 
ATOM     15  C   UNL     1       7.778   4.904  18.155  0.00  0.00    +0.000 C 
ENDBRANCH   9  15
ENDBRANCH   1  13
BRANCH   6  16
ATOM     16  C   UNL     1       1.580   7.619  17.791  0.00  0.00    +0.000 C 
BRANCH  16  17
ATOM     17  C   UNL     1       1.496   9.038  18.213  0.00  0.00    +0.000 A 
ATOM     18  N   UNL     1       2.098   9.964  17.446  0.00  0.00    +0.000 NA
ATOM     19  N   UNL     1       1.865  11.117  18.089  0.00  0.00    +0.000 N 
ATOM     20  C   UNL     1       1.063  10.993  19.187  0.00  0.00    +0.000 A 
ATOM     21  C   UNL     1       0.442  11.937  20.005  0.00  0.00    +0.000 A 
ATOM     22  C   UNL     1       0.190  11.540  21.314  0.00  0.00    +0.000 A 
ATOM     23  C   UNL     1       0.122  10.181  21.612  0.00  0.00    +0.000 A 
ATOM     24  C   UNL     1       0.378   9.211  20.624  0.00  0.00    +0.000 A 
ATOM     25  C   UNL     1       0.972   9.627  19.413  0.00  0.00    +0.000 A 
ATOM     26  H   UNL     1       2.365  11.945  17.776  0.00  0.00    +0.000 HD
ENDBRANCH  16  17
ENDBRANCH   6  16
TORSDOF 4
ENDMDL
MODEL 3
REMARK VINA RESULT:      -7.3      1.494      1.987
REMARK  Name = 
REMARK  5 active torsions:
REMARK  status: ('A' for Active; 'I' for Inactive)
REMARK    1  A    between atoms: C_1  and  C_2
REMARK    2  A    between atoms: C_2  and  C_3
REMARK    3  A    between atoms: N_7  and  C_8
REMARK    4  A    between atoms: C_13  and  C_15
REMARK    5  A    between atoms: C_15  and  C_16
REMARK                            x       y       z     vdW  Elec       q    Type
REMARK                         _______ _______ _______ _____ _____    ______ ____
ROOT
ATOM      1  C   UNL     1       3.907   4.690  19.509  0.00  0.00    +0.000 C 
ATOM      2  C   UNL     1       3.155   6.023  19.629  0.00  0.00    +0.000 C 
ATOM      3  C   UNL     1       3.017   6.785  18.310  0.00  0.00    +0.000 C 
ATOM      4  C   UNL     1       4.293   6.821  17.464  0.00  0.00    +0.000 C 
ATOM      5  N   UNL     1       5.014   5.548  17.417  0.00  0.00    +0.000 N 
ATOM      6  C   UNL     1       5.948   5.228  16.390  0.00  0.00    +0.000 C 
ATOM      7  O   UNL     1       6.732   4.276  16.532  0.00  0.00    +0.000 OA
ATOM      8  C   UNL     1       5.197   4.866  18.702  0.00  0.00    +0.000 C 
ENDROOT
BRANCH   1  13
ATOM      9  C   UNL     1       1.927   3.076  19.594  0.00  0.00    +0.000 A 
ATOM     10  N   UNL     1       1.465   2.056  18.900  0.00  0.00    +0.000 NA
ATOM     11  C   UNL     1       2.357   1.849  17.886  0.00  0.00    +0.000 A 
ATOM     12  C   UNL     1       3.376   2.767  17.955  0.00  0.00    +0.000 A 
ATOM     13  N   UNL     1       3.090   3.571  19.028  0.00  0.00    +0.000 N 
BRANCH   9  15
ATOM     14  C   UNL     1       1.325   2.610  21.975  0.00  0.00    +0.000 C 
ATOM     15  C   UNL     1       1.239   3.595  20.821  0.00  0.00    +0.000 C 
ENDBRANCH   9  15
ENDBRANCH   1  13
BRANCH   6  16
ATOM     16  C   UNL     1       5.995   6.014  15.135  0.00  0.00    +0.000 C 
BRANCH  16  17
ATOM     17  C   UNL     1       6.623   5.240  14.036  0.00  0.00    +0.000 A 
ATOM     18  N   UNL     1       7.883   5.547  13.684  0.00  0.00    +0.000 NA
ATOM     19  N   UNL     1       8.150   4.706  12.675  0.00  0.00    +0.000 N 
ATOM     20  C   UNL     1       7.155   3.808  12.417  0.00  0.00    +0.000 A 
ATOM     21  C   UNL     1       7.102   2.677  11.602  0.00  0.00    +0.000 A 
ATOM     22  C   UNL     1       5.845   2.329  11.120  0.00  0.00    +0.000 A 
ATOM     23  C   UNL     1       4.711   2.781  11.790  0.00  0.00    +0.000 A 
ATOM     24  C   UNL     1       4.821   3.642  12.899  0.00  0.00    +0.000 A 
ATOM     25  C   UNL     1       6.066   4.259  13.148  0.00  0.00    +0.000 A 
ATOM     26  H   UNL     1       9.000   4.862  12.139  0.00  0.00    +0.000 HD
ENDBRANCH  16  17
ENDBRANCH   6  16
TORSDOF 4
ENDMDL
MODEL 4
REMARK VINA RESULT:      -7.1      5.020      8.049
REMARK  Name = 
REMARK  5 active torsions:
REMARK  status: ('A' for Active; 'I' for Inactive)
REMARK    1  A    between atoms: C_1  and  C_2
REMARK    2  A    between atoms: C_2  and  C_3
REMARK    3  A    between atoms: N_7  and  C_8
REMARK    4  A    between atoms: C_13  and  C_15
REMARK    5  A    between atoms: C_15  and  C_16
REMARK                            x       y       z     vdW  Elec       q    Type
REMARK                         _______ _______ _______ _____ _____    ______ ____
ROOT
ATOM      1  C   UNL     1      -0.173  11.398  19.197  0.00  0.00    +0.000 C 
ATOM      2  C   UNL     1      -0.590  11.377  20.674  0.00  0.00    +0.000 C 
ATOM      3  C   UNL     1       0.344  10.569  21.577  0.00  0.00    +0.000 C 
ATOM      4  C   UNL     1       0.775   9.221  20.994  0.00  0.00    +0.000 C 
ATOM      5  N   UNL     1       1.112   9.265  19.570  0.00  0.00    +0.000 N 
ATOM      6  C   UNL     1       1.921   8.278  18.937  0.00  0.00    +0.000 C 
ATOM      7  O   UNL     1       1.954   8.197  17.699  0.00  0.00    +0.000 OA
ATOM      8  C   UNL     1       0.168   9.985  18.710  0.00  0.00    +0.000 C 
ENDROOT
BRANCH   1  13
ATOM      9  C   UNL     1       0.758  13.754  18.859  0.00  0.00    +0.000 A 
ATOM     10  N   UNL     1       1.898  14.315  18.510  0.00  0.00    +0.000 NA
ATOM     11  C   UNL     1       2.763  13.291  18.249  0.00  0.00    +0.000 A 
ATOM     12  C   UNL     1       2.145  12.082  18.454  0.00  0.00    +0.000 A 
ATOM     13  N   UNL     1       0.872  12.373  18.872  0.00  0.00    +0.000 N 
BRANCH   9  15
ATOM     14  C   UNL     1      -0.331  16.001  18.757  0.00  0.00    +0.000 C 
ATOM     15  C   UNL     1      -0.465  14.553  19.195  0.00  0.00    +0.000 C 
ENDBRANCH   9  15
ENDBRANCH   1  13
BRANCH   6  16
ATOM     16  C   UNL     1       2.743   7.342  19.739  0.00  0.00    +0.000 C 
BRANCH  16  17
ATOM     17  C   UNL     1       2.176   5.972  19.719  0.00  0.00    +0.000 A 
ATOM     18  N   UNL     1       1.369   5.605  20.730  0.00  0.00    +0.000 NA
ATOM     19  N   UNL     1       1.046   4.337  20.441  0.00  0.00    +0.000 N 
ATOM     20  C   UNL     1       1.532   3.894  19.244  0.00  0.00    +0.000 A 
ATOM     21  C   UNL     1       1.284   2.740  18.502  0.00  0.00    +0.000 A 
ATOM     22  C   UNL     1       2.311   2.320  17.664  0.00  0.00    +0.000 A 
ATOM     23  C   UNL     1       3.275   3.239  17.255  0.00  0.00    +0.000 A 
ATOM     24  C   UNL     1       3.263   4.561  17.739  0.00  0.00    +0.000 A 
ATOM     25  C   UNL     1       2.441   4.864  18.845  0.00  0.00    +0.000 A 
ATOM     26  H   UNL     1       0.565   3.795  21.154  0.00  0.00    +0.000 HD
ENDBRANCH  16  17
ENDBRANCH   6  16
TORSDOF 4
ENDMDL
MODEL 5
REMARK VINA RESULT:      -7.0      5.502      8.189
REMARK  Name = 
REMARK  5 active torsions:
REMARK  status: ('A' for Active; 'I' for Inactive)
REMARK    1  A    between atoms: C_1  and  C_2
REMARK    2  A    between atoms: C_2  and  C_3
REMARK    3  A    between atoms: N_7  and  C_8
REMARK    4  A    between atoms: C_13  and  C_15
REMARK    5  A    between atoms: C_15  and  C_16
REMARK                            x       y       z     vdW  Elec       q    Type
REMARK                         _______ _______ _______ _____ _____    ______ ____
ROOT
ATOM      1  C   UNL     1      -1.586  11.774  19.518  0.00  0.00    +0.000 C 
ATOM      2  C   UNL     1      -0.483  12.797  19.213  0.00  0.00    +0.000 C 
ATOM      3  C   UNL     1       0.917  12.190  19.092  0.00  0.00    +0.000 C 
ATOM      4  C   UNL     1       1.254  11.159  20.172  0.00  0.00    +0.000 C 
ATOM      5  N   UNL     1       0.159  10.235  20.478  0.00  0.00    +0.000 N 
ATOM      6  C   UNL     1       0.369   8.972  21.103  0.00  0.00    +0.000 C 
ATOM      7  O   UNL     1      -0.589   8.350  21.590  0.00  0.00    +0.000 OA
ATOM      8  C   UNL     1      -1.162  10.843  20.659  0.00  0.00    +0.000 C 
ENDROOT
BRANCH   1  13
ATOM      9  C   UNL     1      -3.369  11.039  17.841  0.00  0.00    +0.000 A 
ATOM     10  N   UNL     1      -3.455  10.259  16.783  0.00  0.00    +0.000 NA
ATOM     11  C   UNL     1      -2.217   9.709  16.612  0.00  0.00    +0.000 A 
ATOM     12  C   UNL     1      -1.355  10.171  17.577  0.00  0.00    +0.000 A 
ATOM     13  N   UNL     1      -2.080  11.043  18.347  0.00  0.00    +0.000 N 
BRANCH   9  15
ATOM     14  C   UNL     1      -5.841  11.034  18.212  0.00  0.00    +0.000 C 
ATOM     15  C   UNL     1      -4.542  11.804  18.377  0.00  0.00    +0.000 C 
ENDBRANCH   9  15
ENDBRANCH   1  13
BRANCH   6  16
ATOM     16  C   UNL     1       1.722   8.375  21.174  0.00  0.00    +0.000 C 
BRANCH  16  17
ATOM     17  C   UNL     1       1.976   7.472  20.025  0.00  0.00    +0.000 A 
ATOM     18  N   UNL     1       2.297   8.026  18.843  0.00  0.00    +0.000 NA
ATOM     19  N   UNL     1       2.440   6.976  18.023  0.00  0.00    +0.000 N 
ATOM     20  C   UNL     1       2.317   5.764  18.638  0.00  0.00    +0.000 A 
ATOM     21  C   UNL     1       2.570   4.463  18.205  0.00  0.00    +0.000 A 
ATOM     22  C   UNL     1       1.832   3.458  18.821  0.00  0.00    +0.000 A 
ATOM     23  C   UNL     1       1.270   3.698  20.072  0.00  0.00    +0.000 A 
ATOM     24  C   UNL     1       1.377   4.962  20.683  0.00  0.00    +0.000 A 
ATOM     25  C   UNL     1       1.813   6.051  19.898  0.00  0.00    +0.000 A 
ATOM     26  H   UNL     1       2.529   7.160  17.026  0.00  0.00    +0.000 HD
ENDBRANCH  16  17
ENDBRANCH   6  16
TORSDOF 4
ENDMDL
MODEL 6
REMARK VINA RESULT:      -7.0      6.118      8.593
REMARK  Name = 
REMARK  5 active torsions:
REMARK  status: ('A' for Active; 'I' for Inactive)
REMARK    1  A    between atoms: C_1  and  C_2
REMARK    2  A    between atoms: C_2  and  C_3
REMARK    3  A    between atoms: N_7  and  C_8
REMARK    4  A    between atoms: C_13  and  C_15
REMARK    5  A    between atoms: C_15  and  C_16
REMARK                            x       y       z     vdW  Elec       q    Type
REMARK                         _______ _______ _______ _____ _____    ______ ____
ROOT
ATOM      1  C   UNL     1      -1.882  12.417  19.577  0.00  0.00    +0.000 C 
ATOM      2  C   UNL     1      -2.960  11.690  18.760  0.00  0.00    +0.000 C 
ATOM      3  C   UNL     1      -2.550  10.294  18.285  0.00  0.00    +0.000 C 
ATOM      4  C   UNL     1      -1.127  10.211  17.724  0.00  0.00    +0.000 C 
ATOM      5  N   UNL     1      -0.135  10.961  18.496  0.00  0.00    +0.000 N 
ATOM      6  C   UNL     1       1.261  10.691  18.426  0.00  0.00    +0.000 C 
ATOM      7  O   UNL     1       2.079  11.513  18.871  0.00  0.00    +0.000 OA
ATOM      8  C   UNL     1      -0.520  12.322  18.883  0.00  0.00    +0.000 C 
ENDROOT
BRANCH   1  13
ATOM      9  C   UNL     1      -2.719  12.366  21.991  0.00  0.00    +0.000 A 
ATOM     10  N   UNL     1      -2.347  11.851  23.145  0.00  0.00    +0.000 NA
ATOM     11  C   UNL     1      -1.170  11.199  22.910  0.00  0.00    +0.000 A 
ATOM     12  C   UNL     1      -0.822  11.308  21.586  0.00  0.00    +0.000 A 
ATOM     13  N   UNL     1      -1.824  12.029  20.990  0.00  0.00    +0.000 N 
BRANCH   9  15
ATOM     14  C   UNL     1      -4.571  13.547  23.185  0.00  0.00    +0.000 C 
ATOM     15  C   UNL     1      -3.960  13.193  21.839  0.00  0.00    +0.000 C 
ENDBRANCH   9  15
ENDBRANCH   1  13
BRANCH   6  16
ATOM     16  C   UNL     1       1.762   9.429  17.837  0.00  0.00    +0.000 C 
BRANCH  16  17
ATOM     17  C   UNL     1       1.904   8.370  18.865  0.00  0.00    +0.000 A 
ATOM     18  N   UNL     1       1.446   8.623  20.103  0.00  0.00    +0.000 NA
ATOM     19  N   UNL     1       1.732   7.507  20.788  0.00  0.00    +0.000 N 
ATOM     20  C   UNL     1       2.272   6.508  20.029  0.00  0.00    +0.000 A 
ATOM     21  C   UNL     1       2.534   5.165  20.299  0.00  0.00    +0.000 A 
ATOM     22  C   UNL     1       3.567   4.586  19.571  0.00  0.00    +0.000 A 
ATOM     23  C   UNL     1       3.953   5.161  18.362  0.00  0.00    +0.000 A 
ATOM     24  C   UNL     1       3.363   6.357  17.910  0.00  0.00    +0.000 A 
ATOM     25  C   UNL     1       2.585   7.107  18.818  0.00  0.00    +0.000 A 
ATOM     26  H   UNL     1       1.620   7.527  21.798  0.00  0.00    +0.000 HD
ENDBRANCH  16  17
ENDBRANCH   6  16
TORSDOF 4
ENDMDL
MODEL 7
REMARK VINA RESULT:      -7.0      5.041      7.304
REMARK  Name = 
REMARK  5 active torsions:
REMARK  status: ('A' for Active; 'I' for Inactive)
REMARK    1  A    between atoms: C_1  and  C_2
REMARK    2  A    between atoms: C_2  and  C_3
REMARK    3  A    between atoms: N_7  and  C_8
REMARK    4  A    between atoms: C_13  and  C_15
REMARK    5  A    between atoms: C_15  and  C_16
REMARK                            x       y       z     vdW  Elec       q    Type
REMARK                         _______ _______ _______ _____ _____    ______ ____
ROOT
ATOM      1  C   UNL     1      -0.071  11.488  18.851  0.00  0.00    +0.000 C 
ATOM      2  C   UNL     1      -0.589  11.324  20.287  0.00  0.00    +0.000 C 
ATOM      3  C   UNL     1       0.286  10.433  21.170  0.00  0.00    +0.000 C 
ATOM      4  C   UNL     1       0.765   9.147  20.491  0.00  0.00    +0.000 C 
ATOM      5  N   UNL     1       1.199   9.329  19.104  0.00  0.00    +0.000 N 
ATOM      6  C   UNL     1       2.056   8.408  18.437  0.00  0.00    +0.000 C 
ATOM      7  O   UNL     1       2.175   8.448  17.202  0.00  0.00    +0.000 OA
ATOM      8  C   UNL     1       0.312  10.130  18.254  0.00  0.00    +0.000 C 
ENDROOT
BRANCH   1  13
ATOM      9  C   UNL     1       0.859  13.867  18.771  0.00  0.00    +0.000 A 
ATOM     10  N   UNL     1       2.018  14.459  18.570  0.00  0.00    +0.000 NA
ATOM     11  C   UNL     1       2.917  13.461  18.319  0.00  0.00    +0.000 A 
ATOM     12  C   UNL     1       2.297  12.237  18.379  0.00  0.00    +0.000 A 
ATOM     13  N   UNL     1       0.988  12.490  18.695  0.00  0.00    +0.000 N 
BRANCH   9  15
ATOM     14  C   UNL     1      -0.253  16.106  18.704  0.00  0.00    +0.000 C 
ATOM     15  C   UNL     1      -0.400  14.633  19.047  0.00  0.00    +0.000 C 
ENDBRANCH   9  15
ENDBRANCH   1  13
BRANCH   6  16
ATOM     16  C   UNL     1       2.827   7.399  19.199  0.00  0.00    +0.000 C 
BRANCH  16  17
ATOM     17  C   UNL     1       3.271   6.285  18.326  0.00  0.00    +0.000 A 
ATOM     18  N   UNL     1       2.474   5.208  18.218  0.00  0.00    +0.000 NA
ATOM     19  N   UNL     1       3.146   4.391  17.396  0.00  0.00    +0.000 N 
ATOM     20  C   UNL     1       4.299   4.924  16.894  0.00  0.00    +0.000 A 
ATOM     21  C   UNL     1       5.172   4.497  15.894  0.00  0.00    +0.000 A 
ATOM     22  C   UNL     1       6.490   4.922  16.011  0.00  0.00    +0.000 A 
ATOM     23  C   UNL     1       6.776   6.052  16.773  0.00  0.00    +0.000 A 
ATOM     24  C   UNL     1       5.760   6.720  17.483  0.00  0.00    +0.000 A 
ATOM     25  C   UNL     1       4.514   6.076  17.638  0.00  0.00    +0.000 A 
ATOM     26  H   UNL     1       2.808   3.437  17.292  0.00  0.00    +0.000 HD
ENDBRANCH  16  17
ENDBRANCH   6  16
TORSDOF 4
ENDMDL
MODEL 8
REMARK VINA RESULT:      -6.9      1.572      7.011
REMARK  Name = 
REMARK  5 active torsions:
REMARK  status: ('A' for Active; 'I' for Inactive)
REMARK    1  A    between atoms: C_1  and  C_2
REMARK    2  A    between atoms: C_2  and  C_3
REMARK    3  A    between atoms: N_7  and  C_8
REMARK    4  A    between atoms: C_13  and  C_15
REMARK    5  A    between atoms: C_15  and  C_16
REMARK                            x       y       z     vdW  Elec       q    Type
REMARK                         _______ _______ _______ _____ _____    ______ ____
ROOT
ATOM      1  C   UNL     1       7.037   5.755  16.494  0.00  0.00    +0.000 C 
ATOM      2  C   UNL     1       7.536   5.008  17.739  0.00  0.00    +0.000 C 
ATOM      3  C   UNL     1       6.427   4.601  18.711  0.00  0.00    +0.000 C 
ATOM      4  C   UNL     1       5.383   5.690  18.970  0.00  0.00    +0.000 C 
ATOM      5  N   UNL     1       4.971   6.421  17.770  0.00  0.00    +0.000 N 
ATOM      6  C   UNL     1       3.749   7.148  17.691  0.00  0.00    +0.000 C 
ATOM      7  O   UNL     1       3.568   7.968  16.776  0.00  0.00    +0.000 OA
ATOM      8  C   UNL     1       6.053   6.863  16.885  0.00  0.00    +0.000 C 
ENDROOT
BRANCH   1  13
ATOM      9  C   UNL     1       6.974   4.795  14.127  0.00  0.00    +0.000 A 
ATOM     10  N   UNL     1       6.264   3.921  13.443  0.00  0.00    +0.000 NA
ATOM     11  C   UNL     1       5.301   3.462  14.297  0.00  0.00    +0.000 A 
ATOM     12  C   UNL     1       5.433   4.058  15.527  0.00  0.00    +0.000 A 
ATOM     13  N   UNL     1       6.518   4.890  15.431  0.00  0.00    +0.000 N 
BRANCH   9  15
ATOM     14  C   UNL     1       7.940   5.748  12.027  0.00  0.00    +0.000 C 
ATOM     15  C   UNL     1       8.118   5.553  13.523  0.00  0.00    +0.000 C 
ENDBRANCH   9  15
ENDBRANCH   1  13
BRANCH   6  16
ATOM     16  C   UNL     1       2.673   6.935  18.686  0.00  0.00    +0.000 C 
BRANCH  16  17
ATOM     17  C   UNL     1       2.216   5.524  18.694  0.00  0.00    +0.000 A 
ATOM     18  N   UNL     1       1.677   5.025  17.568  0.00  0.00    +0.000 NA
ATOM     19  N   UNL     1       1.354   3.767  17.895  0.00  0.00    +0.000 N 
ATOM     20  C   UNL     1       1.739   3.398  19.152  0.00  0.00    +0.000 A 
ATOM     21  C   UNL     1       1.763   2.163  19.800  0.00  0.00    +0.000 A 
ATOM     22  C   UNL     1       1.657   2.198  21.186  0.00  0.00    +0.000 A 
ATOM     23  C   UNL     1       1.992   3.368  21.864  0.00  0.00    +0.000 A 
ATOM     24  C   UNL     1       2.361   4.530  21.161  0.00  0.00    +0.000 A 
ATOM     25  C   UNL     1       2.120   4.579  19.771  0.00  0.00    +0.000 A 
ATOM     26  H   UNL     1       0.781   3.238  17.242  0.00  0.00    +0.000 HD
ENDBRANCH  16  17
ENDBRANCH   6  16
TORSDOF 4
ENDMDL
MODEL 9
REMARK VINA RESULT:      -6.9      4.502      7.472
REMARK  Name = 
REMARK  5 active torsions:
REMARK  status: ('A' for Active; 'I' for Inactive)
REMARK    1  A    between atoms: C_1  and  C_2
REMARK    2  A    between atoms: C_2  and  C_3
REMARK    3  A    between atoms: N_7  and  C_8
REMARK    4  A    between atoms: C_13  and  C_15
REMARK    5  A    between atoms: C_15  and  C_16
REMARK                            x       y       z     vdW  Elec       q    Type
REMARK                         _______ _______ _______ _____ _____    ______ ____
ROOT
ATOM      1  C   UNL     1       0.171  10.615  18.830  0.00  0.00    +0.000 C 
ATOM      2  C   UNL     1      -0.216  10.265  20.274  0.00  0.00    +0.000 C 
ATOM      3  C   UNL     1       0.848   9.466  21.031  0.00  0.00    +0.000 C 
ATOM      4  C   UNL     1       1.478   8.329  20.222  0.00  0.00    +0.000 C 
ATOM      5  N   UNL     1       1.782   8.680  18.834  0.00  0.00    +0.000 N 
ATOM      6  C   UNL     1       2.727   7.963  18.046  0.00  0.00    +0.000 C 
ATOM      7  O   UNL     1       2.755   8.111  16.814  0.00  0.00    +0.000 OA
ATOM      8  C   UNL     1       0.724   9.384  18.104  0.00  0.00    +0.000 C 
ENDROOT
BRANCH   1  13
ATOM      9  C   UNL     1       0.709  13.112  18.915  0.00  0.00    +0.000 A 
ATOM     10  N   UNL     1       1.742  13.899  18.694  0.00  0.00    +0.000 NA
ATOM     11  C   UNL     1       2.762  13.085  18.289  0.00  0.00    +0.000 A 
ATOM     12  C   UNL     1       2.347  11.775  18.274  0.00  0.00    +0.000 A 
ATOM     13  N   UNL     1       1.044  11.786  18.700  0.00  0.00    +0.000 N 
BRANCH   9  15
ATOM     14  C   UNL     1      -0.545  14.362  20.680  0.00  0.00    +0.000 C 
ATOM     15  C   UNL     1      -0.627  13.637  19.347  0.00  0.00    +0.000 C 
ENDBRANCH   9  15
ENDBRANCH   1  13
BRANCH   6  16
ATOM     16  C   UNL     1       3.698   7.040  18.679  0.00  0.00    +0.000 C 
BRANCH  16  17
ATOM     17  C   UNL     1       3.490   5.643  18.228  0.00  0.00    +0.000 A 
ATOM     18  N   UNL     1       4.143   5.228  17.129  0.00  0.00    +0.000 NA
ATOM     19  N   UNL     1       3.739   3.959  16.974  0.00  0.00    +0.000 N 
ATOM     20  C   UNL     1       2.925   3.504  17.972  0.00  0.00    +0.000 A 
ATOM     21  C   UNL     1       2.448   2.232  18.284  0.00  0.00    +0.000 A 
ATOM     22  C   UNL     1       1.238   2.184  18.969  0.00  0.00    +0.000 A 
ATOM     23  C   UNL     1       0.818   3.301  19.686  0.00  0.00    +0.000 A 
ATOM     24  C   UNL     1       1.563   4.496  19.665  0.00  0.00    +0.000 A 
ATOM     25  C   UNL     1       2.579   4.636  18.696  0.00  0.00    +0.000 A 
ATOM     26  H   UNL     1       3.981   3.485  16.107  0.00  0.00    +0.000 HD
ENDBRANCH  16  17
ENDBRANCH   6  16
TORSDOF 4
ENDMDL
