MODEL 1
REMARK VINA RESULT:      -7.5      0.000      0.000
REMARK  Name = 
REMARK  7 active torsions:
REMARK  status: ('A' for Active; 'I' for Inactive)
REMARK    1  A    between atoms: C_1  and  O_2
REMARK    2  A    between atoms: O_2  and  C_3
REMARK    3  A    between atoms: C_3  and  C_4
REMARK    4  A    between atoms: C_4  and  N_5
REMARK    5  A    between atoms: N_9  and  C_10
REMARK    6  A    between atoms: C_10  and  C_11
REMARK    7  A    between atoms: N_20  and  C_21
REMARK                            x       y       z     vdW  Elec       q    Type
REMARK                         _______ _______ _______ _____ _____    ______ ____
ROOT
ATOM      1  N   UNL     1       5.116   6.611  16.639  0.00  0.00    +0.000 N 
ATOM      2  C   UNL     1       4.128   6.201  17.519  0.00  0.00    +0.000 A 
ATOM      3  N   UNL     1       3.433   7.172  18.132  0.00  0.00    +0.000 NA
ATOM      4  C   UNL     1       2.533   6.872  19.107  0.00  0.00    +0.000 A 
ATOM      5  N   UNL     1       1.889   7.913  19.734  0.00  0.00    +0.000 N 
ATOM      6  C   UNL     1       2.306   5.515  19.370  0.00  0.00    +0.000 A 
ATOM      7  C   UNL     1       1.479   4.710  20.184  0.00  0.00    +0.000 A 
ATOM      8  N   UNL     1       1.668   3.397  19.986  0.00  0.00    +0.000 NA
ATOM      9  N   UNL     1       2.626   3.372  19.041  0.00  0.00    +0.000 N 
ATOM     10  C   UNL     1       3.165   2.108  18.584  0.00  0.00    +0.000 C 
ATOM     11  C   UNL     1       3.034   4.609  18.635  0.00  0.00    +0.000 A 
ATOM     12  N   UNL     1       3.959   4.882  17.711  0.00  0.00    +0.000 NA
ATOM     13  H   UNL     1       4.941   7.586  16.404  0.00  0.00    +0.000 HD
ATOM     14  H   UNL     1       1.830   8.787  19.225  0.00  0.00    +0.000 HD
ENDROOT
BRANCH   1  15
ATOM     15  C   UNL     1       5.342   5.755  15.482  0.00  0.00    +0.000 C 
BRANCH  15  16
ATOM     16  C   UNL     1       6.701   5.058  15.583  0.00  0.00    +0.000 C 
BRANCH  16  18
ATOM     17  C   UNL     1       7.680   4.603  17.676  0.00  0.00    +0.000 C 
ATOM     18  O   UNL     1       7.435   5.598  16.689  0.00  0.00    +0.000 OA
ENDBRANCH  16  18
ENDBRANCH  15  16
ENDBRANCH   1  15
BRANCH   5  19
ATOM     19  C   UNL     1       1.406   7.838  21.095  0.00  0.00    +0.000 C 
BRANCH  19  20
ATOM     20  C   UNL     1       0.610   9.065  21.468  0.00  0.00    +0.000 A 
ATOM     21  C   UNL     1      -0.043   9.140  22.708  0.00  0.00    +0.000 A 
ATOM     22  C   UNL     1      -0.791  10.268  23.050  0.00  0.00    +0.000 A 
ATOM     23  C   UNL     1      -0.885  11.340  22.164  0.00  0.00    +0.000 A 
ATOM     24  C   UNL     1      -0.218  11.291  20.942  0.00  0.00    +0.000 A 
ATOM     25  C   UNL     1       0.532  10.164  20.597  0.00  0.00    +0.000 A 
ENDBRANCH  19  20
ENDBRANCH   5  19
TORSDOF 5
ENDMDL
MODEL 2
REMARK VINA RESULT:      -7.4      0.266      1.030
REMARK  Name = 
REMARK  7 active torsions:
REMARK  status: ('A' for Active; 'I' for Inactive)
REMARK    1  A    between atoms: C_1  and  O_2
REMARK    2  A    between atoms: O_2  and  C_3
REMARK    3  A    between atoms: C_3  and  C_4
REMARK    4  A    between atoms: C_4  and  N_5
REMARK    5  A    between atoms: N_9  and  C_10
REMARK    6  A    between atoms: C_10  and  C_11
REMARK    7  A    between atoms: N_20  and  C_21
REMARK                            x       y       z     vdW  Elec       q    Type
REMARK                         _______ _______ _______ _____ _____    ______ ____
ROOT
ATOM      1  N   UNL     1       5.197   6.434  16.573  0.00  0.00    +0.000 N 
ATOM      2  C   UNL     1       4.165   6.056  17.417  0.00  0.00    +0.000 A 
ATOM      3  N   UNL     1       3.517   7.047  18.050  0.00  0.00    +0.000 NA
ATOM      4  C   UNL     1       2.578   6.770  18.994  0.00  0.00    +0.000 A 
ATOM      5  N   UNL     1       1.984   7.827  19.643  0.00  0.00    +0.000 N 
ATOM      6  C   UNL     1       2.262   5.422  19.203  0.00  0.00    +0.000 A 
ATOM      7  C   UNL     1       1.367   4.642  19.969  0.00  0.00    +0.000 A 
ATOM      8  N   UNL     1       1.480   3.327  19.729  0.00  0.00    +0.000 NA
ATOM      9  N   UNL     1       2.457   3.276  18.804  0.00  0.00    +0.000 N 
ATOM     10  C   UNL     1       2.928   1.997  18.314  0.00  0.00    +0.000 C 
ATOM     11  C   UNL     1       2.949   4.498  18.451  0.00  0.00    +0.000 A 
ATOM     12  N   UNL     1       3.911   4.745  17.557  0.00  0.00    +0.000 NA
ATOM     13  H   UNL     1       5.087   7.425  16.370  0.00  0.00    +0.000 HD
ATOM     14  H   UNL     1       1.991   8.720  19.165  0.00  0.00    +0.000 HD
ENDROOT
BRANCH   1  15
ATOM     15  C   UNL     1       5.397   5.606  15.391  0.00  0.00    +0.000 C 
BRANCH  15  16
ATOM     16  C   UNL     1       6.579   4.655  15.593  0.00  0.00    +0.000 C 
BRANCH  16  18
ATOM     17  C   UNL     1       7.698   4.584  17.663  0.00  0.00    +0.000 C 
ATOM     18  O   UNL     1       7.560   5.280  16.429  0.00  0.00    +0.000 OA
ENDBRANCH  16  18
ENDBRANCH  15  16
ENDBRANCH   1  15
BRANCH   5  19
ATOM     19  C   UNL     1       1.466   7.735  20.990  0.00  0.00    +0.000 C 
BRANCH  19  20
ATOM     20  C   UNL     1       0.635   8.944  21.347  0.00  0.00    +0.000 A 
ATOM     21  C   UNL     1       0.307   9.896  20.370  0.00  0.00    +0.000 A 
ATOM     22  C   UNL     1      -0.449  11.022  20.701  0.00  0.00    +0.000 A 
ATOM     23  C   UNL     1      -0.898  11.204  22.008  0.00  0.00    +0.000 A 
ATOM     24  C   UNL     1      -0.604  10.252  22.982  0.00  0.00    +0.000 A 
ATOM     25  C   UNL     1       0.152   9.124  22.653  0.00  0.00    +0.000 A 
ENDBRANCH  19  20
ENDBRANCH   5  19
TORSDOF 5
ENDMDL
MODEL 3
REMARK VINA RESULT:      -7.3      0.779      1.455
REMARK  Name = 
REMARK  7 active torsions:
REMARK  status: ('A' for Active; 'I' for Inactive)
REMARK    1  A    between atoms: C_1  and  O_2
REMARK    2  A    between atoms: O_2  and  C_3
REMARK    3  A    between atoms: C_3  and  C_4
REMARK    4  A    between atoms: C_4  and  N_5
REMARK    5  A    between atoms: N_9  and  C_10
REMARK    6  A    between atoms: C_10  and  C_11
REMARK    7  A    between atoms: N_20  and  C_21
REMARK                            x       y       z     vdW  Elec       q    Type
REMARK                         _______ _______ _______ _____ _____    ______ ____
ROOT
ATOM      1  N   UNL     1       5.251   5.971  17.345  0.00  0.00    +0.000 N 
ATOM      2  C   UNL     1       4.128   5.696  18.109  0.00  0.00    +0.000 A 
ATOM      3  N   UNL     1       3.481   6.754  18.622  0.00  0.00    +0.000 NA
ATOM      4  C   UNL     1       2.447   6.582  19.489  0.00  0.00    +0.000 A 
ATOM      5  N   UNL     1       1.856   7.705  20.020  0.00  0.00    +0.000 N 
ATOM      6  C   UNL     1       2.039   5.266  19.742  0.00  0.00    +0.000 A 
ATOM      7  C   UNL     1       1.038   4.579  20.464  0.00  0.00    +0.000 A 
ATOM      8  N   UNL     1       1.100   3.248  20.309  0.00  0.00    +0.000 NA
ATOM      9  N   UNL     1       2.152   3.093  19.483  0.00  0.00    +0.000 N 
ATOM     10  C   UNL     1       2.594   1.765  19.111  0.00  0.00    +0.000 C 
ATOM     11  C   UNL     1       2.740   4.265  19.110  0.00  0.00    +0.000 A 
ATOM     12  N   UNL     1       3.790   4.410  18.298  0.00  0.00    +0.000 NA
ATOM     13  H   UNL     1       5.215   6.952  17.077  0.00  0.00    +0.000 HD
ATOM     14  H   UNL     1       1.955   8.565  19.495  0.00  0.00    +0.000 HD
ENDROOT
BRANCH   1  15
ATOM     15  C   UNL     1       5.511   5.064  16.235  0.00  0.00    +0.000 C 
BRANCH  15  16
ATOM     16  C   UNL     1       6.999   4.711  16.163  0.00  0.00    +0.000 C 
BRANCH  16  18
ATOM     17  C   UNL     1       7.094   4.771  13.811  0.00  0.00    +0.000 C 
ATOM     18  O   UNL     1       7.586   5.341  15.019  0.00  0.00    +0.000 OA
ENDBRANCH  16  18
ENDBRANCH  15  16
ENDBRANCH   1  15
BRANCH   5  19
ATOM     19  C   UNL     1       1.214   7.720  21.316  0.00  0.00    +0.000 C 
BRANCH  19  20
ATOM     20  C   UNL     1       0.464   9.010  21.547  0.00  0.00    +0.000 A 
ATOM     21  C   UNL     1       0.278   9.923  20.498  0.00  0.00    +0.000 A 
ATOM     22  C   UNL     1      -0.403  11.122  20.712  0.00  0.00    +0.000 A 
ATOM     23  C   UNL     1      -0.918  11.419  21.973  0.00  0.00    +0.000 A 
ATOM     24  C   UNL     1      -0.766  10.508  23.016  0.00  0.00    +0.000 A 
ATOM     25  C   UNL     1      -0.085   9.307  22.804  0.00  0.00    +0.000 A 
ENDBRANCH  19  20
ENDBRANCH   5  19
TORSDOF 5
ENDMDL
MODEL 4
REMARK VINA RESULT:      -7.3      0.719      1.034
REMARK  Name = 
REMARK  7 active torsions:
REMARK  status: ('A' for Active; 'I' for Inactive)
REMARK    1  A    between atoms: C_1  and  O_2
REMARK    2  A    between atoms: O_2  and  C_3
REMARK    3  A    between atoms: C_3  and  C_4
REMARK    4  A    between atoms: C_4  and  N_5
REMARK    5  A    between atoms: N_9  and  C_10
REMARK    6  A    between atoms: C_10  and  C_11
REMARK    7  A    between atoms: N_20  and  C_21
REMARK                            x       y       z     vdW  Elec       q    Type
REMARK                         _______ _______ _______ _____ _____    ______ ____
ROOT
ATOM      1  N   UNL     1       5.107   6.700  16.755  0.00  0.00    +0.000 N 
ATOM      2  C   UNL     1       4.127   6.286  17.643  0.00  0.00    +0.000 A 
ATOM      3  N   UNL     1       3.393   7.251  18.217  0.00  0.00    +0.000 NA
ATOM      4  C   UNL     1       2.497   6.953  19.196  0.00  0.00    +0.000 A 
ATOM      5  N   UNL     1       1.810   7.992  19.780  0.00  0.00    +0.000 N 
ATOM      6  C   UNL     1       2.317   5.599  19.505  0.00  0.00    +0.000 A 
ATOM      7  C   UNL     1       1.513   4.793  20.341  0.00  0.00    +0.000 A 
ATOM      8  N   UNL     1       1.751   3.482  20.192  0.00  0.00    +0.000 NA
ATOM      9  N   UNL     1       2.718   3.459  19.255  0.00  0.00    +0.000 N 
ATOM     10  C   UNL     1       3.306   2.200  18.847  0.00  0.00    +0.000 C 
ATOM     11  C   UNL     1       3.083   4.695  18.807  0.00  0.00    +0.000 A 
ATOM     12  N   UNL     1       4.005   4.969  17.880  0.00  0.00    +0.000 NA
ATOM     13  H   UNL     1       4.898   7.659  16.485  0.00  0.00    +0.000 HD
ATOM     14  H   UNL     1       1.723   8.844  19.240  0.00  0.00    +0.000 HD
ENDROOT
BRANCH   1  15
ATOM     15  C   UNL     1       5.373   5.813  15.631  0.00  0.00    +0.000 C 
BRANCH  15  16
ATOM     16  C   UNL     1       6.789   5.239  15.720  0.00  0.00    +0.000 C 
BRANCH  16  18
ATOM     17  C   UNL     1       5.902   4.037  13.901  0.00  0.00    +0.000 C 
ATOM     18  O   UNL     1       6.870   4.038  14.944  0.00  0.00    +0.000 OA
ENDBRANCH  16  18
ENDBRANCH  15  16
ENDBRANCH   1  15
BRANCH   5  19
ATOM     19  C   UNL     1       1.319   7.947  21.140  0.00  0.00    +0.000 C 
BRANCH  19  20
ATOM     20  C   UNL     1       0.471   9.154  21.462  0.00  0.00    +0.000 A 
ATOM     21  C   UNL     1      -0.011   9.358  22.764  0.00  0.00    +0.000 A 
ATOM     22  C   UNL     1      -0.806  10.466  23.061  0.00  0.00    +0.000 A 
ATOM     23  C   UNL     1      -1.119  11.390  22.065  0.00  0.00    +0.000 A 
ATOM     24  C   UNL     1      -0.623  11.215  20.775  0.00  0.00    +0.000 A 
ATOM     25  C   UNL     1       0.174  10.108  20.476  0.00  0.00    +0.000 A 
ENDBRANCH  19  20
ENDBRANCH   5  19
TORSDOF 5
ENDMDL
MODEL 5
REMARK VINA RESULT:      -7.2      4.563      6.110
REMARK  Name = 
REMARK  7 active torsions:
REMARK  status: ('A' for Active; 'I' for Inactive)
REMARK    1  A    between atoms: C_1  and  O_2
REMARK    2  A    between atoms: O_2  and  C_3
REMARK    3  A    between atoms: C_3  and  C_4
REMARK    4  A    between atoms: C_4  and  N_5
REMARK    5  A    between atoms: N_9  and  C_10
REMARK    6  A    between atoms: C_10  and  C_11
REMARK    7  A    between atoms: N_20  and  C_21
REMARK                            x       y       z     vdW  Elec       q    Type
REMARK                         _______ _______ _______ _____ _____    ______ ____
ROOT
ATOM      1  N   UNL     1       8.244   7.781  18.461  0.00  0.00    +0.000 N 
ATOM      2  C   UNL     1       7.421   6.783  17.964  0.00  0.00    +0.000 A 
ATOM      3  N   UNL     1       6.591   6.200  18.843  0.00  0.00    +0.000 NA
ATOM      4  C   UNL     1       5.840   5.125  18.481  0.00  0.00    +0.000 A 
ATOM      5  N   UNL     1       5.045   4.540  19.440  0.00  0.00    +0.000 N 
ATOM      6  C   UNL     1       5.907   4.722  17.141  0.00  0.00    +0.000 A 
ATOM      7  C   UNL     1       5.316   3.769  16.283  0.00  0.00    +0.000 A 
ATOM      8  N   UNL     1       5.750   3.864  15.017  0.00  0.00    +0.000 NA
ATOM      9  N   UNL     1       6.626   4.885  15.077  0.00  0.00    +0.000 N 
ATOM     10  C   UNL     1       7.373   5.272  13.899  0.00  0.00    +0.000 C 
ATOM     11  C   UNL     1       6.748   5.435  16.319  0.00  0.00    +0.000 A 
ATOM     12  N   UNL     1       7.533   6.459  16.665  0.00  0.00    +0.000 NA
ATOM     13  H   UNL     1       7.861   8.086  19.353  0.00  0.00    +0.000 HD
ATOM     14  H   UNL     1       4.777   5.119  20.226  0.00  0.00    +0.000 HD
ENDROOT
BRANCH   1  15
ATOM     15  C   UNL     1       8.555   8.872  17.547  0.00  0.00    +0.000 C 
BRANCH  15  16
ATOM     16  C   UNL     1       8.684  10.194  18.308  0.00  0.00    +0.000 C 
BRANCH  16  18
ATOM     17  C   UNL     1       9.444  11.163  20.315  0.00  0.00    +0.000 C 
ATOM     18  O   UNL     1       9.384   9.972  19.538  0.00  0.00    +0.000 OA
ENDBRANCH  16  18
ENDBRANCH  15  16
ENDBRANCH   1  15
BRANCH   5  19
ATOM     19  C   UNL     1       4.684   3.140  19.417  0.00  0.00    +0.000 C 
BRANCH  19  20
ATOM     20  C   UNL     1       3.190   2.953  19.534  0.00  0.00    +0.000 A 
ATOM     21  C   UNL     1       2.509   3.371  20.687  0.00  0.00    +0.000 A 
ATOM     22  C   UNL     1       1.130   3.186  20.803  0.00  0.00    +0.000 A 
ATOM     23  C   UNL     1       0.413   2.594  19.765  0.00  0.00    +0.000 A 
ATOM     24  C   UNL     1       1.073   2.202  18.602  0.00  0.00    +0.000 A 
ATOM     25  C   UNL     1       2.452   2.385  18.483  0.00  0.00    +0.000 A 
ENDBRANCH  19  20
ENDBRANCH   5  19
TORSDOF 5
ENDMDL
MODEL 6
REMARK VINA RESULT:      -7.1      4.750      6.254
REMARK  Name = 
REMARK  7 active torsions:
REMARK  status: ('A' for Active; 'I' for Inactive)
REMARK    1  A    between atoms: C_1  and  O_2
REMARK    2  A    between atoms: O_2  and  C_3
REMARK    3  A    between atoms: C_3  and  C_4
REMARK    4  A    between atoms: C_4  and  N_5
REMARK    5  A    between atoms: N_9  and  C_10
REMARK    6  A    between atoms: C_10  and  C_11
REMARK    7  A    between atoms: N_20  and  C_21
REMARK                            x       y       z     vdW  Elec       q    Type
REMARK                         _______ _______ _______ _____ _____    ______ ____
ROOT
ATOM      1  N   UNL     1       8.298   7.677  18.665  0.00  0.00    +0.000 N 
ATOM      2  C   UNL     1       7.463   6.709  18.130  0.00  0.00    +0.000 A 
ATOM      3  N   UNL     1       6.633   6.096  18.988  0.00  0.00    +0.000 NA
ATOM      4  C   UNL     1       5.869   5.045  18.584  0.00  0.00    +0.000 A 
ATOM      5  N   UNL     1       5.075   4.426  19.521  0.00  0.00    +0.000 N 
ATOM      6  C   UNL     1       5.925   4.700  17.228  0.00  0.00    +0.000 A 
ATOM      7  C   UNL     1       5.320   3.790  16.332  0.00  0.00    +0.000 A 
ATOM      8  N   UNL     1       5.748   3.936  15.069  0.00  0.00    +0.000 NA
ATOM      9  N   UNL     1       6.633   4.945  15.168  0.00  0.00    +0.000 N 
ATOM     10  C   UNL     1       7.378   5.377  14.003  0.00  0.00    +0.000 C 
ATOM     11  C   UNL     1       6.768   5.440  16.432  0.00  0.00    +0.000 A 
ATOM     12  N   UNL     1       7.564   6.441  16.818  0.00  0.00    +0.000 NA
ATOM     13  H   UNL     1       7.923   7.946  19.572  0.00  0.00    +0.000 HD
ATOM     14  H   UNL     1       4.817   4.972  20.334  0.00  0.00    +0.000 HD
ENDROOT
BRANCH   1  15
ATOM     15  C   UNL     1       8.614   8.804  17.797  0.00  0.00    +0.000 C 
BRANCH  15  16
ATOM     16  C   UNL     1       8.921  10.053  18.626  0.00  0.00    +0.000 C 
BRANCH  16  18
ATOM     17  C   UNL     1       9.102  12.297  17.937  0.00  0.00    +0.000 C 
ATOM     18  O   UNL     1       9.654  10.990  17.828  0.00  0.00    +0.000 OA
ENDBRANCH  16  18
ENDBRANCH  15  16
ENDBRANCH   1  15
BRANCH   5  19
ATOM     19  C   UNL     1       4.701   3.031  19.440  0.00  0.00    +0.000 C 
BRANCH  19  20
ATOM     20  C   UNL     1       3.207   2.851  19.575  0.00  0.00    +0.000 A 
ATOM     21  C   UNL     1       2.434   2.471  18.468  0.00  0.00    +0.000 A 
ATOM     22  C   UNL     1       1.051   2.317  18.586  0.00  0.00    +0.000 A 
ATOM     23  C   UNL     1       0.427   2.528  19.814  0.00  0.00    +0.000 A 
ATOM     24  C   UNL     1       1.187   2.876  20.929  0.00  0.00    +0.000 A 
ATOM     25  C   UNL     1       2.570   3.031  20.813  0.00  0.00    +0.000 A 
ENDBRANCH  19  20
ENDBRANCH   5  19
TORSDOF 5
ENDMDL
MODEL 7
REMARK VINA RESULT:      -7.1      3.837      7.765
REMARK  Name = 
REMARK  7 active torsions:
REMARK  status: ('A' for Active; 'I' for Inactive)
REMARK    1  A    between atoms: C_1  and  O_2
REMARK    2  A    between atoms: O_2  and  C_3
REMARK    3  A    between atoms: C_3  and  C_4
REMARK    4  A    between atoms: C_4  and  N_5
REMARK    5  A    between atoms: N_9  and  C_10
REMARK    6  A    between atoms: C_10  and  C_11
REMARK    7  A    between atoms: N_20  and  C_21
REMARK                            x       y       z     vdW  Elec       q    Type
REMARK                         _______ _______ _______ _____ _____    ______ ____
ROOT
ATOM      1  N   UNL     1      -1.426  10.354  17.385  0.00  0.00    +0.000 N 
ATOM      2  C   UNL     1      -0.589  10.021  18.438  0.00  0.00    +0.000 A 
ATOM      3  N   UNL     1       0.489   9.282  18.133  0.00  0.00    +0.000 NA
ATOM      4  C   UNL     1       1.299   8.797  19.113  0.00  0.00    +0.000 A 
ATOM      5  N   UNL     1       2.359   8.004  18.741  0.00  0.00    +0.000 N 
ATOM      6  C   UNL     1       1.006   9.178  20.428  0.00  0.00    +0.000 A 
ATOM      7  C   UNL     1       1.535   9.020  21.728  0.00  0.00    +0.000 A 
ATOM      8  N   UNL     1       0.830   9.672  22.665  0.00  0.00    +0.000 NA
ATOM      9  N   UNL     1      -0.156  10.246  21.950  0.00  0.00    +0.000 N 
ATOM     10  C   UNL     1      -1.189  11.009  22.618  0.00  0.00    +0.000 C 
ATOM     11  C   UNL     1      -0.090   9.989  20.612  0.00  0.00    +0.000 A 
ATOM     12  N   UNL     1      -0.927  10.433  19.671  0.00  0.00    +0.000 NA
ATOM     13  H   UNL     1      -0.911  10.213  16.519  0.00  0.00    +0.000 HD
ATOM     14  H   UNL     1       2.700   8.112  17.793  0.00  0.00    +0.000 HD
ENDROOT
BRANCH   1  15
ATOM     15  C   UNL     1      -2.088  11.649  17.475  0.00  0.00    +0.000 C 
BRANCH  15  16
ATOM     16  C   UNL     1      -3.570  11.524  17.113  0.00  0.00    +0.000 C 
BRANCH  16  18
ATOM     17  C   UNL     1      -5.595  11.004  18.194  0.00  0.00    +0.000 C 
ATOM     18  O   UNL     1      -4.222  10.661  18.051  0.00  0.00    +0.000 OA
ENDBRANCH  16  18
ENDBRANCH  15  16
ENDBRANCH   1  15
BRANCH   5  19
ATOM     19  C   UNL     1       2.915   6.978  19.595  0.00  0.00    +0.000 C 
BRANCH  19  20
ATOM     20  C   UNL     1       2.223   5.652  19.388  0.00  0.00    +0.000 A 
ATOM     21  C   UNL     1       1.632   4.981  20.468  0.00  0.00    +0.000 A 
ATOM     22  C   UNL     1       1.004   3.748  20.281  0.00  0.00    +0.000 A 
ATOM     23  C   UNL     1       0.947   3.178  19.011  0.00  0.00    +0.000 A 
ATOM     24  C   UNL     1       1.503   3.848  17.923  0.00  0.00    +0.000 A 
ATOM     25  C   UNL     1       2.132   5.081  18.108  0.00  0.00    +0.000 A 
ENDBRANCH  19  20
ENDBRANCH   5  19
TORSDOF 5
ENDMDL
MODEL 8
REMARK VINA RESULT:      -7.1      5.021      6.419
REMARK  Name = 
REMARK  7 active torsions:
REMARK  status: ('A' for Active; 'I' for Inactive)
REMARK    1  A    between atoms: C_1  and  O_2
REMARK    2  A    between atoms: O_2  and  C_3
REMARK    3  A    between atoms: C_3  and  C_4
REMARK    4  A    between atoms: C_4  and  N_5
REMARK    5  A    between atoms: N_9  and  C_10
REMARK    6  A    between atoms: C_10  and  C_11
REMARK    7  A    between atoms: N_20  and  C_21
REMARK                            x       y       z     vdW  Elec       q    Type
REMARK                         _______ _______ _______ _____ _____    ______ ____
ROOT
ATOM      1  N   UNL     1       6.877   4.373  14.079  0.00  0.00    +0.000 N 
ATOM      2  C   UNL     1       6.643   4.846  15.359  0.00  0.00    +0.000 A 
ATOM      3  N   UNL     1       7.209   6.022  15.675  0.00  0.00    +0.000 NA
ATOM      4  C   UNL     1       7.144   6.505  16.945  0.00  0.00    +0.000 A 
ATOM      5  N   UNL     1       7.787   7.690  17.219  0.00  0.00    +0.000 N 
ATOM      6  C   UNL     1       6.392   5.770  17.870  0.00  0.00    +0.000 A 
ATOM      7  C   UNL     1       5.973   5.858  19.216  0.00  0.00    +0.000 A 
ATOM      8  N   UNL     1       5.189   4.836  19.589  0.00  0.00    +0.000 NA
ATOM      9  N   UNL     1       5.114   4.093  18.469  0.00  0.00    +0.000 N 
ATOM     10  C   UNL     1       4.388   2.839  18.474  0.00  0.00    +0.000 C 
ATOM     11  C   UNL     1       5.806   4.611  17.414  0.00  0.00    +0.000 A 
ATOM     12  N   UNL     1       5.900   4.093  16.187  0.00  0.00    +0.000 NA
ATOM     13  H   UNL     1       7.207   5.152  13.513  0.00  0.00    +0.000 HD
ATOM     14  H   UNL     1       7.954   8.311  16.436  0.00  0.00    +0.000 HD
ENDROOT
BRANCH   1  15
ATOM     15  C   UNL     1       5.794   3.615  13.466  0.00  0.00    +0.000 C 
BRANCH  15  16
ATOM     16  C   UNL     1       6.157   3.219  12.032  0.00  0.00    +0.000 C 
BRANCH  16  18
ATOM     17  C   UNL     1       3.971   3.160  11.161  0.00  0.00    +0.000 C 
ATOM     18  O   UNL     1       5.123   2.391  11.487  0.00  0.00    +0.000 OA
ENDBRANCH  16  18
ENDBRANCH  15  16
ENDBRANCH   1  15
BRANCH   5  19
ATOM     19  C   UNL     1       8.313   8.019  18.525  0.00  0.00    +0.000 C 
BRANCH  19  20
ATOM     20  C   UNL     1       8.674   9.481  18.623  0.00  0.00    +0.000 A 
ATOM     21  C   UNL     1       9.449   9.953  19.694  0.00  0.00    +0.000 A 
ATOM     22  C   UNL     1       9.773  11.307  19.794  0.00  0.00    +0.000 A 
ATOM     23  C   UNL     1       9.339  12.204  18.820  0.00  0.00    +0.000 A 
ATOM     24  C   UNL     1       8.595  11.745  17.736  0.00  0.00    +0.000 A 
ATOM     25  C   UNL     1       8.269  10.390  17.633  0.00  0.00    +0.000 A 
ENDBRANCH  19  20
ENDBRANCH   5  19
TORSDOF 5
ENDMDL
MODEL 9
REMARK VINA RESULT:      -7.1      2.747      7.889
REMARK  Name = 
REMARK  7 active torsions:
REMARK  status: ('A' for Active; 'I' for Inactive)
REMARK    1  A    between atoms: C_1  and  O_2
REMARK    2  A    between atoms: O_2  and  C_3
REMARK    3  A    between atoms: C_3  and  C_4
REMARK    4  A    between atoms: C_4  and  N_5
REMARK    5  A    between atoms: N_9  and  C_10
REMARK    6  A    between atoms: C_10  and  C_11
REMARK    7  A    between atoms: N_20  and  C_21
REMARK                            x       y       z     vdW  Elec       q    Type
REMARK                         _______ _______ _______ _____ _____    ______ ____
ROOT
ATOM      1  N   UNL     1       2.124   8.338  17.875  0.00  0.00    +0.000 N 
ATOM      2  C   UNL     1       2.866   7.193  18.114  0.00  0.00    +0.000 A 
ATOM      3  N   UNL     1       3.908   6.975  17.296  0.00  0.00    +0.000 NA
ATOM      4  C   UNL     1       4.617   5.816  17.368  0.00  0.00    +0.000 A 
ATOM      5  N   UNL     1       5.642   5.629  16.470  0.00  0.00    +0.000 N 
ATOM      6  C   UNL     1       4.267   4.917  18.384  0.00  0.00    +0.000 A 
ATOM      7  C   UNL     1       4.699   3.678  18.908  0.00  0.00    +0.000 A 
ATOM      8  N   UNL     1       3.982   3.279  19.969  0.00  0.00    +0.000 NA
ATOM      9  N   UNL     1       3.086   4.274  20.114  0.00  0.00    +0.000 N 
ATOM     10  C   UNL     1       2.067   4.191  21.140  0.00  0.00    +0.000 C 
ATOM     11  C   UNL     1       3.220   5.277  19.200  0.00  0.00    +0.000 A 
ATOM     12  N   UNL     1       2.479   6.384  19.114  0.00  0.00    +0.000 NA
ATOM     13  H   UNL     1       2.683   8.957  17.292  0.00  0.00    +0.000 HD
ATOM     14  H   UNL     1       6.050   6.461  16.062  0.00  0.00    +0.000 HD
ENDROOT
BRANCH   1  15
ATOM     15  C   UNL     1       1.549   8.988  19.046  0.00  0.00    +0.000 C 
BRANCH  15  16
ATOM     16  C   UNL     1       0.751  10.228  18.637  0.00  0.00    +0.000 C 
BRANCH  16  18
ATOM     17  C   UNL     1      -0.181   9.722  20.739  0.00  0.00    +0.000 C 
ATOM     18  O   UNL     1      -0.395  10.361  19.486  0.00  0.00    +0.000 OA
ENDBRANCH  16  18
ENDBRANCH  15  16
ENDBRANCH   1  15
BRANCH   5  19
ATOM     19  C   UNL     1       6.068   4.322  16.021  0.00  0.00    +0.000 C 
BRANCH  19  20
ATOM     20  C   UNL     1       6.447   4.336  14.560  0.00  0.00    +0.000 A 
ATOM     21  C   UNL     1       7.488   5.158  14.102  0.00  0.00    +0.000 A 
ATOM     22  C   UNL     1       7.832   5.183  12.749  0.00  0.00    +0.000 A 
ATOM     23  C   UNL     1       7.149   4.378  11.839  0.00  0.00    +0.000 A 
ATOM     24  C   UNL     1       6.133   3.535  12.285  0.00  0.00    +0.000 A 
ATOM     25  C   UNL     1       5.788   3.508  13.638  0.00  0.00    +0.000 A 
ENDBRANCH  19  20
ENDBRANCH   5  19
TORSDOF 5
ENDMDL
