MODEL 1
REMARK VINA RESULT:      -7.2      0.000      0.000
REMARK  Name = 
REMARK  2 active torsions:
REMARK  status: ('A' for Active; 'I' for Inactive)
REMARK    1  A    between atoms: C_5  and  C_6
REMARK    2  A    between atoms: N_14  and  C_15
REMARK                            x       y       z     vdW  Elec       q    Type
REMARK                         _______ _______ _______ _____ _____    ______ ____
ROOT
ATOM      1  O   UNL     1       0.938   4.261  19.602  0.00  0.00    +0.000 OA
ATOM      2  C   UNL     1       2.145   4.022  19.611  0.00  0.00    +0.000 C 
ATOM      3  C   UNL     1       2.734   2.850  20.352  0.00  0.00    +0.000 C 
ATOM      4  S   UNL     1       4.481   2.781  19.935  0.00  0.00    +0.000 S 
ATOM      5  C   UNL     1       4.479   4.404  19.130  0.00  0.00    +0.000 C 
ATOM      6  N   UNL     1       3.090   4.797  18.953  0.00  0.00    +0.000 N 
ENDROOT
BRANCH   5   7
ATOM      7  C   UNL     1       5.348   4.395  17.895  0.00  0.00    +0.000 A 
ATOM      8  C   UNL     1       4.926   3.777  16.711  0.00  0.00    +0.000 A 
ATOM      9  F   UNL     1       3.761   3.115  16.673  0.00  0.00    +0.000 F 
ATOM     10  C   UNL     1       5.673   3.835  15.535  0.00  0.00    +0.000 A 
ATOM     11  C   UNL     1       6.897   4.496  15.523  0.00  0.00    +0.000 A 
ATOM     12  C   UNL     1       7.384   5.049  16.703  0.00  0.00    +0.000 A 
ATOM     13  C   UNL     1       6.625   4.987  17.882  0.00  0.00    +0.000 A 
ATOM     14 CL   UNL     1       7.345   5.659  19.304  0.00  0.00    +0.000 Cl
ENDBRANCH   5   7
BRANCH   6  15
ATOM     15  C   UNL     1       2.664   6.018  18.200  0.00  0.00    +0.000 C 
ATOM     16  C   UNL     1       2.055   7.168  19.060  0.00  0.00    +0.000 C 
ATOM     17  F   UNL     1       2.485   7.242  20.344  0.00  0.00    +0.000 F 
ATOM     18  C   UNL     1       2.749   8.160  18.105  0.00  0.00    +0.000 C 
ATOM     19  C   UNL     1       3.754   7.039  17.767  0.00  0.00    +0.000 C 
ATOM     20  F   UNL     1       4.139   6.975  16.474  0.00  0.00    +0.000 F 
ENDBRANCH   6  15
TORSDOF 2
ENDMDL
MODEL 2
REMARK VINA RESULT:      -6.9      0.936      1.641
REMARK  Name = 
REMARK  2 active torsions:
REMARK  status: ('A' for Active; 'I' for Inactive)
REMARK    1  A    between atoms: C_5  and  C_6
REMARK    2  A    between atoms: N_14  and  C_15
REMARK                            x       y       z     vdW  Elec       q    Type
REMARK                         _______ _______ _______ _____ _____    ______ ____
ROOT
ATOM      1  O   UNL     1       1.252   4.846  20.608  0.00  0.00    +0.000 OA
ATOM      2  C   UNL     1       2.336   4.344  20.316  0.00  0.00    +0.000 C 
ATOM      3  C   UNL     1       2.666   2.901  20.596  0.00  0.00    +0.000 C 
ATOM      4  S   UNL     1       4.260   2.562  19.839  0.00  0.00    +0.000 S 
ATOM      5  C   UNL     1       4.607   4.307  19.498  0.00  0.00    +0.000 C 
ATOM      6  N   UNL     1       3.370   5.044  19.708  0.00  0.00    +0.000 N 
ENDROOT
BRANCH   5   7
ATOM      7  C   UNL     1       5.281   4.473  18.156  0.00  0.00    +0.000 A 
ATOM      8  C   UNL     1       4.682   4.009  16.979  0.00  0.00    +0.000 A 
ATOM      9  F   UNL     1       3.520   3.341  17.030  0.00  0.00    +0.000 F 
ATOM     10  C   UNL     1       5.244   4.231  15.722  0.00  0.00    +0.000 A 
ATOM     11  C   UNL     1       6.456   4.904  15.613  0.00  0.00    +0.000 A 
ATOM     12  C   UNL     1       7.118   5.305  16.769  0.00  0.00    +0.000 A 
ATOM     13  C   UNL     1       6.545   5.079  18.030  0.00  0.00    +0.000 A 
ATOM     14 CL   UNL     1       7.474   5.569  19.404  0.00  0.00    +0.000 Cl
ENDBRANCH   5   7
BRANCH   6  15
ATOM     15  C   UNL     1       3.209   6.499  19.396  0.00  0.00    +0.000 C 
ATOM     16  C   UNL     1       2.644   6.832  17.981  0.00  0.00    +0.000 C 
ATOM     17  F   UNL     1       1.834   5.895  17.429  0.00  0.00    +0.000 F 
ATOM     18  C   UNL     1       1.895   8.011  18.631  0.00  0.00    +0.000 C 
ATOM     19  C   UNL     1       1.972   7.246  19.968  0.00  0.00    +0.000 C 
ATOM     20  F   UNL     1       2.198   8.008  21.060  0.00  0.00    +0.000 F 
ENDBRANCH   6  15
TORSDOF 2
ENDMDL
MODEL 3
REMARK VINA RESULT:      -6.8      1.830      2.559
REMARK  Name = 
REMARK  2 active torsions:
REMARK  status: ('A' for Active; 'I' for Inactive)
REMARK    1  A    between atoms: C_5  and  C_6
REMARK    2  A    between atoms: N_14  and  C_15
REMARK                            x       y       z     vdW  Elec       q    Type
REMARK                         _______ _______ _______ _____ _____    ______ ____
ROOT
ATOM      1  O   UNL     1       1.034   4.907  20.527  0.00  0.00    +0.000 OA
ATOM      2  C   UNL     1       2.113   4.354  20.320  0.00  0.00    +0.000 C 
ATOM      3  C   UNL     1       2.349   2.897  20.618  0.00  0.00    +0.000 C 
ATOM      4  S   UNL     1       3.981   2.482  19.989  0.00  0.00    +0.000 S 
ATOM      5  C   UNL     1       4.437   4.209  19.685  0.00  0.00    +0.000 C 
ATOM      6  N   UNL     1       3.224   5.004  19.799  0.00  0.00    +0.000 N 
ENDROOT
BRANCH   5   7
ATOM      7  C   UNL     1       5.223   4.343  18.402  0.00  0.00    +0.000 A 
ATOM      8  C   UNL     1       6.488   4.941  18.382  0.00  0.00    +0.000 A 
ATOM      9  F   UNL     1       7.001   5.474  19.500  0.00  0.00    +0.000 F 
ATOM     10  C   UNL     1       7.267   4.995  17.226  0.00  0.00    +0.000 A 
ATOM     11  C   UNL     1       6.776   4.471  16.034  0.00  0.00    +0.000 A 
ATOM     12  C   UNL     1       5.489   3.944  16.001  0.00  0.00    +0.000 A 
ATOM     13  C   UNL     1       4.713   3.893  17.170  0.00  0.00    +0.000 A 
ATOM     14 CL   UNL     1       3.108   3.267  17.008  0.00  0.00    +0.000 Cl
ENDBRANCH   5   7
BRANCH   6  15
ATOM     15  C   UNL     1       3.158   6.465  19.483  0.00  0.00    +0.000 C 
ATOM     16  C   UNL     1       2.660   6.828  18.051  0.00  0.00    +0.000 C 
ATOM     17  F   UNL     1       1.815   5.939  17.472  0.00  0.00    +0.000 F 
ATOM     18  C   UNL     1       1.960   8.050  18.676  0.00  0.00    +0.000 C 
ATOM     19  C   UNL     1       1.949   7.284  20.015  0.00  0.00    +0.000 C 
ATOM     20  F   UNL     1       2.183   8.033  21.114  0.00  0.00    +0.000 F 
ENDBRANCH   6  15
TORSDOF 2
ENDMDL
MODEL 4
REMARK VINA RESULT:      -6.6      2.561      4.815
REMARK  Name = 
REMARK  2 active torsions:
REMARK  status: ('A' for Active; 'I' for Inactive)
REMARK    1  A    between atoms: C_5  and  C_6
REMARK    2  A    between atoms: N_14  and  C_15
REMARK                            x       y       z     vdW  Elec       q    Type
REMARK                         _______ _______ _______ _____ _____    ______ ____
ROOT
ATOM      1  O   UNL     1       5.867   3.140  15.635  0.00  0.00    +0.000 OA
ATOM      2  C   UNL     1       5.852   3.959  16.553  0.00  0.00    +0.000 C 
ATOM      3  C   UNL     1       7.056   4.784  16.926  0.00  0.00    +0.000 C 
ATOM      4  S   UNL     1       6.529   5.963  18.175  0.00  0.00    +0.000 S 
ATOM      5  C   UNL     1       4.922   5.163  18.428  0.00  0.00    +0.000 C 
ATOM      6  N   UNL     1       4.738   4.210  17.344  0.00  0.00    +0.000 N 
ENDROOT
BRANCH   5   7
ATOM      7  C   UNL     1       3.832   6.190  18.626  0.00  0.00    +0.000 A 
ATOM      8  C   UNL     1       3.016   6.176  19.764  0.00  0.00    +0.000 A 
ATOM      9  F   UNL     1       3.143   5.198  20.673  0.00  0.00    +0.000 F 
ATOM     10  C   UNL     1       2.065   7.165  20.009  0.00  0.00    +0.000 A 
ATOM     11  C   UNL     1       1.881   8.193  19.090  0.00  0.00    +0.000 A 
ATOM     12  C   UNL     1       2.617   8.191  17.909  0.00  0.00    +0.000 A 
ATOM     13  C   UNL     1       3.574   7.191  17.672  0.00  0.00    +0.000 A 
ATOM     14 CL   UNL     1       4.397   7.251  16.151  0.00  0.00    +0.000 Cl
ENDBRANCH   5   7
BRANCH   6  15
ATOM     15  C   UNL     1       3.472   3.445  17.120  0.00  0.00    +0.000 C 
ATOM     16  C   UNL     1       3.363   2.080  17.868  0.00  0.00    +0.000 C 
ATOM     17  F   UNL     1       4.054   1.982  19.031  0.00  0.00    +0.000 F 
ATOM     18  C   UNL     1       1.861   2.376  18.049  0.00  0.00    +0.000 C 
ATOM     19  C   UNL     1       2.199   3.874  17.902  0.00  0.00    +0.000 C 
ATOM     20  F   UNL     1       1.301   4.606  17.208  0.00  0.00    +0.000 F 
ENDBRANCH   6  15
TORSDOF 2
ENDMDL
MODEL 5
REMARK VINA RESULT:      -6.4      2.319      3.825
REMARK  Name = 
REMARK  2 active torsions:
REMARK  status: ('A' for Active; 'I' for Inactive)
REMARK    1  A    between atoms: C_5  and  C_6
REMARK    2  A    between atoms: N_14  and  C_15
REMARK                            x       y       z     vdW  Elec       q    Type
REMARK                         _______ _______ _______ _____ _____    ______ ____
ROOT
ATOM      1  O   UNL     1       1.408   5.504  20.451  0.00  0.00    +0.000 OA
ATOM      2  C   UNL     1       2.135   5.888  19.536  0.00  0.00    +0.000 C 
ATOM      3  C   UNL     1       2.206   7.329  19.105  0.00  0.00    +0.000 C 
ATOM      4  S   UNL     1       3.519   7.457  17.884  0.00  0.00    +0.000 S 
ATOM      5  C   UNL     1       3.700   5.662  17.711  0.00  0.00    +0.000 C 
ATOM      6  N   UNL     1       2.960   5.046  18.801  0.00  0.00    +0.000 N 
ENDROOT
BRANCH   5   7
ATOM      7  C   UNL     1       5.153   5.276  17.568  0.00  0.00    +0.000 A 
ATOM      8  C   UNL     1       6.050   5.410  18.635  0.00  0.00    +0.000 A 
ATOM      9  F   UNL     1       5.647   5.955  19.792  0.00  0.00    +0.000 F 
ATOM     10  C   UNL     1       7.373   4.977  18.552  0.00  0.00    +0.000 A 
ATOM     11  C   UNL     1       7.847   4.419  17.369  0.00  0.00    +0.000 A 
ATOM     12  C   UNL     1       7.005   4.348  16.264  0.00  0.00    +0.000 A 
ATOM     13  C   UNL     1       5.675   4.785  16.357  0.00  0.00    +0.000 A 
ATOM     14 CL   UNL     1       4.728   4.701  14.911  0.00  0.00    +0.000 Cl
ENDBRANCH   5   7
BRANCH   6  15
ATOM     15  C   UNL     1       2.976   3.577  19.087  0.00  0.00    +0.000 C 
ATOM     16  C   UNL     1       2.406   2.660  17.962  0.00  0.00    +0.000 C 
ATOM     17  F   UNL     1       2.511   3.136  16.696  0.00  0.00    +0.000 F 
ATOM     18  C   UNL     1       3.491   1.633  18.341  0.00  0.00    +0.000 C 
ATOM     19  C   UNL     1       4.314   2.804  18.917  0.00  0.00    +0.000 C 
ATOM     20  F   UNL     1       4.987   2.535  20.057  0.00  0.00    +0.000 F 
ENDBRANCH   6  15
TORSDOF 2
ENDMDL
MODEL 6
REMARK VINA RESULT:      -6.4      1.541      1.963
REMARK  Name = 
REMARK  2 active torsions:
REMARK  status: ('A' for Active; 'I' for Inactive)
REMARK    1  A    between atoms: C_5  and  C_6
REMARK    2  A    between atoms: N_14  and  C_15
REMARK                            x       y       z     vdW  Elec       q    Type
REMARK                         _______ _______ _______ _____ _____    ______ ____
ROOT
ATOM      1  O   UNL     1       0.805   4.396  19.829  0.00  0.00    +0.000 OA
ATOM      2  C   UNL     1       2.008   4.139  19.812  0.00  0.00    +0.000 C 
ATOM      3  C   UNL     1       2.598   2.967  20.552  0.00  0.00    +0.000 C 
ATOM      4  S   UNL     1       4.333   2.867  20.093  0.00  0.00    +0.000 S 
ATOM      5  C   UNL     1       4.335   4.480  19.268  0.00  0.00    +0.000 C 
ATOM      6  N   UNL     1       2.948   4.892  19.121  0.00  0.00    +0.000 N 
ENDROOT
BRANCH   5   7
ATOM      7  C   UNL     1       5.173   4.444  18.012  0.00  0.00    +0.000 A 
ATOM      8  C   UNL     1       6.427   5.064  17.955  0.00  0.00    +0.000 A 
ATOM      9  F   UNL     1       6.881   5.767  19.003  0.00  0.00    +0.000 F 
ATOM     10  C   UNL     1       7.255   4.966  16.837  0.00  0.00    +0.000 A 
ATOM     11  C   UNL     1       6.826   4.262  15.717  0.00  0.00    +0.000 A 
ATOM     12  C   UNL     1       5.551   3.704  15.709  0.00  0.00    +0.000 A 
ATOM     13  C   UNL     1       4.726   3.806  16.840  0.00  0.00    +0.000 A 
ATOM     14 CL   UNL     1       3.142   3.124  16.708  0.00  0.00    +0.000 Cl
ENDBRANCH   5   7
BRANCH   6  15
ATOM     15  C   UNL     1       2.522   6.111  18.364  0.00  0.00    +0.000 C 
ATOM     16  C   UNL     1       1.917   7.265  19.220  0.00  0.00    +0.000 C 
ATOM     17  F   UNL     1       2.349   7.344  20.503  0.00  0.00    +0.000 F 
ATOM     18  C   UNL     1       2.609   8.251  18.259  0.00  0.00    +0.000 C 
ATOM     19  C   UNL     1       3.611   7.129  17.924  0.00  0.00    +0.000 C 
ATOM     20  F   UNL     1       3.993   7.059  16.630  0.00  0.00    +0.000 F 
ENDBRANCH   6  15
TORSDOF 2
ENDMDL
MODEL 7
REMARK VINA RESULT:      -6.3      2.754      4.241
REMARK  Name = 
REMARK  2 active torsions:
REMARK  status: ('A' for Active; 'I' for Inactive)
REMARK    1  A    between atoms: C_5  and  C_6
REMARK    2  A    between atoms: N_14  and  C_15
REMARK                            x       y       z     vdW  Elec       q    Type
REMARK                         _______ _______ _______ _____ _____    ______ ____
ROOT
ATOM      1  O   UNL     1       2.909   8.572  17.064  0.00  0.00    +0.000 OA
ATOM      2  C   UNL     1       2.915   7.726  17.956  0.00  0.00    +0.000 C 
ATOM      3  C   UNL     1       2.070   7.849  19.198  0.00  0.00    +0.000 C 
ATOM      4  S   UNL     1       2.250   6.316  20.119  0.00  0.00    +0.000 S 
ATOM      5  C   UNL     1       3.624   5.721  19.099  0.00  0.00    +0.000 C 
ATOM      6  N   UNL     1       3.694   6.577  17.925  0.00  0.00    +0.000 N 
ENDROOT
BRANCH   5   7
ATOM      7  C   UNL     1       3.513   4.235  18.855  0.00  0.00    +0.000 A 
ATOM      8  C   UNL     1       4.504   3.348  19.292  0.00  0.00    +0.000 A 
ATOM      9  F   UNL     1       5.616   3.814  19.880  0.00  0.00    +0.000 F 
ATOM     10  C   UNL     1       4.378   1.966  19.156  0.00  0.00    +0.000 A 
ATOM     11  C   UNL     1       3.253   1.430  18.539  0.00  0.00    +0.000 A 
ATOM     12  C   UNL     1       2.288   2.287  18.018  0.00  0.00    +0.000 A 
ATOM     13  C   UNL     1       2.423   3.677  18.161  0.00  0.00    +0.000 A 
ATOM     14 CL   UNL     1       1.195   4.654  17.433  0.00  0.00    +0.000 Cl
ENDBRANCH   5   7
BRANCH   6  15
ATOM     15  C   UNL     1       4.614   6.327  16.771  0.00  0.00    +0.000 C 
ATOM     16  C   UNL     1       6.096   6.768  16.977  0.00  0.00    +0.000 C 
ATOM     17  F   UNL     1       6.546   6.761  18.257  0.00  0.00    +0.000 F 
ATOM     18  C   UNL     1       6.508   5.530  16.157  0.00  0.00    +0.000 C 
ATOM     19  C   UNL     1       5.165   4.889  16.560  0.00  0.00    +0.000 C 
ATOM     20  F   UNL     1       4.556   4.162  15.597  0.00  0.00    +0.000 F 
ENDBRANCH   6  15
TORSDOF 2
ENDMDL
MODEL 8
REMARK VINA RESULT:      -6.2      2.867      4.843
REMARK  Name = 
REMARK  2 active torsions:
REMARK  status: ('A' for Active; 'I' for Inactive)
REMARK    1  A    between atoms: C_5  and  C_6
REMARK    2  A    between atoms: N_14  and  C_15
REMARK                            x       y       z     vdW  Elec       q    Type
REMARK                         _______ _______ _______ _____ _____    ______ ____
ROOT
ATOM      1  O   UNL     1       5.895   7.424  16.854  0.00  0.00    +0.000 OA
ATOM      2  C   UNL     1       4.869   7.086  17.443  0.00  0.00    +0.000 C 
ATOM      3  C   UNL     1       3.595   7.887  17.377  0.00  0.00    +0.000 C 
ATOM      4  S   UNL     1       2.323   6.933  18.216  0.00  0.00    +0.000 S 
ATOM      5  C   UNL     1       3.500   5.740  18.906  0.00  0.00    +0.000 C 
ATOM      6  N   UNL     1       4.772   5.946  18.230  0.00  0.00    +0.000 N 
ENDROOT
BRANCH   5   7
ATOM      7  C   UNL     1       2.931   4.341  18.878  0.00  0.00    +0.000 A 
ATOM      8  C   UNL     1       2.867   3.605  17.689  0.00  0.00    +0.000 A 
ATOM      9  F   UNL     1       3.249   4.160  16.529  0.00  0.00    +0.000 F 
ATOM     10  C   UNL     1       2.430   2.282  17.657  0.00  0.00    +0.000 A 
ATOM     11  C   UNL     1       2.007   1.663  18.829  0.00  0.00    +0.000 A 
ATOM     12  C   UNL     1       1.979   2.392  20.013  0.00  0.00    +0.000 A 
ATOM     13  C   UNL     1       2.423   3.724  20.036  0.00  0.00    +0.000 A 
ATOM     14 CL   UNL     1       2.298   4.557  21.547  0.00  0.00    +0.000 Cl
ENDBRANCH   5   7
BRANCH   6  15
ATOM     15  C   UNL     1       5.965   5.064  18.423  0.00  0.00    +0.000 C 
ATOM     16  C   UNL     1       6.375   4.198  17.192  0.00  0.00    +0.000 C 
ATOM     17  F   UNL     1       6.059   4.707  15.975  0.00  0.00    +0.000 F 
ATOM     18  C   UNL     1       7.842   4.421  17.608  0.00  0.00    +0.000 C 
ATOM     19  C   UNL     1       7.380   5.702  18.333  0.00  0.00    +0.000 C 
ATOM     20  F   UNL     1       7.988   5.953  19.513  0.00  0.00    +0.000 F 
ENDBRANCH   6  15
TORSDOF 2
ENDMDL
MODEL 9
REMARK VINA RESULT:      -6.1      2.007      3.240
REMARK  Name = 
REMARK  2 active torsions:
REMARK  status: ('A' for Active; 'I' for Inactive)
REMARK    1  A    between atoms: C_5  and  C_6
REMARK    2  A    between atoms: N_14  and  C_15
REMARK                            x       y       z     vdW  Elec       q    Type
REMARK                         _______ _______ _______ _____ _____    ______ ____
ROOT
ATOM      1  O   UNL     1       1.956   5.360  20.864  0.00  0.00    +0.000 OA
ATOM      2  C   UNL     1       2.449   5.710  19.793  0.00  0.00    +0.000 C 
ATOM      3  C   UNL     1       2.481   7.149  19.346  0.00  0.00    +0.000 C 
ATOM      4  S   UNL     1       3.452   7.215  17.835  0.00  0.00    +0.000 S 
ATOM      5  C   UNL     1       3.494   5.415  17.637  0.00  0.00    +0.000 C 
ATOM      6  N   UNL     1       3.020   4.831  18.883  0.00  0.00    +0.000 N 
ENDROOT
BRANCH   5   7
ATOM      7  C   UNL     1       4.844   4.956  17.139  0.00  0.00    +0.000 A 
ATOM      8  C   UNL     1       5.000   4.407  15.860  0.00  0.00    +0.000 A 
ATOM      9  F   UNL     1       3.932   4.212  15.073  0.00  0.00    +0.000 F 
ATOM     10  C   UNL     1       6.250   4.061  15.348  0.00  0.00    +0.000 A 
ATOM     11  C   UNL     1       7.390   4.228  16.128  0.00  0.00    +0.000 A 
ATOM     12  C   UNL     1       7.260   4.693  17.432  0.00  0.00    +0.000 A 
ATOM     13  C   UNL     1       5.998   5.040  17.939  0.00  0.00    +0.000 A 
ATOM     14 CL   UNL     1       5.940   5.558  19.589  0.00  0.00    +0.000 Cl
ENDBRANCH   5   7
BRANCH   6  15
ATOM     15  C   UNL     1       3.034   3.362  19.168  0.00  0.00    +0.000 C 
ATOM     16  C   UNL     1       1.682   2.751  19.648  0.00  0.00    +0.000 C 
ATOM     17  F   UNL     1       0.559   3.378  19.218  0.00  0.00    +0.000 F 
ATOM     18  C   UNL     1       2.045   1.486  18.846  0.00  0.00    +0.000 C 
ATOM     19  C   UNL     1       2.953   2.374  17.970  0.00  0.00    +0.000 C 
ATOM     20  F   UNL     1       4.122   1.813  17.590  0.00  0.00    +0.000 F 
ENDBRANCH   6  15
TORSDOF 2
ENDMDL
