MODEL 1
REMARK VINA RESULT:      -7.2      0.000      0.000
REMARK  Name = 
REMARK  5 active torsions:
REMARK  status: ('A' for Active; 'I' for Inactive)
REMARK    1  A    between atoms: C_4  and  O_5
REMARK    2  A    between atoms: C_8  and  C_9
REMARK    3  A    between atoms: C_8  and  C_10
REMARK    4  A    between atoms: C_14  and  O_15
REMARK    5  A    between atoms: C_14  and  C_16
REMARK                            x       y       z     vdW  Elec       q    Type
REMARK                         _______ _______ _______ _____ _____    ______ ____
ROOT
ATOM      1  C   UNL     1       2.334   6.866  17.799  0.00  0.00    +0.000 C 
ATOM      2  C   UNL     1       2.643   5.984  18.769  0.00  0.00    +0.000 C 
ATOM      3  C   UNL     1       1.989   6.160  20.134  0.00  0.00    +0.000 C 
ATOM      4  C   UNL     1       1.544   4.854  20.791  0.00  0.00    +0.000 C 
ATOM      5  C   UNL     1       2.682   3.826  20.756  0.00  0.00    +0.000 C 
ATOM      6 BR   UNL     1       2.124   2.226  21.771  0.00  0.00    +0.000 Br
ATOM      7  C   UNL     1       3.253   3.512  19.339  0.00  0.00    +0.000 C 
ATOM      8  C   UNL     1       4.421   2.499  19.481  0.00  0.00    +0.000 C 
ATOM      9  C   UNL     1       2.188   2.805  18.442  0.00  0.00    +0.000 C 
ATOM     10  C   UNL     1       3.746   4.890  18.642  0.00  0.00    +0.000 C 
ATOM     11  C   UNL     1       4.061   4.575  17.176  0.00  0.00    +0.000 C 
ATOM     12  C   UNL     1       5.279   4.573  16.618  0.00  0.00    +0.000 C 
ATOM     13  C   UNL     1       6.546   4.995  17.302  0.00  0.00    +0.000 C 
ATOM     14  C   UNL     1       6.373   5.035  18.829  0.00  0.00    +0.000 C 
ATOM     15  C   UNL     1       5.008   5.551  19.300  0.00  0.00    +0.000 C 
ENDROOT
BRANCH   4  16
ATOM     16  O   UNL     1       0.334   4.382  20.196  0.00  0.00    +0.000 OA
ATOM     17  H   UNL     1       0.467   4.295  19.235  0.00  0.00    +0.000 HD
ENDBRANCH   4  16
BRANCH  13  18
ATOM     18  O   UNL     1       7.519   3.994  16.994  0.00  0.00    +0.000 OA
ATOM     19  H   UNL     1       8.389   4.433  17.006  0.00  0.00    +0.000 HD
ENDBRANCH  13  18
BRANCH  13  20
ATOM     20  C   UNL     1       6.949   6.320  16.635  0.00  0.00    +0.000 C 
ATOM     21 BR   UNL     1       7.791   7.572  17.870  0.00  0.00    +0.000 Br
ENDBRANCH  13  20
TORSDOF 3
ENDMDL
MODEL 2
REMARK VINA RESULT:      -6.2      1.385      1.557
REMARK  Name = 
REMARK  5 active torsions:
REMARK  status: ('A' for Active; 'I' for Inactive)
REMARK    1  A    between atoms: C_4  and  O_5
REMARK    2  A    between atoms: C_8  and  C_9
REMARK    3  A    between atoms: C_8  and  C_10
REMARK    4  A    between atoms: C_14  and  O_15
REMARK    5  A    between atoms: C_14  and  C_16
REMARK                            x       y       z     vdW  Elec       q    Type
REMARK                         _______ _______ _______ _____ _____    ______ ____
ROOT
ATOM      1  C   UNL     1       2.279   7.469  19.702  0.00  0.00    +0.000 C 
ATOM      2  C   UNL     1       2.635   6.170  19.722  0.00  0.00    +0.000 C 
ATOM      3  C   UNL     1       2.265   5.342  20.947  0.00  0.00    +0.000 C 
ATOM      4  C   UNL     1       1.773   3.931  20.626  0.00  0.00    +0.000 C 
ATOM      5  C   UNL     1       2.739   3.239  19.656  0.00  0.00    +0.000 C 
ATOM      6 BR   UNL     1       2.161   1.366  19.415  0.00  0.00    +0.000 Br
ATOM      7  C   UNL     1       3.000   4.000  18.319  0.00  0.00    +0.000 C 
ATOM      8  C   UNL     1       4.027   3.197  17.477  0.00  0.00    +0.000 C 
ATOM      9  C   UNL     1       1.706   4.076  17.448  0.00  0.00    +0.000 C 
ATOM     10  C   UNL     1       3.541   5.492  18.649  0.00  0.00    +0.000 C 
ATOM     11  C   UNL     1       3.544   6.279  17.335  0.00  0.00    +0.000 C 
ATOM     12  C   UNL     1       4.631   6.693  16.671  0.00  0.00    +0.000 C 
ATOM     13  C   UNL     1       6.044   6.562  17.155  0.00  0.00    +0.000 C 
ATOM     14  C   UNL     1       6.154   5.536  18.296  0.00  0.00    +0.000 C 
ATOM     15  C   UNL     1       4.977   5.552  19.278  0.00  0.00    +0.000 C 
ENDROOT
BRANCH   4  16
ATOM     16  O   UNL     1       0.424   3.966  20.157  0.00  0.00    +0.000 OA
ATOM     17  H   UNL     1       0.347   3.394  19.374  0.00  0.00    +0.000 HD
ENDBRANCH   4  16
BRANCH  13  18
ATOM     18  O   UNL     1       6.804   6.072  16.048  0.00  0.00    +0.000 OA
ATOM     19  H   UNL     1       7.318   6.824  15.702  0.00  0.00    +0.000 HD
ENDBRANCH  13  18
BRANCH  13  20
ATOM     20  C   UNL     1       6.497   7.992  17.490  0.00  0.00    +0.000 C 
ATOM     21 BR   UNL     1       8.302   8.072  18.224  0.00  0.00    +0.000 Br
ENDBRANCH  13  20
TORSDOF 3
ENDMDL
MODEL 3
REMARK VINA RESULT:      -6.2      2.074      5.280
REMARK  Name = 
REMARK  5 active torsions:
REMARK  status: ('A' for Active; 'I' for Inactive)
REMARK    1  A    between atoms: C_4  and  O_5
REMARK    2  A    between atoms: C_8  and  C_9
REMARK    3  A    between atoms: C_8  and  C_10
REMARK    4  A    between atoms: C_14  and  O_15
REMARK    5  A    between atoms: C_14  and  C_16
REMARK                            x       y       z     vdW  Elec       q    Type
REMARK                         _______ _______ _______ _____ _____    ______ ____
ROOT
ATOM      1  C   UNL     1       3.491   6.728  19.318  0.00  0.00    +0.000 C 
ATOM      2  C   UNL     1       3.890   6.186  18.151  0.00  0.00    +0.000 C 
ATOM      3  C   UNL     1       3.990   7.098  16.934  0.00  0.00    +0.000 C 
ATOM      4  C   UNL     1       5.214   6.842  16.056  0.00  0.00    +0.000 C 
ATOM      5  C   UNL     1       5.342   5.346  15.744  0.00  0.00    +0.000 C 
ATOM      6 BR   UNL     1       6.826   5.088  14.466  0.00  0.00    +0.000 Br
ATOM      7  C   UNL     1       5.408   4.409  16.990  0.00  0.00    +0.000 C 
ATOM      8  C   UNL     1       5.486   2.936  16.508  0.00  0.00    +0.000 C 
ATOM      9  C   UNL     1       6.711   4.653  17.816  0.00  0.00    +0.000 C 
ATOM     10  C   UNL     1       4.102   4.660  17.918  0.00  0.00    +0.000 C 
ATOM     11  C   UNL     1       4.328   3.915  19.238  0.00  0.00    +0.000 C 
ATOM     12  C   UNL     1       3.659   2.831  19.651  0.00  0.00    +0.000 C 
ATOM     13  C   UNL     1       2.483   2.218  18.950  0.00  0.00    +0.000 C 
ATOM     14  C   UNL     1       2.382   2.706  17.495  0.00  0.00    +0.000 C 
ATOM     15  C   UNL     1       2.745   4.183  17.294  0.00  0.00    +0.000 C 
ENDROOT
BRANCH   4  16
ATOM     16  O   UNL     1       6.385   7.400  16.655  0.00  0.00    +0.000 OA
ATOM     17  H   UNL     1       6.217   7.541  17.603  0.00  0.00    +0.000 HD
ENDBRANCH   4  16
BRANCH  13  18
ATOM     18  O   UNL     1       2.721   0.809  18.926  0.00  0.00    +0.000 OA
ATOM     19  H   UNL     1       2.565   0.511  18.012  0.00  0.00    +0.000 HD
ENDBRANCH  13  18
BRANCH  13  20
ATOM     20  C   UNL     1       1.271   2.515  19.846  0.00  0.00    +0.000 C 
ATOM     21 BR   UNL     1       1.765   2.971  21.676  0.00  0.00    +0.000 Br
ENDBRANCH  13  20
TORSDOF 3
ENDMDL
MODEL 4
REMARK VINA RESULT:      -6.1      1.316      1.324
REMARK  Name = 
REMARK  5 active torsions:
REMARK  status: ('A' for Active; 'I' for Inactive)
REMARK    1  A    between atoms: C_4  and  O_5
REMARK    2  A    between atoms: C_8  and  C_9
REMARK    3  A    between atoms: C_8  and  C_10
REMARK    4  A    between atoms: C_14  and  O_15
REMARK    5  A    between atoms: C_14  and  C_16
REMARK                            x       y       z     vdW  Elec       q    Type
REMARK                         _______ _______ _______ _____ _____    ______ ____
ROOT
ATOM      1  C   UNL     1       2.677   7.210  17.806  0.00  0.00    +0.000 C 
ATOM      2  C   UNL     1       2.903   6.210  18.680  0.00  0.00    +0.000 C 
ATOM      3  C   UNL     1       2.576   6.453  20.149  0.00  0.00    +0.000 C 
ATOM      4  C   UNL     1       1.918   5.265  20.850  0.00  0.00    +0.000 C 
ATOM      5  C   UNL     1       2.709   3.980  20.577  0.00  0.00    +0.000 C 
ATOM      6 BR   UNL     1       1.927   2.514  21.645  0.00  0.00    +0.000 Br
ATOM      7  C   UNL     1       2.910   3.630  19.070  0.00  0.00    +0.000 C 
ATOM      8  C   UNL     1       3.765   2.338  18.965  0.00  0.00    +0.000 C 
ATOM      9  C   UNL     1       1.551   3.295  18.379  0.00  0.00    +0.000 C 
ATOM     10  C   UNL     1       3.627   4.877  18.321  0.00  0.00    +0.000 C 
ATOM     11  C   UNL     1       3.577   4.597  16.816  0.00  0.00    +0.000 C 
ATOM     12  C   UNL     1       4.628   4.315  16.035  0.00  0.00    +0.000 C 
ATOM     13  C   UNL     1       6.063   4.338  16.472  0.00  0.00    +0.000 C 
ATOM     14  C   UNL     1       6.183   4.312  18.005  0.00  0.00    +0.000 C 
ATOM     15  C   UNL     1       5.116   5.133  18.739  0.00  0.00    +0.000 C 
ENDROOT
BRANCH   4  16
ATOM     16  O   UNL     1       0.539   5.172  20.488  0.00  0.00    +0.000 OA
ATOM     17  H   UNL     1       0.407   5.614  19.631  0.00  0.00    +0.000 HD
ENDBRANCH   4  16
BRANCH  13  18
ATOM     18  O   UNL     1       6.657   3.142  15.963  0.00  0.00    +0.000 OA
ATOM     19  H   UNL     1       6.790   3.276  15.008  0.00  0.00    +0.000 HD
ENDBRANCH  13  18
BRANCH  13  20
ATOM     20  C   UNL     1       6.686   5.555  15.769  0.00  0.00    +0.000 C 
ATOM     21 BR   UNL     1       7.294   5.163  13.958  0.00  0.00    +0.000 Br
ENDBRANCH  13  20
TORSDOF 3
ENDMDL
MODEL 5
REMARK VINA RESULT:      -5.3      2.679      3.771
REMARK  Name = 
REMARK  5 active torsions:
REMARK  status: ('A' for Active; 'I' for Inactive)
REMARK    1  A    between atoms: C_4  and  O_5
REMARK    2  A    between atoms: C_8  and  C_9
REMARK    3  A    between atoms: C_8  and  C_10
REMARK    4  A    between atoms: C_14  and  O_15
REMARK    5  A    between atoms: C_14  and  C_16
REMARK                            x       y       z     vdW  Elec       q    Type
REMARK                         _______ _______ _______ _____ _____    ______ ____
ROOT
ATOM      1  C   UNL     1       3.893   1.962  17.564  0.00  0.00    +0.000 C 
ATOM      2  C   UNL     1       3.518   3.256  17.567  0.00  0.00    +0.000 C 
ATOM      3  C   UNL     1       2.053   3.578  17.835  0.00  0.00    +0.000 C 
ATOM      4  C   UNL     1       1.831   4.788  18.741  0.00  0.00    +0.000 C 
ATOM      5  C   UNL     1       2.667   5.978  18.254  0.00  0.00    +0.000 C 
ATOM      6 BR   UNL     1       2.211   7.562  19.343  0.00  0.00    +0.000 Br
ATOM      7  C   UNL     1       4.199   5.710  18.133  0.00  0.00    +0.000 C 
ATOM      8  C   UNL     1       4.890   6.988  17.586  0.00  0.00    +0.000 C 
ATOM      9  C   UNL     1       4.841   5.448  19.532  0.00  0.00    +0.000 C 
ATOM     10  C   UNL     1       4.446   4.440  17.157  0.00  0.00    +0.000 C 
ATOM     11  C   UNL     1       5.926   4.060  17.265  0.00  0.00    +0.000 C 
ATOM     12  C   UNL     1       6.845   4.202  16.301  0.00  0.00    +0.000 C 
ATOM     13  C   UNL     1       6.566   4.652  14.898  0.00  0.00    +0.000 C 
ATOM     14  C   UNL     1       5.190   5.330  14.789  0.00  0.00    +0.000 C 
ATOM     15  C   UNL     1       4.096   4.686  15.648  0.00  0.00    +0.000 C 
ENDROOT
BRANCH   4  16
ATOM     16  O   UNL     1       2.075   4.442  20.105  0.00  0.00    +0.000 OA
ATOM     17  H   UNL     1       2.863   4.921  20.416  0.00  0.00    +0.000 HD
ENDBRANCH   4  16
BRANCH  13  18
ATOM     18  O   UNL     1       7.563   5.626  14.584  0.00  0.00    +0.000 OA
ATOM     19  H   UNL     1       8.396   5.318  14.984  0.00  0.00    +0.000 HD
ENDBRANCH  13  18
BRANCH  13  20
ATOM     20  C   UNL     1       6.775   3.408  14.020  0.00  0.00    +0.000 C 
ATOM     21 BR   UNL     1       5.787   3.483  12.340  0.00  0.00    +0.000 Br
ENDBRANCH  13  20
TORSDOF 3
ENDMDL
MODEL 6
REMARK VINA RESULT:      -5.2      9.863     12.547
REMARK  Name = 
REMARK  5 active torsions:
REMARK  status: ('A' for Active; 'I' for Inactive)
REMARK    1  A    between atoms: C_4  and  O_5
REMARK    2  A    between atoms: C_8  and  C_9
REMARK    3  A    between atoms: C_8  and  C_10
REMARK    4  A    between atoms: C_14  and  O_15
REMARK    5  A    between atoms: C_14  and  C_16
REMARK                            x       y       z     vdW  Elec       q    Type
REMARK                         _______ _______ _______ _____ _____    ______ ____
ROOT
ATOM      1  C   UNL     1       8.914  14.758  21.766  0.00  0.00    +0.000 C 
ATOM      2  C   UNL     1       9.178  15.338  20.579  0.00  0.00    +0.000 C 
ATOM      3  C   UNL     1       8.323  16.526  20.154  0.00  0.00    +0.000 C 
ATOM      4  C   UNL     1       9.106  17.658  19.490  0.00  0.00    +0.000 C 
ATOM      5  C   UNL     1      10.016  17.101  18.389  0.00  0.00    +0.000 C 
ATOM      6 BR   UNL     1      10.867  18.613  17.444  0.00  0.00    +0.000 Br
ATOM      7  C   UNL     1      11.017  15.996  18.848  0.00  0.00    +0.000 C 
ATOM      8  C   UNL     1      11.825  15.507  17.616  0.00  0.00    +0.000 C 
ATOM      9  C   UNL     1      12.073  16.565  19.847  0.00  0.00    +0.000 C 
ATOM     10  C   UNL     1      10.194  14.780  19.536  0.00  0.00    +0.000 C 
ATOM     11  C   UNL     1      11.217  13.846  20.189  0.00  0.00    +0.000 C 
ATOM     12  C   UNL     1      11.515  12.604  19.786  0.00  0.00    +0.000 C 
ATOM     13  C   UNL     1      10.815  11.857  18.690  0.00  0.00    +0.000 C 
ATOM     14  C   UNL     1       9.998  12.807  17.798  0.00  0.00    +0.000 C 
ATOM     15  C   UNL     1       9.301  13.945  18.553  0.00  0.00    +0.000 C 
ENDROOT
BRANCH   4  16
ATOM     16  O   UNL     1       9.805  18.425  20.472  0.00  0.00    +0.000 OA
ATOM     17  H   UNL     1      10.728  18.539  20.185  0.00  0.00    +0.000 HD
ENDBRANCH   4  16
BRANCH  13  18
ATOM     18  O   UNL     1      11.841  11.271  17.886  0.00  0.00    +0.000 OA
ATOM     19  H   UNL     1      11.402  10.874  17.113  0.00  0.00    +0.000 HD
ENDBRANCH  13  18
BRANCH  13  20
ATOM     20  C   UNL     1      10.022  10.745  19.394  0.00  0.00    +0.000 C 
ATOM     21 BR   UNL     1       8.693   9.905  18.240  0.00  0.00    +0.000 Br
ENDBRANCH  13  20
TORSDOF 3
ENDMDL
MODEL 7
REMARK VINA RESULT:      -5.1      9.780     12.622
REMARK  Name = 
REMARK  5 active torsions:
REMARK  status: ('A' for Active; 'I' for Inactive)
REMARK    1  A    between atoms: C_4  and  O_5
REMARK    2  A    between atoms: C_8  and  C_9
REMARK    3  A    between atoms: C_8  and  C_10
REMARK    4  A    between atoms: C_14  and  O_15
REMARK    5  A    between atoms: C_14  and  C_16
REMARK                            x       y       z     vdW  Elec       q    Type
REMARK                         _______ _______ _______ _____ _____    ______ ____
ROOT
ATOM      1  C   UNL     1       8.780  12.507  17.860  0.00  0.00    +0.000 C 
ATOM      2  C   UNL     1       9.667  13.462  18.199  0.00  0.00    +0.000 C 
ATOM      3  C   UNL     1      11.047  13.422  17.553  0.00  0.00    +0.000 C 
ATOM      4  C   UNL     1      11.589  14.792  17.145  0.00  0.00    +0.000 C 
ATOM      5  C   UNL     1      11.457  15.784  18.307  0.00  0.00    +0.000 C 
ATOM      6 BR   UNL     1      12.332  17.480  17.796  0.00  0.00    +0.000 Br
ATOM      7  C   UNL     1      10.014  15.960  18.872  0.00  0.00    +0.000 C 
ATOM      8  C   UNL     1      10.059  16.952  20.065  0.00  0.00    +0.000 C 
ATOM      9  C   UNL     1       9.066  16.611  17.816  0.00  0.00    +0.000 C 
ATOM     10  C   UNL     1       9.437  14.514  19.326  0.00  0.00    +0.000 C 
ATOM     11  C   UNL     1       7.947  14.692  19.635  0.00  0.00    +0.000 C 
ATOM     12  C   UNL     1       7.382  14.616  20.847  0.00  0.00    +0.000 C 
ATOM     13  C   UNL     1       8.091  14.225  22.110  0.00  0.00    +0.000 C 
ATOM     14  C   UNL     1       9.617  14.323  21.950  0.00  0.00    +0.000 C 
ATOM     15  C   UNL     1      10.141  13.883  20.578  0.00  0.00    +0.000 C 
ENDROOT
BRANCH   4  16
ATOM     16  O   UNL     1      10.964  15.239  15.942  0.00  0.00    +0.000 OA
ATOM     17  H   UNL     1      10.622  16.140  16.079  0.00  0.00    +0.000 HD
ENDBRANCH   4  16
BRANCH  13  18
ATOM     18  O   UNL     1       7.690  15.171  23.104  0.00  0.00    +0.000 OA
ATOM     19  H   UNL     1       6.793  14.921  23.387  0.00  0.00    +0.000 HD
ENDBRANCH  13  18
BRANCH  13  20
ATOM     20  C   UNL     1       7.540  12.838  22.477  0.00  0.00    +0.000 C 
ATOM     21 BR   UNL     1       8.318  12.113  24.112  0.00  0.00    +0.000 Br
ENDBRANCH  13  20
TORSDOF 3
ENDMDL
MODEL 8
REMARK VINA RESULT:      -5.0      9.421     11.401
REMARK  Name = 
REMARK  5 active torsions:
REMARK  status: ('A' for Active; 'I' for Inactive)
REMARK    1  A    between atoms: C_4  and  O_5
REMARK    2  A    between atoms: C_8  and  C_9
REMARK    3  A    between atoms: C_8  and  C_10
REMARK    4  A    between atoms: C_14  and  O_15
REMARK    5  A    between atoms: C_14  and  C_16
REMARK                            x       y       z     vdW  Elec       q    Type
REMARK                         _______ _______ _______ _____ _____    ______ ____
ROOT
ATOM      1  C   UNL     1      11.592  12.069  20.313  0.00  0.00    +0.000 C 
ATOM      2  C   UNL     1      10.327  12.452  20.576  0.00  0.00    +0.000 C 
ATOM      3  C   UNL     1       9.330  11.385  21.012  0.00  0.00    +0.000 C 
ATOM      4  C   UNL     1       8.390  11.824  22.134  0.00  0.00    +0.000 C 
ATOM      5  C   UNL     1       7.765  13.185  21.803  0.00  0.00    +0.000 C 
ATOM      6 BR   UNL     1       6.428  13.623  23.190  0.00  0.00    +0.000 Br
ATOM      7  C   UNL     1       8.781  14.333  21.516  0.00  0.00    +0.000 C 
ATOM      8  C   UNL     1       7.995  15.621  21.154  0.00  0.00    +0.000 C 
ATOM      9  C   UNL     1       9.610  14.688  22.791  0.00  0.00    +0.000 C 
ATOM     10  C   UNL     1       9.771  13.884  20.313  0.00  0.00    +0.000 C 
ATOM     11  C   UNL     1      10.896  14.921  20.234  0.00  0.00    +0.000 C 
ATOM     12  C   UNL     1      11.085  15.800  19.242  0.00  0.00    +0.000 C 
ATOM     13  C   UNL     1      10.295  15.852  17.968  0.00  0.00    +0.000 C 
ATOM     14  C   UNL     1       8.980  15.064  18.090  0.00  0.00    +0.000 C 
ATOM     15  C   UNL     1       9.090  13.769  18.904  0.00  0.00    +0.000 C 
ENDROOT
BRANCH   4  16
ATOM     16  O   UNL     1       9.068  11.800  23.391  0.00  0.00    +0.000 OA
ATOM     17  H   UNL     1       8.928  12.652  23.841  0.00  0.00    +0.000 HD
ENDBRANCH   4  16
BRANCH  13  18
ATOM     18  O   UNL     1       9.967  17.226  17.755  0.00  0.00    +0.000 OA
ATOM     19  H   UNL     1      10.513  17.535  17.010  0.00  0.00    +0.000 HD
ENDBRANCH  13  18
BRANCH  13  20
ATOM     20  C   UNL     1      11.261  15.383  16.868  0.00  0.00    +0.000 C 
ATOM     21 BR   UNL     1      11.410  13.441  16.758  0.00  0.00    +0.000 Br
ENDBRANCH  13  20
TORSDOF 3
ENDMDL
MODEL 9
REMARK VINA RESULT:      -4.9      2.097      3.186
REMARK  Name = 
REMARK  5 active torsions:
REMARK  status: ('A' for Active; 'I' for Inactive)
REMARK    1  A    between atoms: C_4  and  O_5
REMARK    2  A    between atoms: C_8  and  C_9
REMARK    3  A    between atoms: C_8  and  C_10
REMARK    4  A    between atoms: C_14  and  O_15
REMARK    5  A    between atoms: C_14  and  C_16
REMARK                            x       y       z     vdW  Elec       q    Type
REMARK                         _______ _______ _______ _____ _____    ______ ____
ROOT
ATOM      1  C   UNL     1       4.077   1.323  18.025  0.00  0.00    +0.000 C 
ATOM      2  C   UNL     1       3.357   2.450  18.191  0.00  0.00    +0.000 C 
ATOM      3  C   UNL     1       1.837   2.338  18.179  0.00  0.00    +0.000 C 
ATOM      4  C   UNL     1       1.135   3.202  19.226  0.00  0.00    +0.000 C 
ATOM      5  C   UNL     1       1.670   4.639  19.176  0.00  0.00    +0.000 C 
ATOM      6 BR   UNL     1       0.612   5.753  20.417  0.00  0.00    +0.000 Br
ATOM      7  C   UNL     1       3.213   4.781  19.354  0.00  0.00    +0.000 C 
ATOM      8  C   UNL     1       3.596   6.281  19.231  0.00  0.00    +0.000 C 
ATOM      9  C   UNL     1       3.663   4.346  20.785  0.00  0.00    +0.000 C 
ATOM     10  C   UNL     1       3.967   3.884  18.234  0.00  0.00    +0.000 C 
ATOM     11  C   UNL     1       5.455   3.852  18.597  0.00  0.00    +0.000 C 
ATOM     12  C   UNL     1       6.443   4.440  17.910  0.00  0.00    +0.000 C 
ATOM     13  C   UNL     1       6.285   5.139  16.592  0.00  0.00    +0.000 C 
ATOM     14  C   UNL     1       4.811   5.476  16.309  0.00  0.00    +0.000 C 
ATOM     15  C   UNL     1       3.817   4.400  16.761  0.00  0.00    +0.000 C 
ENDROOT
BRANCH   4  16
ATOM     16  O   UNL     1       1.237   2.602  20.519  0.00  0.00    +0.000 OA
ATOM     17  H   UNL     1       0.343   2.395  20.843  0.00  0.00    +0.000 HD
ENDBRANCH   4  16
BRANCH  13  18
ATOM     18  O   UNL     1       7.004   6.369  16.702  0.00  0.00    +0.000 OA
ATOM     19  H   UNL     1       6.355   7.057  16.936  0.00  0.00    +0.000 HD
ENDBRANCH  13  18
BRANCH  13  20
ATOM     20  C   UNL     1       6.979   4.234  15.562  0.00  0.00    +0.000 C 
ATOM     21 BR   UNL     1       5.984   4.072  13.893  0.00  0.00    +0.000 Br
ENDBRANCH  13  20
TORSDOF 3
ENDMDL
