MODEL 1
REMARK VINA RESULT:      -7.2      0.000      0.000
REMARK  Name = 
REMARK  10 active torsions:
REMARK  status: ('A' for Active; 'I' for Inactive)
REMARK    1  A    between atoms: C_1  and  C_2
REMARK    2  A    between atoms: C_2  and  O_3
REMARK    3  A    between atoms: O_3  and  C_4
REMARK    4  A    between atoms: C_4  and  C_6
REMARK    5  A    between atoms: C_7  and  C_8
REMARK    6  A    between atoms: N_12  and  C_13
REMARK    7  A    between atoms: C_13  and  C_14
REMARK    8  A    between atoms: C_14  and  C_15
REMARK    9  A    between atoms: C_18  and  C_19
REMARK   10  A    between atoms: C_23  and  N_24
REMARK                            x       y       z     vdW  Elec       q    Type
REMARK                         _______ _______ _______ _____ _____    ______ ____
ROOT
ATOM      1  C   UNL     1       3.055   4.270  19.684  0.00  0.00    +0.000 C 
ATOM      2  C   UNL     1       2.383   4.361  20.850  0.00  0.00    +0.000 C 
ATOM      3  C   UNL     1       2.256   3.340  21.953  0.00  0.00    +0.000 C 
ATOM      4  N   UNL     1       1.669   5.510  21.098  0.00  0.00    +0.000 N 
ATOM      5  C   UNL     1       1.715   6.669  20.383  0.00  0.00    +0.000 C 
ATOM      6  O   UNL     1       1.036   7.631  20.734  0.00  0.00    +0.000 OA
ATOM      7  N   UNL     1       2.606   6.698  19.329  0.00  0.00    +0.000 N 
ATOM      8  C   UNL     1       3.055   5.428  18.696  0.00  0.00    +0.000 C 
ATOM      9  H   UNL     1       1.098   5.571  21.934  0.00  0.00    +0.000 HD
ENDROOT
BRANCH   8  10
ATOM     10  C   UNL     1       4.374   5.611  17.946  0.00  0.00    +0.000 A 
ATOM     11  C   UNL     1       4.472   5.418  16.561  0.00  0.00    +0.000 A 
ATOM     12  C   UNL     1       5.711   5.492  15.920  0.00  0.00    +0.000 A 
ATOM     13  C   UNL     1       6.866   5.772  16.653  0.00  0.00    +0.000 A 
ATOM     14  C   UNL     1       6.775   6.001  18.033  0.00  0.00    +0.000 A 
ATOM     15  C   UNL     1       5.535   5.940  18.676  0.00  0.00    +0.000 A 
BRANCH  14  16
ATOM     16  N   UNL     1       7.982   6.264  18.818  0.00  0.00    +0.000 N 
ATOM     17  O   UNL     1       8.414   5.345  19.531  0.00  0.00    +0.000 OA
ATOM     18  O   UNL     1       8.504   7.383  18.729  0.00  0.00    +0.000 OA
ENDBRANCH  14  16
ENDBRANCH   8  10
BRANCH   1  19
ATOM     19  C   UNL     1       3.749   3.002  19.311  0.00  0.00    +0.000 C 
ATOM     20  O   UNL     1       4.778   2.597  19.830  0.00  0.00    +0.000 OA
BRANCH  19  21
ATOM     21  O   UNL     1       3.086   2.356  18.319  0.00  0.00    +0.000 OA
BRANCH  21  23
ATOM     22  C   UNL     1       0.655   2.243  18.675  0.00  0.00    +0.000 C 
ATOM     23  C   UNL     1       1.992   1.519  18.737  0.00  0.00    +0.000 C 
ENDBRANCH  21  23
ENDBRANCH  19  21
ENDBRANCH   1  19
BRANCH   7  24
ATOM     24  C   UNL     1       2.946   8.024  18.785  0.00  0.00    +0.000 C 
BRANCH  24  25
ATOM     25  C   UNL     1       2.082   8.596  17.669  0.00  0.00    +0.000 C 
BRANCH  25  26
ATOM     26  C   UNL     1       1.348   9.870  17.984  0.00  0.00    +0.000 C 
ATOM     27  N   UNL     1       2.045  11.033  17.885  0.00  0.00    +0.000 N 
ATOM     28  O   UNL     1       0.145   9.881  18.231  0.00  0.00    +0.000 OA
ATOM     29  H   UNL     1       3.052  11.067  18.015  0.00  0.00    +0.000 HD
ATOM     30  H   UNL     1       1.536  11.871  18.135  0.00  0.00    +0.000 HD
ENDBRANCH  25  26
ENDBRANCH  24  25
ENDBRANCH   7  24
TORSDOF 8
ENDMDL
MODEL 2
REMARK VINA RESULT:      -7.0      2.150      2.741
REMARK  Name = 
REMARK  10 active torsions:
REMARK  status: ('A' for Active; 'I' for Inactive)
REMARK    1  A    between atoms: C_1  and  C_2
REMARK    2  A    between atoms: C_2  and  O_3
REMARK    3  A    between atoms: O_3  and  C_4
REMARK    4  A    between atoms: C_4  and  C_6
REMARK    5  A    between atoms: C_7  and  C_8
REMARK    6  A    between atoms: N_12  and  C_13
REMARK    7  A    between atoms: C_13  and  C_14
REMARK    8  A    between atoms: C_14  and  C_15
REMARK    9  A    between atoms: C_18  and  C_19
REMARK   10  A    between atoms: C_23  and  N_24
REMARK                            x       y       z     vdW  Elec       q    Type
REMARK                         _______ _______ _______ _____ _____    ______ ____
ROOT
ATOM      1  C   UNL     1       3.269   3.255  19.850  0.00  0.00    +0.000 C 
ATOM      2  C   UNL     1       2.415   3.249  20.894  0.00  0.00    +0.000 C 
ATOM      3  C   UNL     1       2.139   2.147  21.886  0.00  0.00    +0.000 C 
ATOM      4  N   UNL     1       1.641   4.366  21.104  0.00  0.00    +0.000 N 
ATOM      5  C   UNL     1       1.770   5.575  20.490  0.00  0.00    +0.000 C 
ATOM      6  O   UNL     1       1.018   6.499  20.794  0.00  0.00    +0.000 OA
ATOM      7  N   UNL     1       2.818   5.696  19.601  0.00  0.00    +0.000 N 
ATOM      8  C   UNL     1       3.398   4.483  18.961  0.00  0.00    +0.000 C 
ATOM      9  H   UNL     1       0.941   4.356  21.838  0.00  0.00    +0.000 HD
ENDROOT
BRANCH   8  10
ATOM     10  C   UNL     1       4.815   4.741  18.450  0.00  0.00    +0.000 A 
ATOM     11  C   UNL     1       5.838   5.189  19.297  0.00  0.00    +0.000 A 
ATOM     12  C   UNL     1       7.095   5.514  18.782  0.00  0.00    +0.000 A 
ATOM     13  C   UNL     1       7.349   5.386  17.414  0.00  0.00    +0.000 A 
ATOM     14  C   UNL     1       6.344   4.907  16.563  0.00  0.00    +0.000 A 
ATOM     15  C   UNL     1       5.088   4.568  17.077  0.00  0.00    +0.000 A 
BRANCH  14  16
ATOM     16  N   UNL     1       6.586   4.798  15.123  0.00  0.00    +0.000 N 
ATOM     17  O   UNL     1       7.578   5.382  14.662  0.00  0.00    +0.000 OA
ATOM     18  O   UNL     1       5.792   4.131  14.447  0.00  0.00    +0.000 OA
ENDBRANCH  14  16
ENDBRANCH   8  10
BRANCH   1  19
ATOM     19  C   UNL     1       4.048   2.029  19.507  0.00  0.00    +0.000 C 
ATOM     20  O   UNL     1       3.803   1.294  18.564  0.00  0.00    +0.000 OA
BRANCH  19  21
ATOM     21  O   UNL     1       5.068   1.838  20.381  0.00  0.00    +0.000 OA
BRANCH  21  23
ATOM     22  C   UNL     1       6.024   0.339  22.082  0.00  0.00    +0.000 C 
ATOM     23  C   UNL     1       5.354   0.468  20.721  0.00  0.00    +0.000 C 
ENDBRANCH  21  23
ENDBRANCH  19  21
ENDBRANCH   1  19
BRANCH   7  24
ATOM     24  C   UNL     1       3.206   7.063  19.215  0.00  0.00    +0.000 C 
BRANCH  24  25
ATOM     25  C   UNL     1       2.434   7.751  18.097  0.00  0.00    +0.000 C 
BRANCH  25  26
ATOM     26  C   UNL     1       1.664   8.984  18.482  0.00  0.00    +0.000 C 
ATOM     27  N   UNL     1       1.038   9.665  17.486  0.00  0.00    +0.000 N 
ATOM     28  O   UNL     1       1.520   9.319  19.656  0.00  0.00    +0.000 OA
ATOM     29  H   UNL     1       1.377   9.644  16.529  0.00  0.00    +0.000 HD
ATOM     30  H   UNL     1       0.557  10.509  17.769  0.00  0.00    +0.000 HD
ENDBRANCH  25  26
ENDBRANCH  24  25
ENDBRANCH   7  24
TORSDOF 8
ENDMDL
MODEL 3
REMARK VINA RESULT:      -6.9      1.107      1.718
REMARK  Name = 
REMARK  10 active torsions:
REMARK  status: ('A' for Active; 'I' for Inactive)
REMARK    1  A    between atoms: C_1  and  C_2
REMARK    2  A    between atoms: C_2  and  O_3
REMARK    3  A    between atoms: O_3  and  C_4
REMARK    4  A    between atoms: C_4  and  C_6
REMARK    5  A    between atoms: C_7  and  C_8
REMARK    6  A    between atoms: N_12  and  C_13
REMARK    7  A    between atoms: C_13  and  C_14
REMARK    8  A    between atoms: C_14  and  C_15
REMARK    9  A    between atoms: C_18  and  C_19
REMARK   10  A    between atoms: C_23  and  N_24
REMARK                            x       y       z     vdW  Elec       q    Type
REMARK                         _______ _______ _______ _____ _____    ______ ____
ROOT
ATOM      1  C   UNL     1       3.042   3.584  19.636  0.00  0.00    +0.000 C 
ATOM      2  C   UNL     1       2.357   3.621  20.798  0.00  0.00    +0.000 C 
ATOM      3  C   UNL     1       2.208   2.547  21.846  0.00  0.00    +0.000 C 
ATOM      4  N   UNL     1       1.649   4.763  21.097  0.00  0.00    +0.000 N 
ATOM      5  C   UNL     1       1.712   5.956  20.442  0.00  0.00    +0.000 C 
ATOM      6  O   UNL     1       1.038   6.905  20.835  0.00  0.00    +0.000 OA
ATOM      7  N   UNL     1       2.616   6.032  19.402  0.00  0.00    +0.000 N 
ATOM      8  C   UNL     1       3.062   4.791  18.709  0.00  0.00    +0.000 C 
ATOM      9  H   UNL     1       1.069   4.785  21.929  0.00  0.00    +0.000 HD
ENDROOT
BRANCH   8  10
ATOM     10  C   UNL     1       4.391   5.001  17.984  0.00  0.00    +0.000 A 
ATOM     11  C   UNL     1       4.553   4.687  16.628  0.00  0.00    +0.000 A 
ATOM     12  C   UNL     1       5.806   4.793  16.019  0.00  0.00    +0.000 A 
ATOM     13  C   UNL     1       6.911   5.226  16.757  0.00  0.00    +0.000 A 
ATOM     14  C   UNL     1       6.754   5.576  18.104  0.00  0.00    +0.000 A 
ATOM     15  C   UNL     1       5.498   5.483  18.713  0.00  0.00    +0.000 A 
BRANCH  14  16
ATOM     16  N   UNL     1       7.909   6.000  18.896  0.00  0.00    +0.000 N 
ATOM     17  O   UNL     1       8.350   7.144  18.702  0.00  0.00    +0.000 OA
ATOM     18  O   UNL     1       8.382   5.199  19.713  0.00  0.00    +0.000 OA
ENDBRANCH  14  16
ENDBRANCH   8  10
BRANCH   1  19
ATOM     19  C   UNL     1       3.730   2.332  19.207  0.00  0.00    +0.000 C 
ATOM     20  O   UNL     1       3.321   1.580  18.337  0.00  0.00    +0.000 OA
BRANCH  19  21
ATOM     21  O   UNL     1       4.873   2.137  19.912  0.00  0.00    +0.000 OA
BRANCH  21  23
ATOM     22  C   UNL     1       5.605   0.735  21.797  0.00  0.00    +0.000 C 
ATOM     23  C   UNL     1       5.113   0.789  20.358  0.00  0.00    +0.000 C 
ENDBRANCH  21  23
ENDBRANCH  19  21
ENDBRANCH   1  19
BRANCH   7  24
ATOM     24  C   UNL     1       2.973   7.380  18.930  0.00  0.00    +0.000 C 
BRANCH  24  25
ATOM     25  C   UNL     1       2.073   8.055  17.904  0.00  0.00    +0.000 C 
BRANCH  25  26
ATOM     26  C   UNL     1       1.515   9.397  18.289  0.00  0.00    +0.000 C 
ATOM     27  N   UNL     1       1.986  10.483  17.620  0.00  0.00    +0.000 N 
ATOM     28  O   UNL     1       0.605   9.511  19.106  0.00  0.00    +0.000 OA
ATOM     29  H   UNL     1       2.915  10.498  17.210  0.00  0.00    +0.000 HD
ATOM     30  H   UNL     1       1.619  11.376  17.923  0.00  0.00    +0.000 HD
ENDBRANCH  25  26
ENDBRANCH  24  25
ENDBRANCH   7  24
TORSDOF 8
ENDMDL
MODEL 4
REMARK VINA RESULT:      -6.9      1.729      2.092
REMARK  Name = 
REMARK  10 active torsions:
REMARK  status: ('A' for Active; 'I' for Inactive)
REMARK    1  A    between atoms: C_1  and  C_2
REMARK    2  A    between atoms: C_2  and  O_3
REMARK    3  A    between atoms: O_3  and  C_4
REMARK    4  A    between atoms: C_4  and  C_6
REMARK    5  A    between atoms: C_7  and  C_8
REMARK    6  A    between atoms: N_12  and  C_13
REMARK    7  A    between atoms: C_13  and  C_14
REMARK    8  A    between atoms: C_14  and  C_15
REMARK    9  A    between atoms: C_18  and  C_19
REMARK   10  A    between atoms: C_23  and  N_24
REMARK                            x       y       z     vdW  Elec       q    Type
REMARK                         _______ _______ _______ _____ _____    ______ ____
ROOT
ATOM      1  C   UNL     1       3.189   3.668  19.888  0.00  0.00    +0.000 C 
ATOM      2  C   UNL     1       2.364   3.748  20.953  0.00  0.00    +0.000 C 
ATOM      3  C   UNL     1       2.076   2.712  22.009  0.00  0.00    +0.000 C 
ATOM      4  N   UNL     1       1.637   4.903  21.122  0.00  0.00    +0.000 N 
ATOM      5  C   UNL     1       1.792   6.073  20.441  0.00  0.00    +0.000 C 
ATOM      6  O   UNL     1       1.083   7.039  20.714  0.00  0.00    +0.000 OA
ATOM      7  N   UNL     1       2.819   6.107  19.520  0.00  0.00    +0.000 N 
ATOM      8  C   UNL     1       3.337   4.841  18.931  0.00  0.00    +0.000 C 
ATOM      9  H   UNL     1       0.958   4.958  21.874  0.00  0.00    +0.000 HD
ENDROOT
BRANCH   8  10
ATOM     10  C   UNL     1       4.748   5.019  18.371  0.00  0.00    +0.000 A 
ATOM     11  C   UNL     1       5.824   5.401  19.182  0.00  0.00    +0.000 A 
ATOM     12  C   UNL     1       7.079   5.656  18.623  0.00  0.00    +0.000 A 
ATOM     13  C   UNL     1       7.276   5.520  17.247  0.00  0.00    +0.000 A 
ATOM     14  C   UNL     1       6.216   5.105  16.430  0.00  0.00    +0.000 A 
ATOM     15  C   UNL     1       4.961   4.837  16.988  0.00  0.00    +0.000 A 
BRANCH  14  16
ATOM     16  N   UNL     1       6.400   4.989  14.983  0.00  0.00    +0.000 N 
ATOM     17  O   UNL     1       7.464   5.409  14.504  0.00  0.00    +0.000 OA
ATOM     18  O   UNL     1       5.487   4.482  14.318  0.00  0.00    +0.000 OA
ENDBRANCH  14  16
ENDBRANCH   8  10
BRANCH   1  19
ATOM     19  C   UNL     1       3.913   2.397  19.591  0.00  0.00    +0.000 C 
ATOM     20  O   UNL     1       5.027   2.121  20.005  0.00  0.00    +0.000 OA
BRANCH  19  21
ATOM     21  O   UNL     1       3.169   1.585  18.798  0.00  0.00    +0.000 OA
BRANCH  21  23
ATOM     22  C   UNL     1       0.778   2.076  18.487  0.00  0.00    +0.000 C 
ATOM     23  C   UNL     1       2.197   2.242  17.963  0.00  0.00    +0.000 C 
ENDBRANCH  21  23
ENDBRANCH  19  21
ENDBRANCH   1  19
BRANCH   7  24
ATOM     24  C   UNL     1       3.245   7.437  19.051  0.00  0.00    +0.000 C 
BRANCH  24  25
ATOM     25  C   UNL     1       2.502   8.070  17.883  0.00  0.00    +0.000 C 
BRANCH  25  26
ATOM     26  C   UNL     1       1.776   9.354  18.175  0.00  0.00    +0.000 C 
ATOM     27  N   UNL     1       2.284  10.495  17.637  0.00  0.00    +0.000 N 
ATOM     28  O   UNL     1       0.714   9.373  18.794  0.00  0.00    +0.000 OA
ATOM     29  H   UNL     1       3.271  10.592  17.424  0.00  0.00    +0.000 HD
ATOM     30  H   UNL     1       1.795  11.347  17.878  0.00  0.00    +0.000 HD
ENDBRANCH  25  26
ENDBRANCH  24  25
ENDBRANCH   7  24
TORSDOF 8
ENDMDL
MODEL 5
REMARK VINA RESULT:      -6.9      2.163      6.051
REMARK  Name = 
REMARK  10 active torsions:
REMARK  status: ('A' for Active; 'I' for Inactive)
REMARK    1  A    between atoms: C_1  and  C_2
REMARK    2  A    between atoms: C_2  and  O_3
REMARK    3  A    between atoms: O_3  and  C_4
REMARK    4  A    between atoms: C_4  and  C_6
REMARK    5  A    between atoms: C_7  and  C_8
REMARK    6  A    between atoms: N_12  and  C_13
REMARK    7  A    between atoms: C_13  and  C_14
REMARK    8  A    between atoms: C_14  and  C_15
REMARK    9  A    between atoms: C_18  and  C_19
REMARK   10  A    between atoms: C_23  and  N_24
REMARK                            x       y       z     vdW  Elec       q    Type
REMARK                         _______ _______ _______ _____ _____    ______ ____
ROOT
ATOM      1  C   UNL     1       5.156   5.616  17.943  0.00  0.00    +0.000 C 
ATOM      2  C   UNL     1       6.086   4.754  18.403  0.00  0.00    +0.000 C 
ATOM      3  C   UNL     1       7.577   4.760  18.178  0.00  0.00    +0.000 C 
ATOM      4  N   UNL     1       5.662   3.685  19.158  0.00  0.00    +0.000 N 
ATOM      5  C   UNL     1       4.414   3.492  19.668  0.00  0.00    +0.000 C 
ATOM      6  O   UNL     1       4.180   2.496  20.349  0.00  0.00    +0.000 OA
ATOM      7  N   UNL     1       3.500   4.500  19.439  0.00  0.00    +0.000 N 
ATOM      8  C   UNL     1       3.686   5.428  18.289  0.00  0.00    +0.000 C 
ATOM      9  H   UNL     1       6.335   2.986  19.453  0.00  0.00    +0.000 HD
ENDROOT
BRANCH   8  10
ATOM     10  C   UNL     1       2.919   6.734  18.494  0.00  0.00    +0.000 A 
ATOM     11  C   UNL     1       2.849   7.716  17.496  0.00  0.00    +0.000 A 
ATOM     12  C   UNL     1       2.227   8.942  17.750  0.00  0.00    +0.000 A 
ATOM     13  C   UNL     1       1.658   9.196  19.000  0.00  0.00    +0.000 A 
ATOM     14  C   UNL     1       1.691   8.208  19.993  0.00  0.00    +0.000 A 
ATOM     15  C   UNL     1       2.302   6.975  19.739  0.00  0.00    +0.000 A 
BRANCH  14  16
ATOM     16  N   UNL     1       1.127   8.473  21.317  0.00  0.00    +0.000 N 
ATOM     17  O   UNL     1      -0.058   8.159  21.511  0.00  0.00    +0.000 OA
ATOM     18  O   UNL     1       1.859   8.994  22.169  0.00  0.00    +0.000 OA
ENDBRANCH  14  16
ENDBRANCH   8  10
BRANCH   1  19
ATOM     19  C   UNL     1       5.546   6.725  17.024  0.00  0.00    +0.000 C 
ATOM     20  O   UNL     1       5.317   6.746  15.826  0.00  0.00    +0.000 OA
BRANCH  19  21
ATOM     21  O   UNL     1       6.189   7.713  17.697  0.00  0.00    +0.000 OA
BRANCH  21  23
ATOM     22  C   UNL     1       8.150   9.171  17.982  0.00  0.00    +0.000 C 
ATOM     23  C   UNL     1       7.569   7.918  17.342  0.00  0.00    +0.000 C 
ENDBRANCH  21  23
ENDBRANCH  19  21
ENDBRANCH   1  19
BRANCH   7  24
ATOM     24  C   UNL     1       2.288   4.499  20.275  0.00  0.00    +0.000 C 
BRANCH  24  25
ATOM     25  C   UNL     1       1.148   3.560  19.903  0.00  0.00    +0.000 C 
BRANCH  25  26
ATOM     26  C   UNL     1       1.233   2.914  18.548  0.00  0.00    +0.000 C 
ATOM     27  N   UNL     1       1.551   1.593  18.505  0.00  0.00    +0.000 N 
ATOM     28  O   UNL     1       0.939   3.521  17.521  0.00  0.00    +0.000 OA
ATOM     29  H   UNL     1       2.103   1.151  19.234  0.00  0.00    +0.000 HD
ATOM     30  H   UNL     1       1.635   1.194  17.579  0.00  0.00    +0.000 HD
ENDBRANCH  25  26
ENDBRANCH  24  25
ENDBRANCH   7  24
TORSDOF 8
ENDMDL
MODEL 6
REMARK VINA RESULT:      -6.9      2.092      5.725
REMARK  Name = 
REMARK  10 active torsions:
REMARK  status: ('A' for Active; 'I' for Inactive)
REMARK    1  A    between atoms: C_1  and  C_2
REMARK    2  A    between atoms: C_2  and  O_3
REMARK    3  A    between atoms: O_3  and  C_4
REMARK    4  A    between atoms: C_4  and  C_6
REMARK    5  A    between atoms: C_7  and  C_8
REMARK    6  A    between atoms: N_12  and  C_13
REMARK    7  A    between atoms: C_13  and  C_14
REMARK    8  A    between atoms: C_14  and  C_15
REMARK    9  A    between atoms: C_18  and  C_19
REMARK   10  A    between atoms: C_23  and  N_24
REMARK                            x       y       z     vdW  Elec       q    Type
REMARK                         _______ _______ _______ _____ _____    ______ ____
ROOT
ATOM      1  C   UNL     1       5.032   5.606  18.041  0.00  0.00    +0.000 C 
ATOM      2  C   UNL     1       5.975   4.761  18.509  0.00  0.00    +0.000 C 
ATOM      3  C   UNL     1       7.464   4.780  18.275  0.00  0.00    +0.000 C 
ATOM      4  N   UNL     1       5.566   3.699  19.282  0.00  0.00    +0.000 N 
ATOM      5  C   UNL     1       4.324   3.500  19.803  0.00  0.00    +0.000 C 
ATOM      6  O   UNL     1       4.104   2.512  20.501  0.00  0.00    +0.000 OA
ATOM      7  N   UNL     1       3.397   4.495  19.564  0.00  0.00    +0.000 N 
ATOM      8  C   UNL     1       3.567   5.408  18.400  0.00  0.00    +0.000 C 
ATOM      9  H   UNL     1       6.249   3.012  19.584  0.00  0.00    +0.000 HD
ENDROOT
BRANCH   8  10
ATOM     10  C   UNL     1       2.786   6.708  18.589  0.00  0.00    +0.000 A 
ATOM     11  C   UNL     1       2.599   7.619  17.540  0.00  0.00    +0.000 A 
ATOM     12  C   UNL     1       1.970   8.846  17.770  0.00  0.00    +0.000 A 
ATOM     13  C   UNL     1       1.512   9.172  19.048  0.00  0.00    +0.000 A 
ATOM     14  C   UNL     1       1.663   8.254  20.096  0.00  0.00    +0.000 A 
ATOM     15  C   UNL     1       2.280   7.020  19.868  0.00  0.00    +0.000 A 
BRANCH  14  16
ATOM     16  N   UNL     1       1.215   8.597  21.447  0.00  0.00    +0.000 N 
ATOM     17  O   UNL     1       0.077   8.236  21.785  0.00  0.00    +0.000 OA
ATOM     18  O   UNL     1       1.994   9.226  22.177  0.00  0.00    +0.000 OA
ENDBRANCH  14  16
ENDBRANCH   8  10
BRANCH   1  19
ATOM     19  C   UNL     1       5.405   6.705  17.104  0.00  0.00    +0.000 C 
ATOM     20  O   UNL     1       5.949   7.745  17.437  0.00  0.00    +0.000 OA
BRANCH  19  21
ATOM     21  O   UNL     1       5.059   6.397  15.828  0.00  0.00    +0.000 OA
BRANCH  21  23
ATOM     22  C   UNL     1       5.493   4.340  14.551  0.00  0.00    +0.000 C 
ATOM     23  C   UNL     1       6.039   5.661  15.073  0.00  0.00    +0.000 C 
ENDBRANCH  21  23
ENDBRANCH  19  21
ENDBRANCH   1  19
BRANCH   7  24
ATOM     24  C   UNL     1       2.190   4.493  20.407  0.00  0.00    +0.000 C 
BRANCH  24  25
ATOM     25  C   UNL     1       0.978   3.698  19.942  0.00  0.00    +0.000 C 
BRANCH  25  26
ATOM     26  C   UNL     1       1.131   2.948  18.648  0.00  0.00    +0.000 C 
ATOM     27  N   UNL     1       1.445   1.628  18.724  0.00  0.00    +0.000 N 
ATOM     28  O   UNL     1       0.894   3.473  17.562  0.00  0.00    +0.000 OA
ATOM     29  H   UNL     1       1.956   1.244  19.513  0.00  0.00    +0.000 HD
ATOM     30  H   UNL     1       1.576   1.157  17.838  0.00  0.00    +0.000 HD
ENDBRANCH  25  26
ENDBRANCH  24  25
ENDBRANCH   7  24
TORSDOF 8
ENDMDL
MODEL 7
REMARK VINA RESULT:      -6.8      1.871      2.178
REMARK  Name = 
REMARK  10 active torsions:
REMARK  status: ('A' for Active; 'I' for Inactive)
REMARK    1  A    between atoms: C_1  and  C_2
REMARK    2  A    between atoms: C_2  and  O_3
REMARK    3  A    between atoms: O_3  and  C_4
REMARK    4  A    between atoms: C_4  and  C_6
REMARK    5  A    between atoms: C_7  and  C_8
REMARK    6  A    between atoms: N_12  and  C_13
REMARK    7  A    between atoms: C_13  and  C_14
REMARK    8  A    between atoms: C_14  and  C_15
REMARK    9  A    between atoms: C_18  and  C_19
REMARK   10  A    between atoms: C_23  and  N_24
REMARK                            x       y       z     vdW  Elec       q    Type
REMARK                         _______ _______ _______ _____ _____    ______ ____
ROOT
ATOM      1  C   UNL     1       3.254   3.829  19.993  0.00  0.00    +0.000 C 
ATOM      2  C   UNL     1       2.402   3.972  21.029  0.00  0.00    +0.000 C 
ATOM      3  C   UNL     1       2.092   3.004  22.142  0.00  0.00    +0.000 C 
ATOM      4  N   UNL     1       1.664   5.130  21.104  0.00  0.00    +0.000 N 
ATOM      5  C   UNL     1       1.831   6.254  20.352  0.00  0.00    +0.000 C 
ATOM      6  O   UNL     1       1.109   7.231  20.544  0.00  0.00    +0.000 OA
ATOM      7  N   UNL     1       2.881   6.237  19.457  0.00  0.00    +0.000 N 
ATOM      8  C   UNL     1       3.421   4.939  18.966  0.00  0.00    +0.000 C 
ATOM      9  H   UNL     1       0.965   5.229  21.832  0.00  0.00    +0.000 HD
ENDROOT
BRANCH   8  10
ATOM     10  C   UNL     1       4.845   5.090  18.432  0.00  0.00    +0.000 A 
ATOM     11  C   UNL     1       5.915   5.446  19.265  0.00  0.00    +0.000 A 
ATOM     12  C   UNL     1       7.185   5.677  18.729  0.00  0.00    +0.000 A 
ATOM     13  C   UNL     1       7.403   5.544  17.356  0.00  0.00    +0.000 A 
ATOM     14  C   UNL     1       6.349   5.155  16.518  0.00  0.00    +0.000 A 
ATOM     15  C   UNL     1       5.080   4.911  17.053  0.00  0.00    +0.000 A 
BRANCH  14  16
ATOM     16  N   UNL     1       6.557   5.044  15.074  0.00  0.00    +0.000 N 
ATOM     17  O   UNL     1       5.641   4.550  14.398  0.00  0.00    +0.000 OA
ATOM     18  O   UNL     1       7.630   5.447  14.607  0.00  0.00    +0.000 OA
ENDBRANCH  14  16
ENDBRANCH   8  10
BRANCH   1  19
ATOM     19  C   UNL     1       3.993   2.547  19.798  0.00  0.00    +0.000 C 
ATOM     20  O   UNL     1       5.116   2.323  20.221  0.00  0.00    +0.000 OA
BRANCH  19  21
ATOM     21  O   UNL     1       3.252   1.659  19.087  0.00  0.00    +0.000 OA
BRANCH  21  23
ATOM     22  C   UNL     1       2.489   2.416  16.874  0.00  0.00    +0.000 C 
ATOM     23  C   UNL     1       3.510   1.618  17.671  0.00  0.00    +0.000 C 
ENDBRANCH  21  23
ENDBRANCH  19  21
ENDBRANCH   1  19
BRANCH   7  24
ATOM     24  C   UNL     1       3.312   7.536  18.915  0.00  0.00    +0.000 C 
BRANCH  24  25
ATOM     25  C   UNL     1       2.570   8.106  17.714  0.00  0.00    +0.000 C 
BRANCH  25  26
ATOM     26  C   UNL     1       1.933   9.455  17.904  0.00  0.00    +0.000 C 
ATOM     27  N   UNL     1       0.749   9.498  18.571  0.00  0.00    +0.000 N 
ATOM     28  O   UNL     1       2.495  10.492  17.559  0.00  0.00    +0.000 OA
ATOM     29  H   UNL     1       0.110   8.709  18.577  0.00  0.00    +0.000 HD
ATOM     30  H   UNL     1       0.328  10.414  18.654  0.00  0.00    +0.000 HD
ENDBRANCH  25  26
ENDBRANCH  24  25
ENDBRANCH   7  24
TORSDOF 8
ENDMDL
MODEL 8
REMARK VINA RESULT:      -6.6      2.070      6.316
REMARK  Name = 
REMARK  10 active torsions:
REMARK  status: ('A' for Active; 'I' for Inactive)
REMARK    1  A    between atoms: C_1  and  C_2
REMARK    2  A    between atoms: C_2  and  O_3
REMARK    3  A    between atoms: O_3  and  C_4
REMARK    4  A    between atoms: C_4  and  C_6
REMARK    5  A    between atoms: C_7  and  C_8
REMARK    6  A    between atoms: N_12  and  C_13
REMARK    7  A    between atoms: C_13  and  C_14
REMARK    8  A    between atoms: C_14  and  C_15
REMARK    9  A    between atoms: C_18  and  C_19
REMARK   10  A    between atoms: C_23  and  N_24
REMARK                            x       y       z     vdW  Elec       q    Type
REMARK                         _______ _______ _______ _____ _____    ______ ____
ROOT
ATOM      1  C   UNL     1       4.544   5.285  17.068  0.00  0.00    +0.000 C 
ATOM      2  C   UNL     1       5.249   4.148  16.894  0.00  0.00    +0.000 C 
ATOM      3  C   UNL     1       6.693   3.979  16.496  0.00  0.00    +0.000 C 
ATOM      4  N   UNL     1       4.594   2.949  17.056  0.00  0.00    +0.000 N 
ATOM      5  C   UNL     1       3.345   2.765  17.568  0.00  0.00    +0.000 C 
ATOM      6  O   UNL     1       2.890   1.628  17.677  0.00  0.00    +0.000 OA
ATOM      7  N   UNL     1       2.696   3.900  18.010  0.00  0.00    +0.000 N 
ATOM      8  C   UNL     1       3.079   5.235  17.474  0.00  0.00    +0.000 C 
ATOM      9  H   UNL     1       5.084   2.084  16.859  0.00  0.00    +0.000 HD
ENDROOT
BRANCH   8  10
ATOM     10  C   UNL     1       2.651   6.361  18.416  0.00  0.00    +0.000 A 
ATOM     11  C   UNL     1       2.563   6.174  19.802  0.00  0.00    +0.000 A 
ATOM     12  C   UNL     1       2.070   7.190  20.625  0.00  0.00    +0.000 A 
ATOM     13  C   UNL     1       1.670   8.410  20.074  0.00  0.00    +0.000 A 
ATOM     14  C   UNL     1       1.786   8.620  18.693  0.00  0.00    +0.000 A 
ATOM     15  C   UNL     1       2.291   7.609  17.868  0.00  0.00    +0.000 A 
BRANCH  14  16
ATOM     16  N   UNL     1       1.341   9.881  18.099  0.00  0.00    +0.000 N 
ATOM     17  O   UNL     1       0.136  10.162  18.184  0.00  0.00    +0.000 OA
ATOM     18  O   UNL     1       2.187  10.595  17.545  0.00  0.00    +0.000 OA
ENDBRANCH  14  16
ENDBRANCH   8  10
BRANCH   1  19
ATOM     19  C   UNL     1       5.173   6.610  16.792  0.00  0.00    +0.000 C 
ATOM     20  O   UNL     1       5.016   7.251  15.765  0.00  0.00    +0.000 OA
BRANCH  19  21
ATOM     21  O   UNL     1       5.944   7.012  17.834  0.00  0.00    +0.000 OA
BRANCH  21  23
ATOM     22  C   UNL     1       7.814   8.604  17.699  0.00  0.00    +0.000 C 
ATOM     23  C   UNL     1       7.348   7.162  17.554  0.00  0.00    +0.000 C 
ENDBRANCH  21  23
ENDBRANCH  19  21
ENDBRANCH   1  19
BRANCH   7  24
ATOM     24  C   UNL     1       1.533   3.698  18.891  0.00  0.00    +0.000 C 
BRANCH  24  25
ATOM     25  C   UNL     1       1.587   2.578  19.922  0.00  0.00    +0.000 C 
BRANCH  25  26
ATOM     26  C   UNL     1       2.590   2.742  21.030  0.00  0.00    +0.000 C 
ATOM     27  N   UNL     1       2.140   3.238  22.212  0.00  0.00    +0.000 N 
ATOM     28  O   UNL     1       3.752   2.359  20.913  0.00  0.00    +0.000 OA
ATOM     29  H   UNL     1       1.332   3.850  22.263  0.00  0.00    +0.000 HD
ATOM     30  H   UNL     1       2.844   3.369  22.927  0.00  0.00    +0.000 HD
ENDBRANCH  25  26
ENDBRANCH  24  25
ENDBRANCH   7  24
TORSDOF 8
ENDMDL
MODEL 9
REMARK VINA RESULT:      -6.6      2.041      5.275
REMARK  Name = 
REMARK  10 active torsions:
REMARK  status: ('A' for Active; 'I' for Inactive)
REMARK    1  A    between atoms: C_1  and  C_2
REMARK    2  A    between atoms: C_2  and  O_3
REMARK    3  A    between atoms: O_3  and  C_4
REMARK    4  A    between atoms: C_4  and  C_6
REMARK    5  A    between atoms: C_7  and  C_8
REMARK    6  A    between atoms: N_12  and  C_13
REMARK    7  A    between atoms: C_13  and  C_14
REMARK    8  A    between atoms: C_14  and  C_15
REMARK    9  A    between atoms: C_18  and  C_19
REMARK   10  A    between atoms: C_23  and  N_24
REMARK                            x       y       z     vdW  Elec       q    Type
REMARK                         _______ _______ _______ _____ _____    ______ ____
ROOT
ATOM      1  C   UNL     1       2.868   4.053  18.532  0.00  0.00    +0.000 C 
ATOM      2  C   UNL     1       3.607   3.056  18.003  0.00  0.00    +0.000 C 
ATOM      3  C   UNL     1       3.144   1.780  17.346  0.00  0.00    +0.000 C 
ATOM      4  N   UNL     1       4.976   3.153  18.082  0.00  0.00    +0.000 N 
ATOM      5  C   UNL     1       5.696   4.244  18.464  0.00  0.00    +0.000 C 
ATOM      6  O   UNL     1       6.924   4.197  18.465  0.00  0.00    +0.000 OA
ATOM      7  N   UNL     1       4.969   5.380  18.757  0.00  0.00    +0.000 N 
ATOM      8  C   UNL     1       3.539   5.268  19.156  0.00  0.00    +0.000 C 
ATOM      9  H   UNL     1       5.550   2.381  17.757  0.00  0.00    +0.000 HD
ENDROOT
BRANCH   8  10
ATOM     10  C   UNL     1       2.790   6.581  18.933  0.00  0.00    +0.000 A 
ATOM     11  C   UNL     1       2.722   7.190  17.672  0.00  0.00    +0.000 A 
ATOM     12  C   UNL     1       2.118   8.441  17.520  0.00  0.00    +0.000 A 
ATOM     13  C   UNL     1       1.565   9.094  18.624  0.00  0.00    +0.000 A 
ATOM     14  C   UNL     1       1.597   8.479  19.883  0.00  0.00    +0.000 A 
ATOM     15  C   UNL     1       2.189   7.221  20.037  0.00  0.00    +0.000 A 
BRANCH  14  16
ATOM     16  N   UNL     1       1.051   9.166  21.054  0.00  0.00    +0.000 N 
ATOM     17  O   UNL     1       0.417  10.215  20.861  0.00  0.00    +0.000 OA
ATOM     18  O   UNL     1       1.249   8.666  22.169  0.00  0.00    +0.000 OA
ENDBRANCH  14  16
ENDBRANCH   8  10
BRANCH   1  19
ATOM     19  C   UNL     1       1.380   3.945  18.579  0.00  0.00    +0.000 C 
ATOM     20  O   UNL     1       0.657   3.907  17.596  0.00  0.00    +0.000 OA
BRANCH  19  21
ATOM     21  O   UNL     1       0.934   3.895  19.860  0.00  0.00    +0.000 OA
BRANCH  21  23
ATOM     22  C   UNL     1       1.938   2.887  21.867  0.00  0.00    +0.000 C 
ATOM     23  C   UNL     1       1.185   2.664  20.563  0.00  0.00    +0.000 C 
ENDBRANCH  21  23
ENDBRANCH  19  21
ENDBRANCH   1  19
BRANCH   7  24
ATOM     24  C   UNL     1       5.713   6.650  18.805  0.00  0.00    +0.000 C 
BRANCH  24  25
ATOM     25  C   UNL     1       6.515   7.071  17.581  0.00  0.00    +0.000 C 
BRANCH  25  26
ATOM     26  C   UNL     1       7.760   7.871  17.845  0.00  0.00    +0.000 C 
ATOM     27  N   UNL     1       8.554   7.469  18.873  0.00  0.00    +0.000 N 
ATOM     28  O   UNL     1       8.106   8.794  17.112  0.00  0.00    +0.000 OA
ATOM     29  H   UNL     1       8.181   6.967  19.672  0.00  0.00    +0.000 HD
ATOM     30  H   UNL     1       9.367   8.046  19.049  0.00  0.00    +0.000 HD
ENDBRANCH  25  26
ENDBRANCH  24  25
ENDBRANCH   7  24
TORSDOF 8
ENDMDL
