MODEL 1
REMARK VINA RESULT:      -7.6      0.000      0.000
REMARK  Name = 
REMARK  7 active torsions:
REMARK  status: ('A' for Active; 'I' for Inactive)
REMARK    1  A    between atoms: C_1  and  C_2
REMARK    2  A    between atoms: C_11  and  S_12
REMARK    3  A    between atoms: S_12  and  N_15
REMARK    4  A    between atoms: N_15  and  C_16
REMARK    5  A    between atoms: C_16  and  C_17
REMARK    6  A    between atoms: N_20  and  C_21
REMARK    7  A    between atoms: C_21  and  C_22
REMARK                            x       y       z     vdW  Elec       q    Type
REMARK                         _______ _______ _______ _____ _____    ______ ____
ROOT
ATOM      1  N   UNL     1       1.522   8.467  19.440  0.00  0.00    +0.000 NA
ATOM      2  H   UNL     1       0.622   8.021  19.649  0.00  0.00    +0.000 HD
ENDROOT
BRANCH   1   3
ATOM      3  S   UNL     1       1.195   9.822  18.420  0.00  0.00    +0.000 S 
ATOM      4  O   UNL     1      -0.064   9.518  17.773  0.00  0.00    +0.000 OA
ATOM      5  O   UNL     1       2.383   9.974  17.610  0.00  0.00    +0.000 OA
BRANCH   3  16
ATOM      6  C   UNL     1       2.423  12.763  18.109  0.00  0.00    +0.000 C 
ATOM      7  C   UNL     1       1.501  12.406  19.249  0.00  0.00    +0.000 A 
ATOM      8  N   UNL     1       1.258  13.491  20.075  0.00  0.00    +0.000 NA
ATOM      9  C   UNL     1       0.452  13.303  21.057  0.00  0.00    +0.000 A 
ATOM     10  S   UNL     1      -0.002  14.527  22.228  0.00  0.00    +0.000 S 
ATOM     11  C   UNL     1      -1.008  13.380  23.070  0.00  0.00    +0.000 A 
ATOM     12  C   UNL     1      -0.984  12.178  22.482  0.00  0.00    +0.000 A 
ATOM     13  N   UNL     1      -0.178  12.122  21.363  0.00  0.00    +0.000 N 
ATOM     14  C   UNL     1       0.049  10.993  20.609  0.00  0.00    +0.000 A 
ATOM     15  O   UNL     1      -0.426   9.889  20.874  0.00  0.00    +0.000 OA
ATOM     16  C   UNL     1       0.960  11.184  19.459  0.00  0.00    +0.000 A 
ENDBRANCH   3  16
ENDBRANCH   1   3
BRANCH   1  17
ATOM     17  C   UNL     1       2.484   7.509  18.830  0.00  0.00    +0.000 C 
BRANCH  17  18
ATOM     18  C   UNL     1       2.075   6.036  19.053  0.00  0.00    +0.000 C 
ATOM     19  C   UNL     1       2.973   5.397  20.126  0.00  0.00    +0.000 C 
ATOM     20  C   UNL     1       4.409   5.191  19.631  0.00  0.00    +0.000 C 
ATOM     21  N   UNL     1       4.468   4.373  18.410  0.00  0.00    +0.000 NA
ATOM     22  C   UNL     1       3.594   4.900  17.343  0.00  0.00    +0.000 C 
ATOM     23  C   UNL     1       2.156   5.141  17.807  0.00  0.00    +0.000 C 
BRANCH  21  24
ATOM     24  C   UNL     1       5.856   4.291  17.897  0.00  0.00    +0.000 C 
BRANCH  24  25
ATOM     25  C   UNL     1       6.627   5.598  17.925  0.00  0.00    +0.000 A 
ATOM     26  C   UNL     1       6.287   6.657  17.068  0.00  0.00    +0.000 A 
ATOM     27  C   UNL     1       6.971   7.875  17.140  0.00  0.00    +0.000 A 
ATOM     28  C   UNL     1       7.986   8.048  18.079  0.00  0.00    +0.000 A 
ATOM     29 CL   UNL     1       8.801   9.559  18.193  0.00  0.00    +0.000 Cl
ATOM     30  C   UNL     1       8.342   7.005  18.930  0.00  0.00    +0.000 A 
ATOM     31  C   UNL     1       7.669   5.783  18.848  0.00  0.00    +0.000 A 
ENDBRANCH  24  25
ENDBRANCH  21  24
ENDBRANCH  17  18
ENDBRANCH   1  17
TORSDOF 6
ENDMDL
MODEL 2
REMARK VINA RESULT:      -7.4      4.136      6.511
REMARK  Name = 
REMARK  7 active torsions:
REMARK  status: ('A' for Active; 'I' for Inactive)
REMARK    1  A    between atoms: C_1  and  C_2
REMARK    2  A    between atoms: C_11  and  S_12
REMARK    3  A    between atoms: S_12  and  N_15
REMARK    4  A    between atoms: N_15  and  C_16
REMARK    5  A    between atoms: C_16  and  C_17
REMARK    6  A    between atoms: N_20  and  C_21
REMARK    7  A    between atoms: C_21  and  C_22
REMARK                            x       y       z     vdW  Elec       q    Type
REMARK                         _______ _______ _______ _____ _____    ______ ____
ROOT
ATOM      1  N   UNL     1       5.540   3.566  19.216  0.00  0.00    +0.000 NA
ATOM      2  H   UNL     1       6.144   3.080  18.544  0.00  0.00    +0.000 HD
ENDROOT
BRANCH   1   3
ATOM      3  S   UNL     1       3.919   3.431  18.635  0.00  0.00    +0.000 S 
ATOM      4  O   UNL     1       3.349   2.309  19.352  0.00  0.00    +0.000 OA
ATOM      5  O   UNL     1       4.042   3.358  17.197  0.00  0.00    +0.000 OA
BRANCH   3  16
ATOM      6  C   UNL     1       2.437   3.990  21.419  0.00  0.00    +0.000 C 
ATOM      7  C   UNL     1       2.503   5.035  20.333  0.00  0.00    +0.000 A 
ATOM      8  N   UNL     1       1.885   6.215  20.716  0.00  0.00    +0.000 NA
ATOM      9  C   UNL     1       1.919   7.185  19.875  0.00  0.00    +0.000 A 
ATOM     10  S   UNL     1       1.207   8.766  20.141  0.00  0.00    +0.000 S 
ATOM     11  C   UNL     1       1.725   9.290  18.563  0.00  0.00    +0.000 A 
ATOM     12  C   UNL     1       2.387   8.324  17.915  0.00  0.00    +0.000 A 
ATOM     13  N   UNL     1       2.502   7.151  18.633  0.00  0.00    +0.000 N 
ATOM     14  C   UNL     1       3.098   5.999  18.172  0.00  0.00    +0.000 A 
ATOM     15  O   UNL     1       3.572   5.881  17.042  0.00  0.00    +0.000 OA
ATOM     16  C   UNL     1       3.091   4.868  19.127  0.00  0.00    +0.000 A 
ENDBRANCH   3  16
ENDBRANCH   1   3
BRANCH   1  17
ATOM     17  C   UNL     1       5.962   4.980  19.413  0.00  0.00    +0.000 C 
BRANCH  17  18
ATOM     18  C   UNL     1       7.371   5.263  18.847  0.00  0.00    +0.000 C 
ATOM     19  C   UNL     1       7.447   6.705  18.319  0.00  0.00    +0.000 C 
ATOM     20  C   UNL     1       6.617   6.899  17.045  0.00  0.00    +0.000 C 
ATOM     21  N   UNL     1       7.016   5.976  15.971  0.00  0.00    +0.000 NA
ATOM     22  C   UNL     1       7.011   4.568  16.417  0.00  0.00    +0.000 C 
ATOM     23  C   UNL     1       7.810   4.339  17.701  0.00  0.00    +0.000 C 
BRANCH  21  24
ATOM     24  C   UNL     1       6.120   6.112  14.800  0.00  0.00    +0.000 C 
BRANCH  24  25
ATOM     25  C   UNL     1       6.249   5.012  13.763  0.00  0.00    +0.000 A 
ATOM     26  C   UNL     1       7.396   4.903  12.961  0.00  0.00    +0.000 A 
ATOM     27  C   UNL     1       7.527   3.854  12.046  0.00  0.00    +0.000 A 
ATOM     28  C   UNL     1       6.519   2.897  11.938  0.00  0.00    +0.000 A 
ATOM     29 CL   UNL     1       6.697   1.584  10.841  0.00  0.00    +0.000 Cl
ATOM     30  C   UNL     1       5.370   2.994  12.719  0.00  0.00    +0.000 A 
ATOM     31  C   UNL     1       5.233   4.051  13.623  0.00  0.00    +0.000 A 
ENDBRANCH  24  25
ENDBRANCH  21  24
ENDBRANCH  17  18
ENDBRANCH   1  17
TORSDOF 6
ENDMDL
MODEL 3
REMARK VINA RESULT:      -7.4      3.362      5.875
REMARK  Name = 
REMARK  7 active torsions:
REMARK  status: ('A' for Active; 'I' for Inactive)
REMARK    1  A    between atoms: C_1  and  C_2
REMARK    2  A    between atoms: C_11  and  S_12
REMARK    3  A    between atoms: S_12  and  N_15
REMARK    4  A    between atoms: N_15  and  C_16
REMARK    5  A    between atoms: C_16  and  C_17
REMARK    6  A    between atoms: N_20  and  C_21
REMARK    7  A    between atoms: C_21  and  C_22
REMARK                            x       y       z     vdW  Elec       q    Type
REMARK                         _______ _______ _______ _____ _____    ______ ____
ROOT
ATOM      1  N   UNL     1       4.772   4.169  17.656  0.00  0.00    +0.000 NA
ATOM      2  H   UNL     1       4.450   4.952  17.075  0.00  0.00    +0.000 HD
ENDROOT
BRANCH   1   3
ATOM      3  S   UNL     1       3.399   3.575  18.518  0.00  0.00    +0.000 S 
ATOM      4  O   UNL     1       3.938   2.704  19.542  0.00  0.00    +0.000 OA
ATOM      5  O   UNL     1       2.534   3.016  17.503  0.00  0.00    +0.000 OA
BRANCH   3  16
ATOM      6  C   UNL     1       2.149   3.723  21.463  0.00  0.00    +0.000 C 
ATOM      7  C   UNL     1       2.176   4.926  20.552  0.00  0.00    +0.000 A 
ATOM      8  N   UNL     1       1.635   6.046  21.162  0.00  0.00    +0.000 NA
ATOM      9  C   UNL     1       1.644   7.137  20.483  0.00  0.00    +0.000 A 
ATOM     10  S   UNL     1       1.017   8.673  21.049  0.00  0.00    +0.000 S 
ATOM     11  C   UNL     1       1.438   9.428  19.536  0.00  0.00    +0.000 A 
ATOM     12  C   UNL     1       2.012   8.559  18.695  0.00  0.00    +0.000 A 
ATOM     13  N   UNL     1       2.133   7.285  19.209  0.00  0.00    +0.000 N 
ATOM     14  C   UNL     1       2.648   6.204  18.528  0.00  0.00    +0.000 A 
ATOM     15  O   UNL     1       3.032   6.255  17.360  0.00  0.00    +0.000 OA
ATOM     16  C   UNL     1       2.667   4.937  19.292  0.00  0.00    +0.000 A 
ENDBRANCH   3  16
ENDBRANCH   1   3
BRANCH   1  17
ATOM     17  C   UNL     1       5.884   4.574  18.559  0.00  0.00    +0.000 C 
BRANCH  17  18
ATOM     18  C   UNL     1       7.243   4.650  17.828  0.00  0.00    +0.000 C 
ATOM     19  C   UNL     1       8.290   5.322  18.731  0.00  0.00    +0.000 C 
ATOM     20  C   UNL     1       8.018   6.819  18.919  0.00  0.00    +0.000 C 
ATOM     21  N   UNL     1       7.958   7.541  17.639  0.00  0.00    +0.000 NA
ATOM     22  C   UNL     1       7.002   6.926  16.696  0.00  0.00    +0.000 C 
ATOM     23  C   UNL     1       7.228   5.426  16.502  0.00  0.00    +0.000 C 
BRANCH  21  24
ATOM     24  C   UNL     1       7.580   8.958  17.851  0.00  0.00    +0.000 C 
BRANCH  24  25
ATOM     25  C   UNL     1       8.702   9.852  18.347  0.00  0.00    +0.000 A 
ATOM     26  C   UNL     1       9.386  10.709  17.469  0.00  0.00    +0.000 A 
ATOM     27  C   UNL     1      10.381  11.567  17.948  0.00  0.00    +0.000 A 
ATOM     28  C   UNL     1      10.688  11.586  19.307  0.00  0.00    +0.000 A 
ATOM     29 CL   UNL     1      11.885  12.669  19.902  0.00  0.00    +0.000 Cl
ATOM     30  C   UNL     1      10.026  10.736  20.190  0.00  0.00    +0.000 A 
ATOM     31  C   UNL     1       9.042   9.868  19.709  0.00  0.00    +0.000 A 
ENDBRANCH  24  25
ENDBRANCH  21  24
ENDBRANCH  17  18
ENDBRANCH   1  17
TORSDOF 6
ENDMDL
MODEL 4
REMARK VINA RESULT:      -7.3      4.485      8.906
REMARK  Name = 
REMARK  7 active torsions:
REMARK  status: ('A' for Active; 'I' for Inactive)
REMARK    1  A    between atoms: C_1  and  C_2
REMARK    2  A    between atoms: C_11  and  S_12
REMARK    3  A    between atoms: S_12  and  N_15
REMARK    4  A    between atoms: N_15  and  C_16
REMARK    5  A    between atoms: C_16  and  C_17
REMARK    6  A    between atoms: N_20  and  C_21
REMARK    7  A    between atoms: C_21  and  C_22
REMARK                            x       y       z     vdW  Elec       q    Type
REMARK                         _______ _______ _______ _____ _____    ______ ____
ROOT
ATOM      1  N   UNL     1       3.853   3.658  18.270  0.00  0.00    +0.000 NA
ATOM      2  H   UNL     1       4.039   3.057  17.460  0.00  0.00    +0.000 HD
ENDROOT
BRANCH   1   3
ATOM      3  S   UNL     1       5.251   4.643  18.508  0.00  0.00    +0.000 S 
ATOM      4  O   UNL     1       6.146   3.845  19.321  0.00  0.00    +0.000 OA
ATOM      5  O   UNL     1       4.745   5.890  19.036  0.00  0.00    +0.000 OA
BRANCH   3  16
ATOM      6  C   UNL     1       7.659   6.604  17.725  0.00  0.00    +0.000 C 
ATOM      7  C   UNL     1       7.009   5.701  16.705  0.00  0.00    +0.000 A 
ATOM      8  N   UNL     1       7.600   5.823  15.459  0.00  0.00    +0.000 NA
ATOM      9  C   UNL     1       7.144   5.068  14.525  0.00  0.00    +0.000 A 
ATOM     10  S   UNL     1       7.735   5.049  12.874  0.00  0.00    +0.000 S 
ATOM     11  C   UNL     1       6.567   3.829  12.446  0.00  0.00    +0.000 A 
ATOM     12  C   UNL     1       5.810   3.482  13.494  0.00  0.00    +0.000 A 
ATOM     13  N   UNL     1       6.121   4.161  14.654  0.00  0.00    +0.000 N 
ATOM     14  C   UNL     1       5.462   4.017  15.854  0.00  0.00    +0.000 A 
ATOM     15  O   UNL     1       4.491   3.278  16.015  0.00  0.00    +0.000 OA
ATOM     16  C   UNL     1       5.977   4.862  16.954  0.00  0.00    +0.000 A 
ENDBRANCH   3  16
ENDBRANCH   1   3
BRANCH   1  17
ATOM     17  C   UNL     1       3.500   2.861  19.478  0.00  0.00    +0.000 C 
BRANCH  17  18
ATOM     18  C   UNL     1       2.021   3.032  19.890  0.00  0.00    +0.000 C 
ATOM     19  C   UNL     1       1.269   3.848  18.826  0.00  0.00    +0.000 C 
ATOM     20  C   UNL     1       1.701   5.319  18.812  0.00  0.00    +0.000 C 
ATOM     21  N   UNL     1       1.526   5.965  20.122  0.00  0.00    +0.000 NA
ATOM     22  C   UNL     1       2.186   5.213  21.207  0.00  0.00    +0.000 C 
ATOM     23  C   UNL     1       1.797   3.733  21.238  0.00  0.00    +0.000 C 
BRANCH  21  24
ATOM     24  C   UNL     1       2.059   7.347  20.102  0.00  0.00    +0.000 C 
BRANCH  24  25
ATOM     25  C   UNL     1       1.127   8.401  20.670  0.00  0.00    +0.000 A 
ATOM     26  C   UNL     1       0.518   8.229  21.924  0.00  0.00    +0.000 A 
ATOM     27  C   UNL     1      -0.297   9.231  22.461  0.00  0.00    +0.000 A 
ATOM     28  C   UNL     1      -0.495  10.417  21.757  0.00  0.00    +0.000 A 
ATOM     29 CL   UNL     1      -1.466  11.665  22.435  0.00  0.00    +0.000 Cl
ATOM     30  C   UNL     1       0.092  10.601  20.508  0.00  0.00    +0.000 A 
ATOM     31  C   UNL     1       0.895   9.594  19.964  0.00  0.00    +0.000 A 
ENDBRANCH  24  25
ENDBRANCH  21  24
ENDBRANCH  17  18
ENDBRANCH   1  17
TORSDOF 6
ENDMDL
MODEL 5
REMARK VINA RESULT:      -7.3      2.323      2.796
REMARK  Name = 
REMARK  7 active torsions:
REMARK  status: ('A' for Active; 'I' for Inactive)
REMARK    1  A    between atoms: C_1  and  C_2
REMARK    2  A    between atoms: C_11  and  S_12
REMARK    3  A    between atoms: S_12  and  N_15
REMARK    4  A    between atoms: N_15  and  C_16
REMARK    5  A    between atoms: C_16  and  C_17
REMARK    6  A    between atoms: N_20  and  C_21
REMARK    7  A    between atoms: C_21  and  C_22
REMARK                            x       y       z     vdW  Elec       q    Type
REMARK                         _______ _______ _______ _____ _____    ______ ____
ROOT
ATOM      1  N   UNL     1       2.006   5.550  20.564  0.00  0.00    +0.000 NA
ATOM      2  H   UNL     1       1.494   6.058  21.295  0.00  0.00    +0.000 HD
ENDROOT
BRANCH   1   3
ATOM      3  S   UNL     1       2.479   6.710  19.375  0.00  0.00    +0.000 S 
ATOM      4  O   UNL     1       1.925   6.225  18.127  0.00  0.00    +0.000 OA
ATOM      5  O   UNL     1       3.914   6.820  19.511  0.00  0.00    +0.000 OA
BRANCH   3  16
ATOM      6  C   UNL     1       2.082   9.295  17.526  0.00  0.00    +0.000 C 
ATOM      7  C   UNL     1       1.545   9.238  18.935  0.00  0.00    +0.000 A 
ATOM      8  N   UNL     1       0.868  10.398  19.274  0.00  0.00    +0.000 NA
ATOM      9  C   UNL     1       0.337  10.438  20.444  0.00  0.00    +0.000 A 
ATOM     10  S   UNL     1      -0.564  11.797  21.088  0.00  0.00    +0.000 S 
ATOM     11  C   UNL     1      -0.811  10.949  22.590  0.00  0.00    +0.000 A 
ATOM     12  C   UNL     1      -0.248   9.736  22.570  0.00  0.00    +0.000 A 
ATOM     13  N   UNL     1       0.391   9.439  21.384  0.00  0.00    +0.000 N 
ATOM     14  C   UNL     1       1.082   8.275  21.129  0.00  0.00    +0.000 A 
ATOM     15  O   UNL     1       1.230   7.375  21.954  0.00  0.00    +0.000 OA
ATOM     16  C   UNL     1       1.689   8.194  19.782  0.00  0.00    +0.000 A 
ENDBRANCH   3  16
ENDBRANCH   1   3
BRANCH   1  17
ATOM     17  C   UNL     1       1.194   4.441  19.991  0.00  0.00    +0.000 C 
BRANCH  17  18
ATOM     18  C   UNL     1       1.852   3.059  20.195  0.00  0.00    +0.000 C 
ATOM     19  C   UNL     1       3.366   3.222  20.404  0.00  0.00    +0.000 C 
ATOM     20  C   UNL     1       4.083   3.659  19.121  0.00  0.00    +0.000 C 
ATOM     21  N   UNL     1       3.852   2.728  18.006  0.00  0.00    +0.000 NA
ATOM     22  C   UNL     1       2.415   2.484  17.772  0.00  0.00    +0.000 C 
ATOM     23  C   UNL     1       1.661   2.068  19.036  0.00  0.00    +0.000 C 
BRANCH  21  24
ATOM     24  C   UNL     1       4.463   3.240  16.757  0.00  0.00    +0.000 C 
BRANCH  24  25
ATOM     25  C   UNL     1       5.337   4.468  16.928  0.00  0.00    +0.000 A 
ATOM     26  C   UNL     1       4.931   5.720  16.439  0.00  0.00    +0.000 A 
ATOM     27  C   UNL     1       5.721   6.855  16.649  0.00  0.00    +0.000 A 
ATOM     28  C   UNL     1       6.913   6.749  17.365  0.00  0.00    +0.000 A 
ATOM     29 CL   UNL     1       7.865   8.152  17.657  0.00  0.00    +0.000 Cl
ATOM     30  C   UNL     1       7.335   5.514  17.849  0.00  0.00    +0.000 A 
ATOM     31  C   UNL     1       6.553   4.377  17.626  0.00  0.00    +0.000 A 
ENDBRANCH  24  25
ENDBRANCH  21  24
ENDBRANCH  17  18
ENDBRANCH   1  17
TORSDOF 6
ENDMDL
MODEL 6
REMARK VINA RESULT:      -7.3      3.479      4.877
REMARK  Name = 
REMARK  7 active torsions:
REMARK  status: ('A' for Active; 'I' for Inactive)
REMARK    1  A    between atoms: C_1  and  C_2
REMARK    2  A    between atoms: C_11  and  S_12
REMARK    3  A    between atoms: S_12  and  N_15
REMARK    4  A    between atoms: N_15  and  C_16
REMARK    5  A    between atoms: C_16  and  C_17
REMARK    6  A    between atoms: N_20  and  C_21
REMARK    7  A    between atoms: C_21  and  C_22
REMARK                            x       y       z     vdW  Elec       q    Type
REMARK                         _______ _______ _______ _____ _____    ______ ____
ROOT
ATOM      1  N   UNL     1      -1.282  11.110  17.512  0.00  0.00    +0.000 NA
ATOM      2  H   UNL     1      -1.159  11.941  18.101  0.00  0.00    +0.000 HD
ENDROOT
BRANCH   1   3
ATOM      3  S   UNL     1      -2.978  10.799  17.414  0.00  0.00    +0.000 S 
ATOM      4  O   UNL     1      -3.126   9.391  17.720  0.00  0.00    +0.000 OA
ATOM      5  O   UNL     1      -3.371  11.280  16.109  0.00  0.00    +0.000 OA
BRANCH   3  16
ATOM      6  C   UNL     1      -6.094  10.972  18.130  0.00  0.00    +0.000 C 
ATOM      7  C   UNL     1      -5.055  11.720  18.929  0.00  0.00    +0.000 A 
ATOM      8  N   UNL     1      -5.623  12.427  19.976  0.00  0.00    +0.000 NA
ATOM      9  C   UNL     1      -4.817  13.070  20.743  0.00  0.00    +0.000 A 
ATOM     10  S   UNL     1      -5.306  14.031  22.126  0.00  0.00    +0.000 S 
ATOM     11  C   UNL     1      -3.647  14.460  22.443  0.00  0.00    +0.000 A 
ATOM     12  C   UNL     1      -2.816  13.898  21.558  0.00  0.00    +0.000 A 
ATOM     13  N   UNL     1      -3.452  13.124  20.610  0.00  0.00    +0.000 N 
ATOM     14  C   UNL     1      -2.826  12.478  19.568  0.00  0.00    +0.000 A 
ATOM     15  O   UNL     1      -1.617  12.547  19.350  0.00  0.00    +0.000 OA
ATOM     16  C   UNL     1      -3.727  11.713  18.677  0.00  0.00    +0.000 A 
ENDBRANCH   3  16
ENDBRANCH   1   3
BRANCH   1  17
ATOM     17  C   UNL     1      -0.515   9.945  18.035  0.00  0.00    +0.000 C 
BRANCH  17  18
ATOM     18  C   UNL     1       0.840  10.357  18.653  0.00  0.00    +0.000 C 
ATOM     19  C   UNL     1       1.995   9.742  17.847  0.00  0.00    +0.000 C 
ATOM     20  C   UNL     1       2.083   8.221  18.029  0.00  0.00    +0.000 C 
ATOM     21  N   UNL     1       2.227   7.835  19.442  0.00  0.00    +0.000 NA
ATOM     22  C   UNL     1       1.174   8.427  20.292  0.00  0.00    +0.000 C 
ATOM     23  C   UNL     1       1.041   9.941  20.119  0.00  0.00    +0.000 C 
BRANCH  21  24
ATOM     24  C   UNL     1       2.193   6.362  19.590  0.00  0.00    +0.000 C 
BRANCH  24  25
ATOM     25  C   UNL     1       3.124   5.603  18.663  0.00  0.00    +0.000 A 
ATOM     26  C   UNL     1       2.637   4.602  17.807  0.00  0.00    +0.000 A 
ATOM     27  C   UNL     1       3.496   3.947  16.919  0.00  0.00    +0.000 A 
ATOM     28  C   UNL     1       4.844   4.299  16.870  0.00  0.00    +0.000 A 
ATOM     29 CL   UNL     1       5.893   3.519  15.750  0.00  0.00    +0.000 Cl
ATOM     30  C   UNL     1       5.346   5.281  17.718  0.00  0.00    +0.000 A 
ATOM     31  C   UNL     1       4.491   5.926  18.616  0.00  0.00    +0.000 A 
ENDBRANCH  24  25
ENDBRANCH  21  24
ENDBRANCH  17  18
ENDBRANCH   1  17
TORSDOF 6
ENDMDL
MODEL 7
REMARK VINA RESULT:      -7.2      3.780      6.207
REMARK  Name = 
REMARK  7 active torsions:
REMARK  status: ('A' for Active; 'I' for Inactive)
REMARK    1  A    between atoms: C_1  and  C_2
REMARK    2  A    between atoms: C_11  and  S_12
REMARK    3  A    between atoms: S_12  and  N_15
REMARK    4  A    between atoms: N_15  and  C_16
REMARK    5  A    between atoms: C_16  and  C_17
REMARK    6  A    between atoms: N_20  and  C_21
REMARK    7  A    between atoms: C_21  and  C_22
REMARK                            x       y       z     vdW  Elec       q    Type
REMARK                         _______ _______ _______ _____ _____    ______ ____
ROOT
ATOM      1  N   UNL     1       5.069   3.389  17.857  0.00  0.00    +0.000 NA
ATOM      2  H   UNL     1       4.765   3.707  16.929  0.00  0.00    +0.000 HD
ENDROOT
BRANCH   1   3
ATOM      3  S   UNL     1       3.646   2.993  18.752  0.00  0.00    +0.000 S 
ATOM      4  O   UNL     1       4.119   2.302  19.934  0.00  0.00    +0.000 OA
ATOM      5  O   UNL     1       2.800   2.288  17.816  0.00  0.00    +0.000 OA
BRANCH   3  16
ATOM      6  C   UNL     1       2.273   3.683  21.562  0.00  0.00    +0.000 C 
ATOM      7  C   UNL     1       2.387   4.710  20.463  0.00  0.00    +0.000 A 
ATOM      8  N   UNL     1       1.863   5.934  20.846  0.00  0.00    +0.000 NA
ATOM      9  C   UNL     1       1.945   6.891  19.993  0.00  0.00    +0.000 A 
ATOM     10  S   UNL     1       1.353   8.521  20.257  0.00  0.00    +0.000 S 
ATOM     11  C   UNL     1       1.871   8.991  18.661  0.00  0.00    +0.000 A 
ATOM     12  C   UNL     1       2.447   7.974  18.010  0.00  0.00    +0.000 A 
ATOM     13  N   UNL     1       2.496   6.804  18.738  0.00  0.00    +0.000 N 
ATOM     14  C   UNL     1       2.998   5.607  18.277  0.00  0.00    +0.000 A 
ATOM     15  O   UNL     1       3.436   5.445  17.139  0.00  0.00    +0.000 OA
ATOM     16  C   UNL     1       2.934   4.490  19.245  0.00  0.00    +0.000 A 
ENDBRANCH   3  16
ENDBRANCH   1   3
BRANCH   1  17
ATOM     17  C   UNL     1       5.911   4.409  18.541  0.00  0.00    +0.000 C 
BRANCH  17  18
ATOM     18  C   UNL     1       7.320   4.529  17.917  0.00  0.00    +0.000 C 
ATOM     19  C   UNL     1       8.245   5.319  18.856  0.00  0.00    +0.000 C 
ATOM     20  C   UNL     1       7.869   6.804  18.925  0.00  0.00    +0.000 C 
ATOM     21  N   UNL     1       7.874   7.444  17.600  0.00  0.00    +0.000 NA
ATOM     22  C   UNL     1       7.038   6.714  16.626  0.00  0.00    +0.000 C 
ATOM     23  C   UNL     1       7.369   5.222  16.547  0.00  0.00    +0.000 C 
BRANCH  21  24
ATOM     24  C   UNL     1       7.396   8.843  17.690  0.00  0.00    +0.000 C 
BRANCH  24  25
ATOM     25  C   UNL     1       8.408   9.832  18.239  0.00  0.00    +0.000 A 
ATOM     26  C   UNL     1       9.024   9.621  19.483  0.00  0.00    +0.000 A 
ATOM     27  C   UNL     1       9.995  10.512  19.954  0.00  0.00    +0.000 A 
ATOM     28  C   UNL     1      10.367  11.608  19.179  0.00  0.00    +0.000 A 
ATOM     29 CL   UNL     1      11.588  12.682  19.741  0.00  0.00    +0.000 Cl
ATOM     30  C   UNL     1       9.759  11.837  17.947  0.00  0.00    +0.000 A 
ATOM     31  C   UNL     1       8.779  10.956  17.483  0.00  0.00    +0.000 A 
ENDBRANCH  24  25
ENDBRANCH  21  24
ENDBRANCH  17  18
ENDBRANCH   1  17
TORSDOF 6
ENDMDL
MODEL 8
REMARK VINA RESULT:      -7.1      1.354      1.592
REMARK  Name = 
REMARK  7 active torsions:
REMARK  status: ('A' for Active; 'I' for Inactive)
REMARK    1  A    between atoms: C_1  and  C_2
REMARK    2  A    between atoms: C_11  and  S_12
REMARK    3  A    between atoms: S_12  and  N_15
REMARK    4  A    between atoms: N_15  and  C_16
REMARK    5  A    between atoms: C_16  and  C_17
REMARK    6  A    between atoms: N_20  and  C_21
REMARK    7  A    between atoms: C_21  and  C_22
REMARK                            x       y       z     vdW  Elec       q    Type
REMARK                         _______ _______ _______ _____ _____    ______ ____
ROOT
ATOM      1  N   UNL     1       1.518   8.429  19.784  0.00  0.00    +0.000 NA
ATOM      2  H   UNL     1       0.654   7.955  20.070  0.00  0.00    +0.000 HD
ENDROOT
BRANCH   1   3
ATOM      3  S   UNL     1       1.079   9.647  18.642  0.00  0.00    +0.000 S 
ATOM      4  O   UNL     1       0.457   8.935  17.544  0.00  0.00    +0.000 OA
ATOM      5  O   UNL     1       2.296  10.389  18.399  0.00  0.00    +0.000 OA
BRANCH   3  16
ATOM      6  C   UNL     1      -1.671  10.708  17.388  0.00  0.00    +0.000 C 
ATOM      7  C   UNL     1      -1.272  11.027  18.808  0.00  0.00    +0.000 A 
ATOM      8  N   UNL     1      -2.237  11.781  19.456  0.00  0.00    +0.000 NA
ATOM      9  C   UNL     1      -2.011  12.075  20.686  0.00  0.00    +0.000 A 
ATOM     10  S   UNL     1      -3.087  13.016  21.704  0.00  0.00    +0.000 S 
ATOM     11  C   UNL     1      -1.976  12.883  23.039  0.00  0.00    +0.000 A 
ATOM     12  C   UNL     1      -0.891  12.173  22.709  0.00  0.00    +0.000 A 
ATOM     13  N   UNL     1      -0.899  11.718  21.406  0.00  0.00    +0.000 N 
ATOM     14  C   UNL     1       0.118  11.003  20.813  0.00  0.00    +0.000 A 
ATOM     15  O   UNL     1       1.171  10.717  21.381  0.00  0.00    +0.000 OA
ATOM     16  C   UNL     1      -0.122  10.634  19.401  0.00  0.00    +0.000 A 
ENDBRANCH   3  16
ENDBRANCH   1   3
BRANCH   1  17
ATOM     17  C   UNL     1       2.519   7.469  19.242  0.00  0.00    +0.000 C 
BRANCH  17  18
ATOM     18  C   UNL     1       2.036   6.004  19.316  0.00  0.00    +0.000 C 
ATOM     19  C   UNL     1       2.935   5.200  20.269  0.00  0.00    +0.000 C 
ATOM     20  C   UNL     1       4.338   4.977  19.691  0.00  0.00    +0.000 C 
ATOM     21  N   UNL     1       4.303   4.302  18.384  0.00  0.00    +0.000 NA
ATOM     22  C   UNL     1       3.420   4.994  17.423  0.00  0.00    +0.000 C 
ATOM     23  C   UNL     1       2.017   5.255  17.974  0.00  0.00    +0.000 C 
BRANCH  21  24
ATOM     24  C   UNL     1       5.663   4.207  17.805  0.00  0.00    +0.000 C 
BRANCH  24  25
ATOM     25  C   UNL     1       6.476   5.487  17.865  0.00  0.00    +0.000 A 
ATOM     26  C   UNL     1       6.159   6.586  17.050  0.00  0.00    +0.000 A 
ATOM     27  C   UNL     1       6.882   7.778  17.152  0.00  0.00    +0.000 A 
ATOM     28  C   UNL     1       7.915   7.886  18.081  0.00  0.00    +0.000 A 
ATOM     29 CL   UNL     1       8.780   9.366  18.234  0.00  0.00    +0.000 Cl
ATOM     30  C   UNL     1       8.250   6.804  18.891  0.00  0.00    +0.000 A 
ATOM     31  C   UNL     1       7.537   5.607  18.778  0.00  0.00    +0.000 A 
ENDBRANCH  24  25
ENDBRANCH  21  24
ENDBRANCH  17  18
ENDBRANCH   1  17
TORSDOF 6
ENDMDL
MODEL 9
REMARK VINA RESULT:      -7.1      3.232      5.154
REMARK  Name = 
REMARK  7 active torsions:
REMARK  status: ('A' for Active; 'I' for Inactive)
REMARK    1  A    between atoms: C_1  and  C_2
REMARK    2  A    between atoms: C_11  and  S_12
REMARK    3  A    between atoms: S_12  and  N_15
REMARK    4  A    between atoms: N_15  and  C_16
REMARK    5  A    between atoms: C_16  and  C_17
REMARK    6  A    between atoms: N_20  and  C_21
REMARK    7  A    between atoms: C_21  and  C_22
REMARK                            x       y       z     vdW  Elec       q    Type
REMARK                         _______ _______ _______ _____ _____    ______ ____
ROOT
ATOM      1  N   UNL     1       0.888  12.491  20.010  0.00  0.00    +0.000 NA
ATOM      2  H   UNL     1       1.806  12.735  19.621  0.00  0.00    +0.000 HD
ENDROOT
BRANCH   1   3
ATOM      3  S   UNL     1       0.329  13.863  20.897  0.00  0.00    +0.000 S 
ATOM      4  O   UNL     1       0.384  14.969  19.964  0.00  0.00    +0.000 OA
ATOM      5  O   UNL     1       1.153  13.902  22.084  0.00  0.00    +0.000 OA
BRANCH   3  16
ATOM      6  C   UNL     1      -1.131  14.288  23.716  0.00  0.00    +0.000 C 
ATOM      7  C   UNL     1      -1.878  13.787  22.504  0.00  0.00    +0.000 A 
ATOM      8  N   UNL     1      -3.220  13.579  22.777  0.00  0.00    +0.000 NA
ATOM      9  C   UNL     1      -3.956  13.186  21.799  0.00  0.00    +0.000 A 
ATOM     10  S   UNL     1      -5.676  12.861  21.908  0.00  0.00    +0.000 S 
ATOM     11  C   UNL     1      -5.720  12.413  20.225  0.00  0.00    +0.000 A 
ATOM     12  C   UNL     1      -4.514  12.518  19.655  0.00  0.00    +0.000 A 
ATOM     13  N   UNL     1      -3.526  12.948  20.517  0.00  0.00    +0.000 N 
ATOM     14  C   UNL     1      -2.198  13.094  20.186  0.00  0.00    +0.000 A 
ATOM     15  O   UNL     1      -1.737  12.825  19.078  0.00  0.00    +0.000 OA
ATOM     16  C   UNL     1      -1.329  13.563  21.289  0.00  0.00    +0.000 A 
ENDBRANCH   3  16
ENDBRANCH   1   3
BRANCH   1  17
ATOM     17  C   UNL     1       0.950  11.257  20.841  0.00  0.00    +0.000 C 
BRANCH  17  18
ATOM     18  C   UNL     1      -0.029  10.166  20.357  0.00  0.00    +0.000 C 
ATOM     19  C   UNL     1       0.372   8.801  20.940  0.00  0.00    +0.000 C 
ATOM     20  C   UNL     1       1.672   8.269  20.324  0.00  0.00    +0.000 C 
ATOM     21  N   UNL     1       1.593   8.158  18.859  0.00  0.00    +0.000 NA
ATOM     22  C   UNL     1       1.167   9.423  18.227  0.00  0.00    +0.000 C 
ATOM     23  C   UNL     1      -0.115   9.997  18.832  0.00  0.00    +0.000 C 
BRANCH  21  24
ATOM     24  C   UNL     1       2.899   7.752  18.291  0.00  0.00    +0.000 C 
BRANCH  24  25
ATOM     25  C   UNL     1       3.098   6.254  18.149  0.00  0.00    +0.000 A 
ATOM     26  C   UNL     1       4.371   5.677  18.286  0.00  0.00    +0.000 A 
ATOM     27  C   UNL     1       4.533   4.290  18.206  0.00  0.00    +0.000 A 
ATOM     28  C   UNL     1       3.424   3.471  18.005  0.00  0.00    +0.000 A 
ATOM     29 CL   UNL     1       3.619   1.762  17.946  0.00  0.00    +0.000 Cl
ATOM     30  C   UNL     1       2.156   4.027  17.858  0.00  0.00    +0.000 A 
ATOM     31  C   UNL     1       1.995   5.414  17.923  0.00  0.00    +0.000 A 
ENDBRANCH  24  25
ENDBRANCH  21  24
ENDBRANCH  17  18
ENDBRANCH   1  17
TORSDOF 6
ENDMDL
