MODEL 1
REMARK VINA RESULT:      -7.3      0.000      0.000
REMARK  Name = 
REMARK  6 active torsions:
REMARK  status: ('A' for Active; 'I' for Inactive)
REMARK    1  A    between atoms: C_1  and  C_2
REMARK    2  A    between atoms: C_4  and  O_5
REMARK    3  A    between atoms: C_13  and  C_14
REMARK    4  A    between atoms: C_14  and  O_15
REMARK    5  A    between atoms: C_17  and  O_18
REMARK    6  A    between atoms: C_19  and  C_20
REMARK                            x       y       z     vdW  Elec       q    Type
REMARK                         _______ _______ _______ _____ _____    ______ ____
ROOT
ATOM      1  C   UNL     1       5.113   4.680  15.968  0.00  0.00    +0.000 C 
ATOM      2  C   UNL     1       4.102   4.081  16.954  0.00  0.00    +0.000 C 
ATOM      3  C   UNL     1       4.532   2.651  17.327  0.00  0.00    +0.000 C 
ATOM      4  C   UNL     1       3.493   1.958  18.205  0.00  0.00    +0.000 C 
ATOM      5  C   UNL     1       3.166   2.763  19.459  0.00  0.00    +0.000 C 
ATOM      6  C   UNL     1       2.727   4.187  19.099  0.00  0.00    +0.000 C 
ATOM      7  C   UNL     1       2.291   4.993  20.345  0.00  0.00    +0.000 C 
ATOM      8  O   UNL     1       2.093   4.472  21.440  0.00  0.00    +0.000 OA
ATOM      9  C   UNL     1       2.088   6.388  20.037  0.00  0.00    +0.000 A 
ATOM     10  O   UNL     1       1.491   7.257  20.891  0.00  0.00    +0.000 OA
ATOM     11  C   UNL     1       1.422   8.451  20.240  0.00  0.00    +0.000 A 
ATOM     12  C   UNL     1       1.978   8.369  18.976  0.00  0.00    +0.000 A 
ATOM     13  C   UNL     1       2.453   7.028  18.873  0.00  0.00    +0.000 A 
ATOM     14  C   UNL     1       3.173   6.339  17.767  0.00  0.00    +0.000 C 
ATOM     15  C   UNL     1       3.797   4.961  18.225  0.00  0.00    +0.000 C 
ATOM     16  C   UNL     1       5.088   5.192  19.059  0.00  0.00    +0.000 C 
ENDROOT
BRANCH   4  17
ATOM     17  O   UNL     1       3.959   0.665  18.565  0.00  0.00    +0.000 OA
ATOM     18  H   UNL     1       3.204   0.141  18.880  0.00  0.00    +0.000 HD
ENDBRANCH   4  17
BRANCH  14  19
ATOM     19  O   UNL     1       4.151   7.218  17.212  0.00  0.00    +0.000 OA
ATOM     20  H   UNL     1       4.847   6.666  16.813  0.00  0.00    +0.000 HD
ENDBRANCH  14  19
BRANCH  12  21
ATOM     21  C   UNL     1       2.057   9.458  17.960  0.00  0.00    +0.000 C 
BRANCH  21  22
ATOM     22  O   UNL     1       0.812  10.123  17.778  0.00  0.00    +0.000 OA
ATOM     23  H   UNL     1       0.189   9.447  17.441  0.00  0.00    +0.000 HD
ENDBRANCH  21  22
ENDBRANCH  12  21
TORSDOF 4
ENDMDL
MODEL 2
REMARK VINA RESULT:      -7.0      1.836      4.695
REMARK  Name = 
REMARK  6 active torsions:
REMARK  status: ('A' for Active; 'I' for Inactive)
REMARK    1  A    between atoms: C_1  and  C_2
REMARK    2  A    between atoms: C_4  and  O_5
REMARK    3  A    between atoms: C_13  and  C_14
REMARK    4  A    between atoms: C_14  and  O_15
REMARK    5  A    between atoms: C_17  and  O_18
REMARK    6  A    between atoms: C_19  and  C_20
REMARK                            x       y       z     vdW  Elec       q    Type
REMARK                         _______ _______ _______ _____ _____    ______ ____
ROOT
ATOM      1  C   UNL     1       1.878   7.050  20.116  0.00  0.00    +0.000 C 
ATOM      2  C   UNL     1       2.390   5.607  20.218  0.00  0.00    +0.000 C 
ATOM      3  C   UNL     1       1.347   4.743  20.948  0.00  0.00    +0.000 C 
ATOM      4  C   UNL     1       1.859   3.326  21.194  0.00  0.00    +0.000 C 
ATOM      5  C   UNL     1       2.314   2.643  19.908  0.00  0.00    +0.000 C 
ATOM      6  C   UNL     1       3.361   3.492  19.177  0.00  0.00    +0.000 C 
ATOM      7  C   UNL     1       3.917   2.777  17.923  0.00  0.00    +0.000 C 
ATOM      8  O   UNL     1       3.718   1.587  17.692  0.00  0.00    +0.000 OA
ATOM      9  C   UNL     1       4.733   3.657  17.121  0.00  0.00    +0.000 A 
ATOM     10  O   UNL     1       5.514   3.220  16.102  0.00  0.00    +0.000 OA
ATOM     11  C   UNL     1       6.174   4.312  15.626  0.00  0.00    +0.000 A 
ATOM     12  C   UNL     1       5.820   5.456  16.320  0.00  0.00    +0.000 A 
ATOM     13  C   UNL     1       4.842   5.022  17.263  0.00  0.00    +0.000 A 
ATOM     14  C   UNL     1       4.062   5.793  18.271  0.00  0.00    +0.000 C 
ATOM     15  C   UNL     1       2.856   4.959  18.860  0.00  0.00    +0.000 C 
ATOM     16  C   UNL     1       1.680   4.901  17.844  0.00  0.00    +0.000 C 
ENDROOT
BRANCH   4  17
ATOM     17  O   UNL     1       0.844   2.553  21.820  0.00  0.00    +0.000 OA
ATOM     18  H   UNL     1       1.265   1.833  22.316  0.00  0.00    +0.000 HD
ENDBRANCH   4  17
BRANCH  14  19
ATOM     19  O   UNL     1       3.638   7.032  17.704  0.00  0.00    +0.000 OA
ATOM     20  H   UNL     1       3.808   7.728  18.363  0.00  0.00    +0.000 HD
ENDBRANCH  14  19
BRANCH  12  21
ATOM     21  C   UNL     1       6.354   6.832  16.108  0.00  0.00    +0.000 C 
BRANCH  21  22
ATOM     22  O   UNL     1       7.716   6.953  16.501  0.00  0.00    +0.000 OA
ATOM     23  H   UNL     1       7.740   7.640  17.197  0.00  0.00    +0.000 HD
ENDBRANCH  21  22
ENDBRANCH  12  21
TORSDOF 4
ENDMDL
MODEL 3
REMARK VINA RESULT:      -6.9      2.022      4.313
REMARK  Name = 
REMARK  6 active torsions:
REMARK  status: ('A' for Active; 'I' for Inactive)
REMARK    1  A    between atoms: C_1  and  C_2
REMARK    2  A    between atoms: C_4  and  O_5
REMARK    3  A    between atoms: C_13  and  C_14
REMARK    4  A    between atoms: C_14  and  O_15
REMARK    5  A    between atoms: C_17  and  O_18
REMARK    6  A    between atoms: C_19  and  C_20
REMARK                            x       y       z     vdW  Elec       q    Type
REMARK                         _______ _______ _______ _____ _____    ______ ____
ROOT
ATOM      1  C   UNL     1       3.935   0.981  18.289  0.00  0.00    +0.000 C 
ATOM      2  C   UNL     1       2.998   2.182  18.471  0.00  0.00    +0.000 C 
ATOM      3  C   UNL     1       2.193   2.013  19.771  0.00  0.00    +0.000 C 
ATOM      4  C   UNL     1       1.149   3.115  19.937  0.00  0.00    +0.000 C 
ATOM      5  C   UNL     1       1.763   4.509  19.866  0.00  0.00    +0.000 C 
ATOM      6  C   UNL     1       2.560   4.692  18.569  0.00  0.00    +0.000 C 
ATOM      7  C   UNL     1       3.108   6.131  18.422  0.00  0.00    +0.000 C 
ATOM      8  O   UNL     1       2.739   7.061  19.135  0.00  0.00    +0.000 OA
ATOM      9  C   UNL     1       4.034   6.242  17.320  0.00  0.00    +0.000 A 
ATOM     10  O   UNL     1       4.476   7.432  16.841  0.00  0.00    +0.000 OA
ATOM     11  C   UNL     1       5.276   7.145  15.776  0.00  0.00    +0.000 A 
ATOM     12  C   UNL     1       5.365   5.780  15.566  0.00  0.00    +0.000 A 
ATOM     13  C   UNL     1       4.586   5.199  16.611  0.00  0.00    +0.000 A 
ATOM     14  C   UNL     1       4.322   3.771  16.941  0.00  0.00    +0.000 C 
ATOM     15  C   UNL     1       3.687   3.596  18.377  0.00  0.00    +0.000 C 
ATOM     16  C   UNL     1       4.770   3.757  19.481  0.00  0.00    +0.000 C 
ENDROOT
BRANCH   4  17
ATOM     17  O   UNL     1       0.470   2.946  21.174  0.00  0.00    +0.000 OA
ATOM     18  H   UNL     1       0.749   3.653  21.779  0.00  0.00    +0.000 HD
ENDBRANCH   4  17
BRANCH  14  19
ATOM     19  O   UNL     1       5.522   3.014  16.783  0.00  0.00    +0.000 OA
ATOM     20  H   UNL     1       5.269   2.135  16.448  0.00  0.00    +0.000 HD
ENDBRANCH  14  19
BRANCH  12  21
ATOM     21  C   UNL     1       6.118   5.089  14.481  0.00  0.00    +0.000 C 
BRANCH  21  22
ATOM     22  O   UNL     1       7.524   5.277  14.590  0.00  0.00    +0.000 OA
ATOM     23  H   UNL     1       7.707   6.173  14.243  0.00  0.00    +0.000 HD
ENDBRANCH  21  22
ENDBRANCH  12  21
TORSDOF 4
ENDMDL
MODEL 4
REMARK VINA RESULT:      -6.5      1.350      3.378
REMARK  Name = 
REMARK  6 active torsions:
REMARK  status: ('A' for Active; 'I' for Inactive)
REMARK    1  A    between atoms: C_1  and  C_2
REMARK    2  A    between atoms: C_4  and  O_5
REMARK    3  A    between atoms: C_13  and  C_14
REMARK    4  A    between atoms: C_14  and  O_15
REMARK    5  A    between atoms: C_17  and  O_18
REMARK    6  A    between atoms: C_19  and  C_20
REMARK                            x       y       z     vdW  Elec       q    Type
REMARK                         _______ _______ _______ _____ _____    ______ ____
ROOT
ATOM      1  C   UNL     1       1.195   2.838  21.388  0.00  0.00    +0.000 C 
ATOM      2  C   UNL     1       2.446   3.042  20.525  0.00  0.00    +0.000 C 
ATOM      3  C   UNL     1       2.894   1.692  19.940  0.00  0.00    +0.000 C 
ATOM      4  C   UNL     1       4.211   1.814  19.178  0.00  0.00    +0.000 C 
ATOM      5  C   UNL     1       4.151   2.877  18.085  0.00  0.00    +0.000 C 
ATOM      6  C   UNL     1       3.715   4.230  18.659  0.00  0.00    +0.000 C 
ATOM      7  C   UNL     1       3.745   5.350  17.592  0.00  0.00    +0.000 C 
ATOM      8  O   UNL     1       4.284   5.213  16.497  0.00  0.00    +0.000 OA
ATOM      9  C   UNL     1       3.131   6.565  18.074  0.00  0.00    +0.000 A 
ATOM     10  O   UNL     1       3.229   7.752  17.424  0.00  0.00    +0.000 OA
ATOM     11  C   UNL     1       2.584   8.669  18.198  0.00  0.00    +0.000 A 
ATOM     12  C   UNL     1       2.059   8.085  19.339  0.00  0.00    +0.000 A 
ATOM     13  C   UNL     1       2.383   6.701  19.221  0.00  0.00    +0.000 A 
ATOM     14  C   UNL     1       2.063   5.554  20.116  0.00  0.00    +0.000 C 
ATOM     15  C   UNL     1       2.328   4.161  19.420  0.00  0.00    +0.000 C 
ATOM     16  C   UNL     1       1.193   3.824  18.413  0.00  0.00    +0.000 C 
ENDROOT
BRANCH   4  17
ATOM     17  O   UNL     1       4.554   0.556  18.613  0.00  0.00    +0.000 OA
ATOM     18  H   UNL     1       4.521  -0.117  19.312  0.00  0.00    +0.000 HD
ENDBRANCH   4  17
BRANCH  14  19
ATOM     19  O   UNL     1       0.723   5.677  20.591  0.00  0.00    +0.000 OA
ATOM     20  H   UNL     1       0.371   4.776  20.705  0.00  0.00    +0.000 HD
ENDBRANCH  14  19
BRANCH  12  21
ATOM     21  C   UNL     1       1.318   8.772  20.435  0.00  0.00    +0.000 C 
BRANCH  21  22
ATOM     22  O   UNL     1       1.765   8.373  21.726  0.00  0.00    +0.000 OA
ATOM     23  H   UNL     1       1.950   9.199  22.217  0.00  0.00    +0.000 HD
ENDBRANCH  21  22
ENDBRANCH  12  21
TORSDOF 4
ENDMDL
MODEL 5
REMARK VINA RESULT:      -6.4      1.572      3.500
REMARK  Name = 
REMARK  6 active torsions:
REMARK  status: ('A' for Active; 'I' for Inactive)
REMARK    1  A    between atoms: C_1  and  C_2
REMARK    2  A    between atoms: C_4  and  O_5
REMARK    3  A    between atoms: C_13  and  C_14
REMARK    4  A    between atoms: C_14  and  O_15
REMARK    5  A    between atoms: C_17  and  O_18
REMARK    6  A    between atoms: C_19  and  C_20
REMARK                            x       y       z     vdW  Elec       q    Type
REMARK                         _______ _______ _______ _____ _____    ______ ____
ROOT
ATOM      1  C   UNL     1       2.848   3.235  20.513  0.00  0.00    +0.000 C 
ATOM      2  C   UNL     1       3.669   4.187  19.633  0.00  0.00    +0.000 C 
ATOM      3  C   UNL     1       4.415   3.378  18.558  0.00  0.00    +0.000 C 
ATOM      4  C   UNL     1       5.350   4.260  17.734  0.00  0.00    +0.000 C 
ATOM      5  C   UNL     1       4.624   5.444  17.104  0.00  0.00    +0.000 C 
ATOM      6  C   UNL     1       3.884   6.263  18.168  0.00  0.00    +0.000 C 
ATOM      7  C   UNL     1       3.224   7.528  17.572  0.00  0.00    +0.000 C 
ATOM      8  O   UNL     1       3.473   7.941  16.442  0.00  0.00    +0.000 OA
ATOM      9  C   UNL     1       2.352   8.177  18.523  0.00  0.00    +0.000 A 
ATOM     10  O   UNL     1       1.835   9.416  18.329  0.00  0.00    +0.000 OA
ATOM     11  C   UNL     1       1.121   9.715  19.449  0.00  0.00    +0.000 A 
ATOM     12  C   UNL     1       1.161   8.677  20.364  0.00  0.00    +0.000 A 
ATOM     13  C   UNL     1       1.929   7.659  19.726  0.00  0.00    +0.000 A 
ATOM     14  C   UNL     1       2.296   6.292  20.189  0.00  0.00    +0.000 C 
ATOM     15  C   UNL     1       2.867   5.397  19.018  0.00  0.00    +0.000 C 
ATOM     16  C   UNL     1       1.717   4.889  18.104  0.00  0.00    +0.000 C 
ENDROOT
BRANCH   4  17
ATOM     17  O   UNL     1       5.974   3.480  16.723  0.00  0.00    +0.000 OA
ATOM     18  H   UNL     1       6.609   2.877  17.145  0.00  0.00    +0.000 HD
ENDBRANCH   4  17
BRANCH  14  19
ATOM     19  O   UNL     1       1.176   5.688  20.836  0.00  0.00    +0.000 OA
ATOM     20  H   UNL     1       0.840   4.991  20.245  0.00  0.00    +0.000 HD
ENDBRANCH  14  19
BRANCH  12  21
ATOM     21  C   UNL     1       0.528   8.649  21.714  0.00  0.00    +0.000 C 
BRANCH  21  22
ATOM     22  O   UNL     1      -0.701   7.933  21.724  0.00  0.00    +0.000 OA
ATOM     23  H   UNL     1      -1.361   8.516  21.298  0.00  0.00    +0.000 HD
ENDBRANCH  21  22
ENDBRANCH  12  21
TORSDOF 4
ENDMDL
MODEL 6
REMARK VINA RESULT:      -6.3      1.970      3.678
REMARK  Name = 
REMARK  6 active torsions:
REMARK  status: ('A' for Active; 'I' for Inactive)
REMARK    1  A    between atoms: C_1  and  C_2
REMARK    2  A    between atoms: C_4  and  O_5
REMARK    3  A    between atoms: C_13  and  C_14
REMARK    4  A    between atoms: C_14  and  O_15
REMARK    5  A    between atoms: C_17  and  O_18
REMARK    6  A    between atoms: C_19  and  C_20
REMARK                            x       y       z     vdW  Elec       q    Type
REMARK                         _______ _______ _______ _____ _____    ______ ____
ROOT
ATOM      1  C   UNL     1       5.417   7.406  16.911  0.00  0.00    +0.000 C 
ATOM      2  C   UNL     1       4.953   6.021  16.441  0.00  0.00    +0.000 C 
ATOM      3  C   UNL     1       6.029   5.399  15.534  0.00  0.00    +0.000 C 
ATOM      4  C   UNL     1       5.565   4.075  14.932  0.00  0.00    +0.000 C 
ATOM      5  C   UNL     1       5.121   3.078  15.998  0.00  0.00    +0.000 C 
ATOM      6  C   UNL     1       4.042   3.685  16.902  0.00  0.00    +0.000 C 
ATOM      7  C   UNL     1       3.499   2.661  17.926  0.00  0.00    +0.000 C 
ATOM      8  O   UNL     1       3.734   1.458  17.855  0.00  0.00    +0.000 OA
ATOM      9  C   UNL     1       2.649   3.287  18.911  0.00  0.00    +0.000 A 
ATOM     10  O   UNL     1       1.874   2.585  19.775  0.00  0.00    +0.000 OA
ATOM     11  C   UNL     1       1.175   3.503  20.499  0.00  0.00    +0.000 A 
ATOM     12  C   UNL     1       1.498   4.795  20.121  0.00  0.00    +0.000 A 
ATOM     13  C   UNL     1       2.497   4.640  19.114  0.00  0.00    +0.000 A 
ATOM     14  C   UNL     1       3.260   5.662  18.345  0.00  0.00    +0.000 C 
ATOM     15  C   UNL     1       4.497   5.038  17.585  0.00  0.00    +0.000 C 
ATOM     16  C   UNL     1       5.666   4.761  18.572  0.00  0.00    +0.000 C 
ENDROOT
BRANCH   4  17
ATOM     17  O   UNL     1       6.610   3.515  14.149  0.00  0.00    +0.000 OA
ATOM     18  H   UNL     1       6.352   3.557  13.213  0.00  0.00    +0.000 HD
ENDBRANCH   4  17
BRANCH  14  19
ATOM     19  O   UNL     1       3.639   6.730  19.213  0.00  0.00    +0.000 OA
ATOM     20  H   UNL     1       3.375   6.479  20.116  0.00  0.00    +0.000 HD
ENDBRANCH  14  19
BRANCH  12  21
ATOM     21  C   UNL     1       0.918   6.056  20.663  0.00  0.00    +0.000 C 
BRANCH  21  22
ATOM     22  O   UNL     1       1.899   6.888  21.272  0.00  0.00    +0.000 OA
ATOM     23  H   UNL     1       1.533   7.152  22.140  0.00  0.00    +0.000 HD
ENDBRANCH  21  22
ENDBRANCH  12  21
TORSDOF 4
ENDMDL
MODEL 7
REMARK VINA RESULT:      -6.3      2.680      4.997
REMARK  Name = 
REMARK  6 active torsions:
REMARK  status: ('A' for Active; 'I' for Inactive)
REMARK    1  A    between atoms: C_1  and  C_2
REMARK    2  A    between atoms: C_4  and  O_5
REMARK    3  A    between atoms: C_13  and  C_14
REMARK    4  A    between atoms: C_14  and  O_15
REMARK    5  A    between atoms: C_17  and  O_18
REMARK    6  A    between atoms: C_19  and  C_20
REMARK                            x       y       z     vdW  Elec       q    Type
REMARK                         _______ _______ _______ _____ _____    ______ ____
ROOT
ATOM      1  C   UNL     1       2.369   4.896  21.206  0.00  0.00    +0.000 C 
ATOM      2  C   UNL     1       2.603   3.878  20.082  0.00  0.00    +0.000 C 
ATOM      3  C   UNL     1       1.258   3.265  19.655  0.00  0.00    +0.000 C 
ATOM      4  C   UNL     1       1.445   2.149  18.630  0.00  0.00    +0.000 C 
ATOM      5  C   UNL     1       2.234   2.611  17.409  0.00  0.00    +0.000 C 
ATOM      6  C   UNL     1       3.581   3.214  17.823  0.00  0.00    +0.000 C 
ATOM      7  C   UNL     1       4.447   3.597  16.599  0.00  0.00    +0.000 C 
ATOM      8  O   UNL     1       4.182   3.233  15.456  0.00  0.00    +0.000 OA
ATOM      9  C   UNL     1       5.611   4.359  16.983  0.00  0.00    +0.000 A 
ATOM     10  O   UNL     1       6.639   4.619  16.136  0.00  0.00    +0.000 OA
ATOM     11  C   UNL     1       7.571   5.300  16.859  0.00  0.00    +0.000 A 
ATOM     12  C   UNL     1       7.153   5.494  18.165  0.00  0.00    +0.000 A 
ATOM     13  C   UNL     1       5.850   4.915  18.220  0.00  0.00    +0.000 A 
ATOM     14  C   UNL     1       4.874   4.835  19.342  0.00  0.00    +0.000 C 
ATOM     15  C   UNL     1       3.434   4.408  18.852  0.00  0.00    +0.000 C 
ATOM     16  C   UNL     1       2.708   5.603  18.171  0.00  0.00    +0.000 C 
ENDROOT
BRANCH   4  17
ATOM     17  O   UNL     1       0.176   1.653  18.228  0.00  0.00    +0.000 OA
ATOM     18  H   UNL     1      -0.425   1.685  18.991  0.00  0.00    +0.000 HD
ENDBRANCH   4  17
BRANCH  14  19
ATOM     19  O   UNL     1       4.861   6.072  20.053  0.00  0.00    +0.000 OA
ATOM     20  H   UNL     1       4.123   6.035  20.688  0.00  0.00    +0.000 HD
ENDBRANCH  14  19
BRANCH  12  21
ATOM     21  C   UNL     1       7.913   6.166  19.257  0.00  0.00    +0.000 C 
BRANCH  21  22
ATOM     22  O   UNL     1       7.936   5.398  20.455  0.00  0.00    +0.000 OA
ATOM     23  H   UNL     1       7.536   5.962  21.148  0.00  0.00    +0.000 HD
ENDBRANCH  21  22
ENDBRANCH  12  21
TORSDOF 4
ENDMDL
MODEL 8
REMARK VINA RESULT:      -6.2      1.709      5.214
REMARK  Name = 
REMARK  6 active torsions:
REMARK  status: ('A' for Active; 'I' for Inactive)
REMARK    1  A    between atoms: C_1  and  C_2
REMARK    2  A    between atoms: C_4  and  O_5
REMARK    3  A    between atoms: C_13  and  C_14
REMARK    4  A    between atoms: C_14  and  O_15
REMARK    5  A    between atoms: C_17  and  O_18
REMARK    6  A    between atoms: C_19  and  C_20
REMARK                            x       y       z     vdW  Elec       q    Type
REMARK                         _______ _______ _______ _____ _____    ______ ____
ROOT
ATOM      1  C   UNL     1       5.180   5.454  16.232  0.00  0.00    +0.000 C 
ATOM      2  C   UNL     1       4.433   6.160  17.372  0.00  0.00    +0.000 C 
ATOM      3  C   UNL     1       3.705   7.397  16.821  0.00  0.00    +0.000 C 
ATOM      4  C   UNL     1       3.051   8.212  17.934  0.00  0.00    +0.000 C 
ATOM      5  C   UNL     1       2.108   7.372  18.789  0.00  0.00    +0.000 C 
ATOM      6  C   UNL     1       2.826   6.140  19.351  0.00  0.00    +0.000 C 
ATOM      7  C   UNL     1       1.922   5.325  20.305  0.00  0.00    +0.000 C 
ATOM      8  O   UNL     1       0.855   5.752  20.739  0.00  0.00    +0.000 OA
ATOM      9  C   UNL     1       2.519   4.059  20.660  0.00  0.00    +0.000 A 
ATOM     10  O   UNL     1       2.041   3.265  21.650  0.00  0.00    +0.000 OA
ATOM     11  C   UNL     1       2.886   2.201  21.733  0.00  0.00    +0.000 A 
ATOM     12  C   UNL     1       3.903   2.291  20.798  0.00  0.00    +0.000 A 
ATOM     13  C   UNL     1       3.625   3.487  20.072  0.00  0.00    +0.000 A 
ATOM     14  C   UNL     1       4.337   4.106  18.920  0.00  0.00    +0.000 C 
ATOM     15  C   UNL     1       3.481   5.239  18.226  0.00  0.00    +0.000 C 
ATOM     16  C   UNL     1       2.368   4.620  17.335  0.00  0.00    +0.000 C 
ENDROOT
BRANCH   4  17
ATOM     17  O   UNL     1       2.348   9.311  17.372  0.00  0.00    +0.000 OA
ATOM     18  H   UNL     1       1.589   9.518  17.942  0.00  0.00    +0.000 HD
ENDBRANCH   4  17
BRANCH  14  19
ATOM     19  O   UNL     1       4.737   3.090  18.001  0.00  0.00    +0.000 OA
ATOM     20  H   UNL     1       4.330   3.298  17.141  0.00  0.00    +0.000 HD
ENDBRANCH  14  19
BRANCH  12  21
ATOM     21  C   UNL     1       5.031   1.335  20.608  0.00  0.00    +0.000 C 
BRANCH  21  22
ATOM     22  O   UNL     1       5.744   1.088  21.814  0.00  0.00    +0.000 OA
ATOM     23  H   UNL     1       6.587   0.667  21.551  0.00  0.00    +0.000 HD
ENDBRANCH  21  22
ENDBRANCH  12  21
TORSDOF 4
ENDMDL
MODEL 9
REMARK VINA RESULT:      -5.9      8.582     11.648
REMARK  Name = 
REMARK  6 active torsions:
REMARK  status: ('A' for Active; 'I' for Inactive)
REMARK    1  A    between atoms: C_1  and  C_2
REMARK    2  A    between atoms: C_4  and  O_5
REMARK    3  A    between atoms: C_13  and  C_14
REMARK    4  A    between atoms: C_14  and  O_15
REMARK    5  A    between atoms: C_17  and  O_18
REMARK    6  A    between atoms: C_19  and  C_20
REMARK                            x       y       z     vdW  Elec       q    Type
REMARK                         _______ _______ _______ _____ _____    ______ ____
ROOT
ATOM      1  C   UNL     1      -2.523  13.492  22.847  0.00  0.00    +0.000 C 
ATOM      2  C   UNL     1      -3.926  12.913  22.621  0.00  0.00    +0.000 C 
ATOM      3  C   UNL     1      -4.890  13.474  23.680  0.00  0.00    +0.000 C 
ATOM      4  C   UNL     1      -6.272  12.831  23.584  0.00  0.00    +0.000 C 
ATOM      5  C   UNL     1      -6.875  12.962  22.188  0.00  0.00    +0.000 C 
ATOM      6  C   UNL     1      -5.926  12.397  21.125  0.00  0.00    +0.000 C 
ATOM      7  C   UNL     1      -6.555  12.423  19.712  0.00  0.00    +0.000 C 
ATOM      8  O   UNL     1      -7.748  12.640  19.518  0.00  0.00    +0.000 OA
ATOM      9  C   UNL     1      -5.589  12.098  18.689  0.00  0.00    +0.000 A 
ATOM     10  O   UNL     1      -5.932  11.831  17.404  0.00  0.00    +0.000 OA
ATOM     11  C   UNL     1      -4.777  11.512  16.756  0.00  0.00    +0.000 A 
ATOM     12  C   UNL     1      -3.687  11.580  17.606  0.00  0.00    +0.000 A 
ATOM     13  C   UNL     1      -4.225  12.009  18.855  0.00  0.00    +0.000 A 
ATOM     14  C   UNL     1      -3.550  12.298  20.151  0.00  0.00    +0.000 C 
ATOM     15  C   UNL     1      -4.492  13.069  21.158  0.00  0.00    +0.000 C 
ATOM     16  C   UNL     1      -4.605  14.569  20.767  0.00  0.00    +0.000 C 
ENDROOT
BRANCH   4  17
ATOM     17  O   UNL     1      -7.139  13.418  24.544  0.00  0.00    +0.000 OA
ATOM     18  H   UNL     1      -7.758  14.008  24.083  0.00  0.00    +0.000 HD
ENDBRANCH   4  17
BRANCH  14  19
ATOM     19  O   UNL     1      -2.328  12.995  19.909  0.00  0.00    +0.000 OA
ATOM     20  H   UNL     1      -1.741  12.393  19.418  0.00  0.00    +0.000 HD
ENDBRANCH  14  19
BRANCH  12  21
ATOM     21  C   UNL     1      -2.268  11.270  17.267  0.00  0.00    +0.000 C 
BRANCH  21  22
ATOM     22  O   UNL     1      -1.473  12.442  17.130  0.00  0.00    +0.000 OA
ATOM     23  H   UNL     1      -0.558  12.178  17.350  0.00  0.00    +0.000 HD
ENDBRANCH  21  22
ENDBRANCH  12  21
TORSDOF 4
ENDMDL
