MODEL 1
REMARK VINA RESULT:      -6.7      0.000      0.000
REMARK  Name = 
REMARK  8 active torsions:
REMARK  status: ('A' for Active; 'I' for Inactive)
REMARK    1  A    between atoms: C_1  and  N_2
REMARK    2  A    between atoms: N_2  and  C_3
REMARK    3  A    between atoms: N_2  and  C_6
REMARK    4  A    between atoms: N_2  and  C_9
REMARK    5  A    between atoms: C_3  and  C_4
REMARK    6  A    between atoms: C_6  and  C_7
REMARK    7  A    between atoms: C_9  and  C_10
REMARK    8  A    between atoms: C_15  and  N_16
REMARK                            x       y       z     vdW  Elec       q    Type
REMARK                         _______ _______ _______ _____ _____    ______ ____
ROOT
ATOM      1  C   UNL     1       3.115   5.271  18.485  0.00  0.00    +0.000 A 
ATOM      2  C   UNL     1       2.992   4.270  19.470  0.00  0.00    +0.000 A 
ATOM      3  C   UNL     1       2.373   4.537  20.680  0.00  0.00    +0.000 A 
ATOM      4  C   UNL     1       1.863   5.805  20.936  0.00  0.00    +0.000 A 
ATOM      5  C   UNL     1       1.933   6.845  19.974  0.00  0.00    +0.000 A 
ATOM      6  C   UNL     1       1.449   8.168  20.182  0.00  0.00    +0.000 A 
ATOM      7  C   UNL     1       1.530   9.172  19.210  0.00  0.00    +0.000 A 
ATOM      8  C   UNL     1       2.048   8.858  17.969  0.00  0.00    +0.000 A 
ATOM      9  C   UNL     1       2.510   7.566  17.721  0.00  0.00    +0.000 A 
ATOM     10  C   UNL     1       2.526   6.552  18.710  0.00  0.00    +0.000 A 
ENDROOT
BRANCH   6  11
ATOM     11  N   UNL     1       0.840   8.558  21.446  0.00  0.00    +0.000 N 
ATOM     12  O   UNL     1      -0.377   8.366  21.569  0.00  0.00    +0.000 OA
ATOM     13  O   UNL     1       1.590   9.030  22.305  0.00  0.00    +0.000 OA
ENDBRANCH   6  11
BRANCH   1  14
ATOM     14  C   UNL     1       3.927   4.933  17.242  0.00  0.00    +0.000 C 
BRANCH  14  16
ATOM     15  C   UNL     1       5.532   6.695  16.373  0.00  0.00    +0.000 C 
ATOM     16  N   UNL     1       5.427   5.420  17.204  0.00  0.00    +0.000 N 
BRANCH  16  17
ATOM     17  C   UNL     1       6.315   4.295  16.562  0.00  0.00    +0.000 C 
BRANCH  17  18
ATOM     18  C   UNL     1       6.941   4.642  15.203  0.00  0.00    +0.000 C 
ATOM     19 CL   UNL     1       5.962   3.936  13.895  0.00  0.00    +0.000 Cl
ENDBRANCH  17  18
ENDBRANCH  16  17
BRANCH  16  20
ATOM     20  C   UNL     1       5.928   5.660  18.661  0.00  0.00    +0.000 C 
BRANCH  20  21
ATOM     21  C   UNL     1       7.443   5.566  18.866  0.00  0.00    +0.000 C 
ATOM     22 CL   UNL     1       8.177   7.159  18.569  0.00  0.00    +0.000 Cl
ENDBRANCH  20  21
ENDBRANCH  16  20
ENDBRANCH  14  16
ENDBRANCH   1  14
TORSDOF 7
ENDMDL
MODEL 2
REMARK VINA RESULT:      -6.7      2.510      4.069
REMARK  Name = 
REMARK  8 active torsions:
REMARK  status: ('A' for Active; 'I' for Inactive)
REMARK    1  A    between atoms: C_1  and  N_2
REMARK    2  A    between atoms: N_2  and  C_3
REMARK    3  A    between atoms: N_2  and  C_6
REMARK    4  A    between atoms: N_2  and  C_9
REMARK    5  A    between atoms: C_3  and  C_4
REMARK    6  A    between atoms: C_6  and  C_7
REMARK    7  A    between atoms: C_9  and  C_10
REMARK    8  A    between atoms: C_15  and  N_16
REMARK                            x       y       z     vdW  Elec       q    Type
REMARK                         _______ _______ _______ _____ _____    ______ ____
ROOT
ATOM      1  C   UNL     1       4.066   4.228  17.148  0.00  0.00    +0.000 A 
ATOM      2  C   UNL     1       4.185   2.844  16.910  0.00  0.00    +0.000 A 
ATOM      3  C   UNL     1       3.666   1.922  17.805  0.00  0.00    +0.000 A 
ATOM      4  C   UNL     1       3.017   2.358  18.955  0.00  0.00    +0.000 A 
ATOM      5  C   UNL     1       2.842   3.738  19.234  0.00  0.00    +0.000 A 
ATOM      6  C   UNL     1       2.206   4.248  20.402  0.00  0.00    +0.000 A 
ATOM      7  C   UNL     1       2.046   5.617  20.647  0.00  0.00    +0.000 A 
ATOM      8  C   UNL     1       2.470   6.520  19.691  0.00  0.00    +0.000 A 
ATOM      9  C   UNL     1       3.075   6.056  18.525  0.00  0.00    +0.000 A 
ATOM     10  C   UNL     1       3.334   4.683  18.286  0.00  0.00    +0.000 A 
ENDROOT
BRANCH   6  11
ATOM     11  N   UNL     1       1.685   3.356  21.428  0.00  0.00    +0.000 N 
ATOM     12  O   UNL     1       0.613   2.785  21.189  0.00  0.00    +0.000 OA
ATOM     13  O   UNL     1       2.366   3.221  22.448  0.00  0.00    +0.000 OA
ENDBRANCH   6  11
BRANCH   1  14
ATOM     14  C   UNL     1       4.781   5.166  16.186  0.00  0.00    +0.000 C 
BRANCH  14  16
ATOM     15  C   UNL     1       6.816   4.485  17.540  0.00  0.00    +0.000 C 
ATOM     16  N   UNL     1       6.334   5.359  16.386  0.00  0.00    +0.000 N 
BRANCH  16  17
ATOM     17  C   UNL     1       6.627   6.868  16.707  0.00  0.00    +0.000 C 
BRANCH  17  18
ATOM     18  C   UNL     1       7.598   7.121  17.869  0.00  0.00    +0.000 C 
ATOM     19 CL   UNL     1       8.116   8.824  17.857  0.00  0.00    +0.000 Cl
ENDBRANCH  17  18
ENDBRANCH  16  17
BRANCH  16  20
ATOM     20  C   UNL     1       7.074   4.993  15.063  0.00  0.00    +0.000 C 
BRANCH  20  21
ATOM     21  C   UNL     1       6.311   4.066  14.111  0.00  0.00    +0.000 C 
ATOM     22 CL   UNL     1       7.030   4.170  12.487  0.00  0.00    +0.000 Cl
ENDBRANCH  20  21
ENDBRANCH  16  20
ENDBRANCH  14  16
ENDBRANCH   1  14
TORSDOF 7
ENDMDL
MODEL 3
REMARK VINA RESULT:      -6.7      0.847      2.451
REMARK  Name = 
REMARK  8 active torsions:
REMARK  status: ('A' for Active; 'I' for Inactive)
REMARK    1  A    between atoms: C_1  and  N_2
REMARK    2  A    between atoms: N_2  and  C_3
REMARK    3  A    between atoms: N_2  and  C_6
REMARK    4  A    between atoms: N_2  and  C_9
REMARK    5  A    between atoms: C_3  and  C_4
REMARK    6  A    between atoms: C_6  and  C_7
REMARK    7  A    between atoms: C_9  and  C_10
REMARK    8  A    between atoms: C_15  and  N_16
REMARK                            x       y       z     vdW  Elec       q    Type
REMARK                         _______ _______ _______ _____ _____    ______ ____
ROOT
ATOM      1  C   UNL     1       3.116   5.673  18.577  0.00  0.00    +0.000 A 
ATOM      2  C   UNL     1       2.921   4.657  19.535  0.00  0.00    +0.000 A 
ATOM      3  C   UNL     1       2.219   4.906  20.702  0.00  0.00    +0.000 A 
ATOM      4  C   UNL     1       1.695   6.172  20.943  0.00  0.00    +0.000 A 
ATOM      5  C   UNL     1       1.836   7.227  20.004  0.00  0.00    +0.000 A 
ATOM      6  C   UNL     1       1.341   8.548  20.200  0.00  0.00    +0.000 A 
ATOM      7  C   UNL     1       1.494   9.568  19.252  0.00  0.00    +0.000 A 
ATOM      8  C   UNL     1       2.098   9.271  18.046  0.00  0.00    +0.000 A 
ATOM      9  C   UNL     1       2.573   7.982  17.810  0.00  0.00    +0.000 A 
ATOM     10  C   UNL     1       2.516   6.953  18.782  0.00  0.00    +0.000 A 
ENDROOT
BRANCH   6  11
ATOM     11  N   UNL     1       0.646   8.920  21.424  0.00  0.00    +0.000 N 
ATOM     12  O   UNL     1       1.301   9.522  22.284  0.00  0.00    +0.000 OA
ATOM     13  O   UNL     1      -0.550   8.625  21.497  0.00  0.00    +0.000 OA
ENDBRANCH   6  11
BRANCH   1  14
ATOM     14  C   UNL     1       4.013   5.351  17.390  0.00  0.00    +0.000 C 
BRANCH  14  16
ATOM     15  C   UNL     1       5.886   5.223  19.097  0.00  0.00    +0.000 C 
ATOM     16  N   UNL     1       5.571   5.434  17.618  0.00  0.00    +0.000 N 
BRANCH  16  17
ATOM     17  C   UNL     1       6.083   6.848  17.165  0.00  0.00    +0.000 C 
BRANCH  17  18
ATOM     18  C   UNL     1       7.572   7.125  17.418  0.00  0.00    +0.000 C 
ATOM     19 CL   UNL     1       7.815   8.863  17.716  0.00  0.00    +0.000 Cl
ENDBRANCH  17  18
ENDBRANCH  16  17
BRANCH  16  20
ATOM     20  C   UNL     1       6.279   4.357  16.740  0.00  0.00    +0.000 C 
BRANCH  20  21
ATOM     21  C   UNL     1       5.726   4.190  15.321  0.00  0.00    +0.000 C 
ATOM     22 CL   UNL     1       6.898   4.841  14.152  0.00  0.00    +0.000 Cl
ENDBRANCH  20  21
ENDBRANCH  16  20
ENDBRANCH  14  16
ENDBRANCH   1  14
TORSDOF 7
ENDMDL
MODEL 4
REMARK VINA RESULT:      -6.7      2.646      4.650
REMARK  Name = 
REMARK  8 active torsions:
REMARK  status: ('A' for Active; 'I' for Inactive)
REMARK    1  A    between atoms: C_1  and  N_2
REMARK    2  A    between atoms: N_2  and  C_3
REMARK    3  A    between atoms: N_2  and  C_6
REMARK    4  A    between atoms: N_2  and  C_9
REMARK    5  A    between atoms: C_3  and  C_4
REMARK    6  A    between atoms: C_6  and  C_7
REMARK    7  A    between atoms: C_9  and  C_10
REMARK    8  A    between atoms: C_15  and  N_16
REMARK                            x       y       z     vdW  Elec       q    Type
REMARK                         _______ _______ _______ _____ _____    ______ ____
ROOT
ATOM      1  C   UNL     1       4.215   5.275  17.356  0.00  0.00    +0.000 A 
ATOM      2  C   UNL     1       3.945   6.535  17.926  0.00  0.00    +0.000 A 
ATOM      3  C   UNL     1       3.177   6.646  19.073  0.00  0.00    +0.000 A 
ATOM      4  C   UNL     1       2.662   5.505  19.679  0.00  0.00    +0.000 A 
ATOM      5  C   UNL     1       2.923   4.207  19.168  0.00  0.00    +0.000 A 
ATOM      6  C   UNL     1       2.409   3.004  19.729  0.00  0.00    +0.000 A 
ATOM      7  C   UNL     1       2.688   1.737  19.202  0.00  0.00    +0.000 A 
ATOM      8  C   UNL     1       3.547   1.637  18.125  0.00  0.00    +0.000 A 
ATOM      9  C   UNL     1       4.088   2.793  17.564  0.00  0.00    +0.000 A 
ATOM     10  C   UNL     1       3.755   4.094  18.016  0.00  0.00    +0.000 A 
ENDROOT
BRANCH   6  11
ATOM     11  N   UNL     1       1.542   3.026  20.898  0.00  0.00    +0.000 N 
ATOM     12  O   UNL     1       0.322   3.093  20.695  0.00  0.00    +0.000 OA
ATOM     13  O   UNL     1       2.090   2.955  22.002  0.00  0.00    +0.000 OA
ENDBRANCH   6  11
BRANCH   1  14
ATOM     14  C   UNL     1       4.951   5.253  16.023  0.00  0.00    +0.000 C 
BRANCH  14  16
ATOM     15  C   UNL     1       7.072   4.430  17.148  0.00  0.00    +0.000 C 
ATOM     16  N   UNL     1       6.524   5.356  16.065  0.00  0.00    +0.000 N 
BRANCH  16  17
ATOM     17  C   UNL     1       6.933   6.839  16.382  0.00  0.00    +0.000 C 
BRANCH  17  18
ATOM     18  C   UNL     1       7.594   7.066  17.749  0.00  0.00    +0.000 C 
ATOM     19 CL   UNL     1       8.112   8.763  17.889  0.00  0.00    +0.000 Cl
ENDBRANCH  17  18
ENDBRANCH  16  17
BRANCH  16  20
ATOM     20  C   UNL     1       7.103   4.981  14.666  0.00  0.00    +0.000 C 
BRANCH  20  21
ATOM     21  C   UNL     1       6.284   3.969  13.859  0.00  0.00    +0.000 C 
ATOM     22 CL   UNL     1       6.890   3.923  12.187  0.00  0.00    +0.000 Cl
ENDBRANCH  20  21
ENDBRANCH  16  20
ENDBRANCH  14  16
ENDBRANCH   1  14
TORSDOF 7
ENDMDL
MODEL 5
REMARK VINA RESULT:      -6.4      2.592      4.625
REMARK  Name = 
REMARK  8 active torsions:
REMARK  status: ('A' for Active; 'I' for Inactive)
REMARK    1  A    between atoms: C_1  and  N_2
REMARK    2  A    between atoms: N_2  and  C_3
REMARK    3  A    between atoms: N_2  and  C_6
REMARK    4  A    between atoms: N_2  and  C_9
REMARK    5  A    between atoms: C_3  and  C_4
REMARK    6  A    between atoms: C_6  and  C_7
REMARK    7  A    between atoms: C_9  and  C_10
REMARK    8  A    between atoms: C_15  and  N_16
REMARK                            x       y       z     vdW  Elec       q    Type
REMARK                         _______ _______ _______ _____ _____    ______ ____
ROOT
ATOM      1  C   UNL     1       4.091   5.656  17.611  0.00  0.00    +0.000 A 
ATOM      2  C   UNL     1       3.570   6.821  18.209  0.00  0.00    +0.000 A 
ATOM      3  C   UNL     1       2.546   6.745  19.138  0.00  0.00    +0.000 A 
ATOM      4  C   UNL     1       2.018   5.508  19.493  0.00  0.00    +0.000 A 
ATOM      5  C   UNL     1       2.519   4.299  18.946  0.00  0.00    +0.000 A 
ATOM      6  C   UNL     1       2.010   3.005  19.252  0.00  0.00    +0.000 A 
ATOM      7  C   UNL     1       2.529   1.829  18.696  0.00  0.00    +0.000 A 
ATOM      8  C   UNL     1       3.624   1.915  17.858  0.00  0.00    +0.000 A 
ATOM      9  C   UNL     1       4.164   3.164  17.555  0.00  0.00    +0.000 A 
ATOM     10  C   UNL     1       3.607   4.378  18.027  0.00  0.00    +0.000 A 
ENDROOT
BRANCH   6  11
ATOM     11  N   UNL     1       0.893   2.832  20.170  0.00  0.00    +0.000 N 
ATOM     12  O   UNL     1       1.153   2.822  21.380  0.00  0.00    +0.000 OA
ATOM     13  O   UNL     1      -0.230   2.730  19.669  0.00  0.00    +0.000 OA
ENDBRANCH   6  11
BRANCH   1  14
ATOM     14  C   UNL     1       5.119   5.839  16.503  0.00  0.00    +0.000 C 
BRANCH  14  16
ATOM     15  C   UNL     1       6.760   5.082  18.284  0.00  0.00    +0.000 C 
ATOM     16  N   UNL     1       6.640   5.718  16.902  0.00  0.00    +0.000 N 
BRANCH  16  17
ATOM     17  C   UNL     1       7.280   7.152  16.923  0.00  0.00    +0.000 C 
BRANCH  17  18
ATOM     18  C   UNL     1       8.090   7.497  18.182  0.00  0.00    +0.000 C 
ATOM     19 CL   UNL     1       8.448   9.241  18.204  0.00  0.00    +0.000 Cl
ENDBRANCH  17  18
ENDBRANCH  16  17
BRANCH  16  20
ATOM     20  C   UNL     1       7.389   4.869  15.830  0.00  0.00    +0.000 C 
BRANCH  20  21
ATOM     21  C   UNL     1       6.925   5.067  14.383  0.00  0.00    +0.000 C 
ATOM     22 CL   UNL     1       6.001   3.640  13.862  0.00  0.00    +0.000 Cl
ENDBRANCH  20  21
ENDBRANCH  16  20
ENDBRANCH  14  16
ENDBRANCH   1  14
TORSDOF 7
ENDMDL
MODEL 6
REMARK VINA RESULT:      -6.3      2.600      3.891
REMARK  Name = 
REMARK  8 active torsions:
REMARK  status: ('A' for Active; 'I' for Inactive)
REMARK    1  A    between atoms: C_1  and  N_2
REMARK    2  A    between atoms: N_2  and  C_3
REMARK    3  A    between atoms: N_2  and  C_6
REMARK    4  A    between atoms: N_2  and  C_9
REMARK    5  A    between atoms: C_3  and  C_4
REMARK    6  A    between atoms: C_6  and  C_7
REMARK    7  A    between atoms: C_9  and  C_10
REMARK    8  A    between atoms: C_15  and  N_16
REMARK                            x       y       z     vdW  Elec       q    Type
REMARK                         _______ _______ _______ _____ _____    ______ ____
ROOT
ATOM      1  C   UNL     1       4.065   5.382  17.358  0.00  0.00    +0.000 A 
ATOM      2  C   UNL     1       3.751   6.623  17.947  0.00  0.00    +0.000 A 
ATOM      3  C   UNL     1       3.009   6.689  19.115  0.00  0.00    +0.000 A 
ATOM      4  C   UNL     1       2.564   5.520  19.723  0.00  0.00    +0.000 A 
ATOM      5  C   UNL     1       2.872   4.240  19.193  0.00  0.00    +0.000 A 
ATOM      6  C   UNL     1       2.430   3.009  19.755  0.00  0.00    +0.000 A 
ATOM      7  C   UNL     1       2.754   1.761  19.209  0.00  0.00    +0.000 A 
ATOM      8  C   UNL     1       3.588   1.711  18.109  0.00  0.00    +0.000 A 
ATOM      9  C   UNL     1       4.060   2.895  17.546  0.00  0.00    +0.000 A 
ATOM     10  C   UNL     1       3.678   4.176  18.018  0.00  0.00    +0.000 A 
ENDROOT
BRANCH   6  11
ATOM     11  N   UNL     1       1.593   2.981  20.946  0.00  0.00    +0.000 N 
ATOM     12  O   UNL     1       2.169   2.912  22.040  0.00  0.00    +0.000 OA
ATOM     13  O   UNL     1       0.373   3.051  20.773  0.00  0.00    +0.000 OA
ENDBRANCH   6  11
BRANCH   1  14
ATOM     14  C   UNL     1       4.766   5.406  16.007  0.00  0.00    +0.000 C 
BRANCH  14  16
ATOM     15  C   UNL     1       6.803   6.884  16.328  0.00  0.00    +0.000 C 
ATOM     16  N   UNL     1       6.342   5.464  16.012  0.00  0.00    +0.000 N 
BRANCH  16  17
ATOM     17  C   UNL     1       6.876   5.038  14.598  0.00  0.00    +0.000 C 
BRANCH  17  18
ATOM     18  C   UNL     1       6.394   3.671  14.093  0.00  0.00    +0.000 C 
ATOM     19 CL   UNL     1       5.258   3.899  12.741  0.00  0.00    +0.000 Cl
ENDBRANCH  17  18
ENDBRANCH  16  17
BRANCH  16  20
ATOM     20  C   UNL     1       6.893   4.453  17.064  0.00  0.00    +0.000 C 
BRANCH  20  21
ATOM     21  C   UNL     1       7.758   5.056  18.175  0.00  0.00    +0.000 C 
ATOM     22 CL   UNL     1       6.733   5.431  19.579  0.00  0.00    +0.000 Cl
ENDBRANCH  20  21
ENDBRANCH  16  20
ENDBRANCH  14  16
ENDBRANCH   1  14
TORSDOF 7
ENDMDL
MODEL 7
REMARK VINA RESULT:      -6.2      0.448      2.405
REMARK  Name = 
REMARK  8 active torsions:
REMARK  status: ('A' for Active; 'I' for Inactive)
REMARK    1  A    between atoms: C_1  and  N_2
REMARK    2  A    between atoms: N_2  and  C_3
REMARK    3  A    between atoms: N_2  and  C_6
REMARK    4  A    between atoms: N_2  and  C_9
REMARK    5  A    between atoms: C_3  and  C_4
REMARK    6  A    between atoms: C_6  and  C_7
REMARK    7  A    between atoms: C_9  and  C_10
REMARK    8  A    between atoms: C_15  and  N_16
REMARK                            x       y       z     vdW  Elec       q    Type
REMARK                         _______ _______ _______ _____ _____    ______ ____
ROOT
ATOM      1  C   UNL     1       2.838   5.385  18.545  0.00  0.00    +0.000 A 
ATOM      2  C   UNL     1       2.699   4.390  19.533  0.00  0.00    +0.000 A 
ATOM      3  C   UNL     1       2.143   4.686  20.767  0.00  0.00    +0.000 A 
ATOM      4  C   UNL     1       1.713   5.979  21.044  0.00  0.00    +0.000 A 
ATOM      5  C   UNL     1       1.802   7.017  20.080  0.00  0.00    +0.000 A 
ATOM      6  C   UNL     1       1.399   8.363  20.309  0.00  0.00    +0.000 A 
ATOM      7  C   UNL     1       1.497   9.364  19.335  0.00  0.00    +0.000 A 
ATOM      8  C   UNL     1       1.948   9.026  18.074  0.00  0.00    +0.000 A 
ATOM      9  C   UNL     1       2.329   7.712  17.807  0.00  0.00    +0.000 A 
ATOM     10  C   UNL     1       2.329   6.696  18.795  0.00  0.00    +0.000 A 
ENDROOT
BRANCH   6  11
ATOM     11  N   UNL     1       0.861   8.782  21.596  0.00  0.00    +0.000 N 
ATOM     12  O   UNL     1      -0.343   8.578  21.798  0.00  0.00    +0.000 OA
ATOM     13  O   UNL     1       1.655   9.288  22.394  0.00  0.00    +0.000 OA
ENDBRANCH   6  11
BRANCH   1  14
ATOM     14  C   UNL     1       3.581   5.007  17.272  0.00  0.00    +0.000 C 
BRANCH  14  16
ATOM     15  C   UNL     1       5.734   3.672  17.427  0.00  0.00    +0.000 C 
ATOM     16  N   UNL     1       5.157   5.080  17.306  0.00  0.00    +0.000 N 
BRANCH  16  17
ATOM     17  C   UNL     1       5.604   5.943  18.540  0.00  0.00    +0.000 C 
BRANCH  17  18
ATOM     18  C   UNL     1       7.015   5.654  19.072  0.00  0.00    +0.000 C 
ATOM     19 CL   UNL     1       8.122   6.955  18.570  0.00  0.00    +0.000 Cl
ENDBRANCH  17  18
ENDBRANCH  16  17
BRANCH  16  20
ATOM     20  C   UNL     1       5.669   5.783  16.011  0.00  0.00    +0.000 C 
BRANCH  20  21
ATOM     21  C   UNL     1       6.745   5.026  15.227  0.00  0.00    +0.000 C 
ATOM     22 CL   UNL     1       5.978   4.111  13.909  0.00  0.00    +0.000 Cl
ENDBRANCH  20  21
ENDBRANCH  16  20
ENDBRANCH  14  16
ENDBRANCH   1  14
TORSDOF 7
ENDMDL
MODEL 8
REMARK VINA RESULT:      -6.1      2.435      3.092
REMARK  Name = 
REMARK  8 active torsions:
REMARK  status: ('A' for Active; 'I' for Inactive)
REMARK    1  A    between atoms: C_1  and  N_2
REMARK    2  A    between atoms: N_2  and  C_3
REMARK    3  A    between atoms: N_2  and  C_6
REMARK    4  A    between atoms: N_2  and  C_9
REMARK    5  A    between atoms: C_3  and  C_4
REMARK    6  A    between atoms: C_6  and  C_7
REMARK    7  A    between atoms: C_9  and  C_10
REMARK    8  A    between atoms: C_15  and  N_16
REMARK                            x       y       z     vdW  Elec       q    Type
REMARK                         _______ _______ _______ _____ _____    ______ ____
ROOT
ATOM      1  C   UNL     1       4.221   4.658  17.238  0.00  0.00    +0.000 A 
ATOM      2  C   UNL     1       4.357   3.302  16.876  0.00  0.00    +0.000 A 
ATOM      3  C   UNL     1       3.758   2.303  17.625  0.00  0.00    +0.000 A 
ATOM      4  C   UNL     1       3.010   2.631  18.751  0.00  0.00    +0.000 A 
ATOM      5  C   UNL     1       2.814   3.979  19.149  0.00  0.00    +0.000 A 
ATOM      6  C   UNL     1       2.078   4.378  20.301  0.00  0.00    +0.000 A 
ATOM      7  C   UNL     1       1.901   5.718  20.666  0.00  0.00    +0.000 A 
ATOM      8  C   UNL     1       2.410   6.705  19.845  0.00  0.00    +0.000 A 
ATOM      9  C   UNL     1       3.116   6.352  18.696  0.00  0.00    +0.000 A 
ATOM     10  C   UNL     1       3.391   5.007  18.347  0.00  0.00    +0.000 A 
ENDROOT
BRANCH   6  11
ATOM     11  N   UNL     1       1.466   3.395  21.183  0.00  0.00    +0.000 N 
ATOM     12  O   UNL     1       0.436   2.839  20.781  0.00  0.00    +0.000 OA
ATOM     13  O   UNL     1       2.036   3.177  22.256  0.00  0.00    +0.000 OA
ENDBRANCH   6  11
BRANCH   1  14
ATOM     14  C   UNL     1       5.021   5.678  16.441  0.00  0.00    +0.000 C 
BRANCH  14  16
ATOM     15  C   UNL     1       7.081   7.159  16.492  0.00  0.00    +0.000 C 
ATOM     16  N   UNL     1       6.577   5.732  16.694  0.00  0.00    +0.000 N 
BRANCH  16  17
ATOM     17  C   UNL     1       7.296   4.770  15.681  0.00  0.00    +0.000 C 
BRANCH  17  18
ATOM     18  C   UNL     1       6.989   5.022  14.198  0.00  0.00    +0.000 C 
ATOM     19 CL   UNL     1       5.980   3.700  13.563  0.00  0.00    +0.000 Cl
ENDBRANCH  17  18
ENDBRANCH  16  17
BRANCH  16  20
ATOM     20  C   UNL     1       6.883   5.232  18.139  0.00  0.00    +0.000 C 
BRANCH  20  21
ATOM     21  C   UNL     1       7.774   6.149  18.984  0.00  0.00    +0.000 C 
ATOM     22 CL   UNL     1       8.421   5.231  20.362  0.00  0.00    +0.000 Cl
ENDBRANCH  20  21
ENDBRANCH  16  20
ENDBRANCH  14  16
ENDBRANCH   1  14
TORSDOF 7
ENDMDL
MODEL 9
REMARK VINA RESULT:      -6.0      2.463      3.247
REMARK  Name = 
REMARK  8 active torsions:
REMARK  status: ('A' for Active; 'I' for Inactive)
REMARK    1  A    between atoms: C_1  and  N_2
REMARK    2  A    between atoms: N_2  and  C_3
REMARK    3  A    between atoms: N_2  and  C_6
REMARK    4  A    between atoms: N_2  and  C_9
REMARK    5  A    between atoms: C_3  and  C_4
REMARK    6  A    between atoms: C_6  and  C_7
REMARK    7  A    between atoms: C_9  and  C_10
REMARK    8  A    between atoms: C_15  and  N_16
REMARK                            x       y       z     vdW  Elec       q    Type
REMARK                         _______ _______ _______ _____ _____    ______ ____
ROOT
ATOM      1  C   UNL     1       3.855   3.592  17.090  0.00  0.00    +0.000 A 
ATOM      2  C   UNL     1       4.027   2.193  17.076  0.00  0.00    +0.000 A 
ATOM      3  C   UNL     1       3.598   1.414  18.137  0.00  0.00    +0.000 A 
ATOM      4  C   UNL     1       2.987   2.009  19.236  0.00  0.00    +0.000 A 
ATOM      5  C   UNL     1       2.761   3.409  19.295  0.00  0.00    +0.000 A 
ATOM      6  C   UNL     1       2.160   4.081  20.397  0.00  0.00    +0.000 A 
ATOM      7  C   UNL     1       1.948   5.464  20.424  0.00  0.00    +0.000 A 
ATOM      8  C   UNL     1       2.280   6.211  19.310  0.00  0.00    +0.000 A 
ATOM      9  C   UNL     1       2.848   5.584  18.203  0.00  0.00    +0.000 A 
ATOM     10  C   UNL     1       3.159   4.201  18.178  0.00  0.00    +0.000 A 
ENDROOT
BRANCH   6  11
ATOM     11  N   UNL     1       1.734   3.352  21.584  0.00  0.00    +0.000 N 
ATOM     12  O   UNL     1       2.447   3.448  22.591  0.00  0.00    +0.000 OA
ATOM     13  O   UNL     1       0.682   2.712  21.498  0.00  0.00    +0.000 OA
ENDBRANCH   6  11
BRANCH   1  14
ATOM     14  C   UNL     1       4.476   4.385  15.948  0.00  0.00    +0.000 C 
BRANCH  14  16
ATOM     15  C   UNL     1       5.706   6.604  15.912  0.00  0.00    +0.000 C 
ATOM     16  N   UNL     1       5.842   5.119  16.238  0.00  0.00    +0.000 N 
BRANCH  16  17
ATOM     17  C   UNL     1       6.967   4.483  15.345  0.00  0.00    +0.000 C 
BRANCH  17  18
ATOM     18  C   UNL     1       6.937   4.878  13.862  0.00  0.00    +0.000 C 
ATOM     19 CL   UNL     1       6.170   3.583  12.912  0.00  0.00    +0.000 Cl
ENDBRANCH  17  18
ENDBRANCH  16  17
BRANCH  16  20
ATOM     20  C   UNL     1       6.232   4.910  17.733  0.00  0.00    +0.000 C 
BRANCH  20  21
ATOM     21  C   UNL     1       7.732   4.969  18.041  0.00  0.00    +0.000 C 
ATOM     22 CL   UNL     1       8.098   6.488  18.891  0.00  0.00    +0.000 Cl
ENDBRANCH  20  21
ENDBRANCH  16  20
ENDBRANCH  14  16
ENDBRANCH   1  14
TORSDOF 7
ENDMDL
