MODEL 1
REMARK VINA RESULT:      -7.5      0.000      0.000
REMARK  Name = 
REMARK  7 active torsions:
REMARK  status: ('A' for Active; 'I' for Inactive)
REMARK    1  A    between atoms: C_1  and  O_2
REMARK    2  A    between atoms: O_2  and  C_3
REMARK    3  A    between atoms: C_7  and  C_8
REMARK    4  A    between atoms: C_10  and  C_11
REMARK    5  A    between atoms: N_13  and  C_14
REMARK    6  A    between atoms: C_14  and  C_15
REMARK    7  A    between atoms: C_15  and  N_16
REMARK                            x       y       z     vdW  Elec       q    Type
REMARK                         _______ _______ _______ _____ _____    ______ ____
ROOT
ATOM      1  C   UNL     1       2.393   7.666  18.412  0.00  0.00    +0.000 A 
ATOM      2  C   UNL     1       1.906   7.768  19.707  0.00  0.00    +0.000 A 
ATOM      3  C   UNL     1       1.165   8.892  20.094  0.00  0.00    +0.000 A 
ATOM      4  C   UNL     1       0.598   8.973  21.482  0.00  0.00    +0.000 C 
ATOM      5  C   UNL     1       0.929   9.892  19.151  0.00  0.00    +0.000 A 
ATOM      6  N   UNL     1       0.201  11.033  19.534  0.00  0.00    +0.000 N 
ATOM      7  N   UNL     1       1.436   9.772  17.906  0.00  0.00    +0.000 NA
ATOM      8  N   UNL     1       2.175   8.664  17.534  0.00  0.00    +0.000 NA
ATOM      9  H   UNL     1       0.824  11.634  20.069  0.00  0.00    +0.000 HD
ENDROOT
BRANCH   1  14
ATOM     10  C   UNL     1       3.211   4.060  17.531  0.00  0.00    +0.000 A 
ATOM     11  C   UNL     1       4.459   4.205  16.932  0.00  0.00    +0.000 A 
ATOM     12  C   UNL     1       5.040   5.467  16.811  0.00  0.00    +0.000 A 
ATOM     13  C   UNL     1       4.368   6.596  17.291  0.00  0.00    +0.000 A 
ATOM     14  C   UNL     1       3.111   6.480  17.906  0.00  0.00    +0.000 A 
ATOM     15  C   UNL     1       2.543   5.194  18.011  0.00  0.00    +0.000 A 
BRANCH  10  17
ATOM     16  C   UNL     1       1.592   2.547  18.395  0.00  0.00    +0.000 C 
ATOM     17  O   UNL     1       2.745   2.776  17.594  0.00  0.00    +0.000 OA
ENDBRANCH  10  17
ENDBRANCH   1  14
BRANCH   6  18
ATOM     18  C   UNL     1      -0.460  11.748  18.438  0.00  0.00    +0.000 C 
BRANCH  18  19
ATOM     19  C   UNL     1      -1.998  11.663  18.621  0.00  0.00    +0.000 C 
BRANCH  19  20
ATOM     20  N   UNL     1      -2.623  10.401  18.177  0.00  0.00    +0.000 NA
ATOM     21  C   UNL     1      -2.106   9.997  16.845  0.00  0.00    +0.000 C 
ATOM     22  C   UNL     1      -2.654  10.823  15.663  0.00  0.00    +0.000 C 
ATOM     23  O   UNL     1      -4.088  10.885  15.664  0.00  0.00    +0.000 OA
ATOM     24  C   UNL     1      -4.577  11.383  16.915  0.00  0.00    +0.000 C 
ATOM     25  C   UNL     1      -4.099  10.495  18.074  0.00  0.00    +0.000 C 
ENDBRANCH  19  20
ENDBRANCH  18  19
ENDBRANCH   6  18
TORSDOF 5
ENDMDL
MODEL 2
REMARK VINA RESULT:      -7.5      1.102      1.885
REMARK  Name = 
REMARK  7 active torsions:
REMARK  status: ('A' for Active; 'I' for Inactive)
REMARK    1  A    between atoms: C_1  and  O_2
REMARK    2  A    between atoms: O_2  and  C_3
REMARK    3  A    between atoms: C_7  and  C_8
REMARK    4  A    between atoms: C_10  and  C_11
REMARK    5  A    between atoms: N_13  and  C_14
REMARK    6  A    between atoms: C_14  and  C_15
REMARK    7  A    between atoms: C_15  and  N_16
REMARK                            x       y       z     vdW  Elec       q    Type
REMARK                         _______ _______ _______ _____ _____    ______ ____
ROOT
ATOM      1  C   UNL     1       2.377   7.810  18.407  0.00  0.00    +0.000 A 
ATOM      2  C   UNL     1       1.860   7.917  19.691  0.00  0.00    +0.000 A 
ATOM      3  C   UNL     1       1.119   9.047  20.059  0.00  0.00    +0.000 A 
ATOM      4  C   UNL     1       0.520   9.135  21.434  0.00  0.00    +0.000 C 
ATOM      5  C   UNL     1       0.912  10.048  19.110  0.00  0.00    +0.000 A 
ATOM      6  N   UNL     1       0.184  11.195  19.475  0.00  0.00    +0.000 N 
ATOM      7  N   UNL     1       1.447   9.923  17.877  0.00  0.00    +0.000 NA
ATOM      8  N   UNL     1       2.187   8.809  17.524  0.00  0.00    +0.000 NA
ATOM      9  H   UNL     1       0.799  11.792  20.023  0.00  0.00    +0.000 HD
ENDROOT
BRANCH   1  14
ATOM     10  C   UNL     1       5.054   5.617  16.836  0.00  0.00    +0.000 A 
ATOM     11  C   UNL     1       4.496   4.352  16.999  0.00  0.00    +0.000 A 
ATOM     12  C   UNL     1       3.254   4.204  17.617  0.00  0.00    +0.000 A 
ATOM     13  C   UNL     1       2.563   5.329  18.078  0.00  0.00    +0.000 A 
ATOM     14  C   UNL     1       3.097   6.618  17.920  0.00  0.00    +0.000 A 
ATOM     15  C   UNL     1       4.357   6.741  17.298  0.00  0.00    +0.000 A 
BRANCH  10  17
ATOM     16  C   UNL     1       7.196   4.614  16.575  0.00  0.00    +0.000 C 
ATOM     17  O   UNL     1       6.273   5.636  16.216  0.00  0.00    +0.000 OA
ENDBRANCH  10  17
ENDBRANCH   1  14
BRANCH   6  18
ATOM     18  C   UNL     1      -0.446  11.913  18.363  0.00  0.00    +0.000 C 
BRANCH  18  19
ATOM     19  C   UNL     1      -1.988  11.849  18.515  0.00  0.00    +0.000 C 
BRANCH  19  20
ATOM     20  N   UNL     1      -2.608  10.552  18.174  0.00  0.00    +0.000 NA
ATOM     21  C   UNL     1      -2.100  10.053  16.871  0.00  0.00    +0.000 C 
ATOM     22  C   UNL     1      -2.664  10.783  15.635  0.00  0.00    +0.000 C 
ATOM     23  O   UNL     1      -4.098  10.835  15.644  0.00  0.00    +0.000 OA
ATOM     24  C   UNL     1      -4.580  11.423  16.859  0.00  0.00    +0.000 C 
ATOM     25  C   UNL     1      -4.086  10.629  18.077  0.00  0.00    +0.000 C 
ENDBRANCH  19  20
ENDBRANCH  18  19
ENDBRANCH   6  18
TORSDOF 5
ENDMDL
MODEL 3
REMARK VINA RESULT:      -7.4      3.119      8.459
REMARK  Name = 
REMARK  7 active torsions:
REMARK  status: ('A' for Active; 'I' for Inactive)
REMARK    1  A    between atoms: C_1  and  O_2
REMARK    2  A    between atoms: O_2  and  C_3
REMARK    3  A    between atoms: C_7  and  C_8
REMARK    4  A    between atoms: C_10  and  C_11
REMARK    5  A    between atoms: N_13  and  C_14
REMARK    6  A    between atoms: C_14  and  C_15
REMARK    7  A    between atoms: C_15  and  N_16
REMARK                            x       y       z     vdW  Elec       q    Type
REMARK                         _______ _______ _______ _____ _____    ______ ____
ROOT
ATOM      1  C   UNL     1       1.701   7.321  20.193  0.00  0.00    +0.000 A 
ATOM      2  C   UNL     1       1.527   6.174  20.955  0.00  0.00    +0.000 A 
ATOM      3  C   UNL     1       2.191   4.991  20.606  0.00  0.00    +0.000 A 
ATOM      4  C   UNL     1       2.039   3.766  21.463  0.00  0.00    +0.000 C 
ATOM      5  C   UNL     1       3.026   4.998  19.488  0.00  0.00    +0.000 A 
ATOM      6  N   UNL     1       3.683   3.810  19.119  0.00  0.00    +0.000 N 
ATOM      7  N   UNL     1       3.155   6.125  18.756  0.00  0.00    +0.000 NA
ATOM      8  N   UNL     1       2.489   7.286  19.100  0.00  0.00    +0.000 NA
ATOM      9  H   UNL     1       3.005   3.211  18.654  0.00  0.00    +0.000 HD
ENDROOT
BRANCH   1  14
ATOM     10  C   UNL     1       0.359  10.863  19.878  0.00  0.00    +0.000 A 
ATOM     11  C   UNL     1      -0.056  11.111  21.183  0.00  0.00    +0.000 A 
ATOM     12  C   UNL     1       0.097  10.136  22.168  0.00  0.00    +0.000 A 
ATOM     13  C   UNL     1       0.667   8.900  21.847  0.00  0.00    +0.000 A 
ATOM     14  C   UNL     1       1.102   8.624  20.541  0.00  0.00    +0.000 A 
ATOM     15  C   UNL     1       0.931   9.624  19.562  0.00  0.00    +0.000 A 
BRANCH  10  17
ATOM     16  C   UNL     1      -1.178  12.127  18.573  0.00  0.00    +0.000 C 
ATOM     17  O   UNL     1       0.160  11.894  19.001  0.00  0.00    +0.000 OA
ENDBRANCH  10  17
ENDBRANCH   1  14
BRANCH   6  18
ATOM     18  C   UNL     1       4.903   3.993  18.328  0.00  0.00    +0.000 C 
BRANCH  18  19
ATOM     19  C   UNL     1       5.889   4.905  19.102  0.00  0.00    +0.000 C 
BRANCH  19  20
ATOM     20  N   UNL     1       7.291   4.862  18.642  0.00  0.00    +0.000 NA
ATOM     21  C   UNL     1       7.950   6.178  18.836  0.00  0.00    +0.000 C 
ATOM     22  C   UNL     1       7.528   7.266  17.826  0.00  0.00    +0.000 C 
ATOM     23  O   UNL     1       7.651   6.821  16.467  0.00  0.00    +0.000 OA
ATOM     24  C   UNL     1       6.919   5.608  16.258  0.00  0.00    +0.000 C 
ATOM     25  C   UNL     1       7.416   4.506  17.208  0.00  0.00    +0.000 C 
ENDBRANCH  19  20
ENDBRANCH  18  19
ENDBRANCH   6  18
TORSDOF 5
ENDMDL
MODEL 4
REMARK VINA RESULT:      -7.4      3.624      8.260
REMARK  Name = 
REMARK  7 active torsions:
REMARK  status: ('A' for Active; 'I' for Inactive)
REMARK    1  A    between atoms: C_1  and  O_2
REMARK    2  A    between atoms: O_2  and  C_3
REMARK    3  A    between atoms: C_7  and  C_8
REMARK    4  A    between atoms: C_10  and  C_11
REMARK    5  A    between atoms: N_13  and  C_14
REMARK    6  A    between atoms: C_14  and  C_15
REMARK    7  A    between atoms: C_15  and  N_16
REMARK                            x       y       z     vdW  Elec       q    Type
REMARK                         _______ _______ _______ _____ _____    ______ ____
ROOT
ATOM      1  C   UNL     1       1.745   7.443  20.126  0.00  0.00    +0.000 A 
ATOM      2  C   UNL     1       1.469   6.284  20.839  0.00  0.00    +0.000 A 
ATOM      3  C   UNL     1       2.155   5.098  20.546  0.00  0.00    +0.000 A 
ATOM      4  C   UNL     1       1.889   3.860  21.354  0.00  0.00    +0.000 C 
ATOM      5  C   UNL     1       3.114   5.114  19.533  0.00  0.00    +0.000 A 
ATOM      6  N   UNL     1       3.795   3.924  19.220  0.00  0.00    +0.000 N 
ATOM      7  N   UNL     1       3.342   6.253  18.845  0.00  0.00    +0.000 NA
ATOM      8  N   UNL     1       2.654   7.417  19.132  0.00  0.00    +0.000 NA
ATOM      9  H   UNL     1       3.169   3.343  18.667  0.00  0.00    +0.000 HD
ENDROOT
BRANCH   1  14
ATOM     10  C   UNL     1       0.091  10.285  22.031  0.00  0.00    +0.000 A 
ATOM     11  C   UNL     1      -0.045  11.239  21.027  0.00  0.00    +0.000 A 
ATOM     12  C   UNL     1       0.397  10.968  19.733  0.00  0.00    +0.000 A 
ATOM     13  C   UNL     1       0.982   9.733  19.437  0.00  0.00    +0.000 A 
ATOM     14  C   UNL     1       1.125   8.747  20.428  0.00  0.00    +0.000 A 
ATOM     15  C   UNL     1       0.676   9.048  21.730  0.00  0.00    +0.000 A 
BRANCH  10  17
ATOM     16  C   UNL     1      -1.641  11.324  23.290  0.00  0.00    +0.000 C 
ATOM     17  O   UNL     1      -0.380  10.664  23.258  0.00  0.00    +0.000 OA
ENDBRANCH  10  17
ENDBRANCH   1  14
BRANCH   6  18
ATOM     18  C   UNL     1       5.102   4.104  18.580  0.00  0.00    +0.000 C 
BRANCH  18  19
ATOM     19  C   UNL     1       4.992   3.749  17.075  0.00  0.00    +0.000 C 
BRANCH  19  20
ATOM     20  N   UNL     1       4.884   4.900  16.156  0.00  0.00    +0.000 NA
ATOM     21  C   UNL     1       5.314   4.523  14.786  0.00  0.00    +0.000 C 
ATOM     22  C   UNL     1       6.839   4.370  14.607  0.00  0.00    +0.000 C 
ATOM     23  O   UNL     1       7.558   5.520  15.074  0.00  0.00    +0.000 OA
ATOM     24  C   UNL     1       7.222   5.813  16.436  0.00  0.00    +0.000 C 
ATOM     25  C   UNL     1       5.712   6.055  16.581  0.00  0.00    +0.000 C 
ENDBRANCH  19  20
ENDBRANCH  18  19
ENDBRANCH   6  18
TORSDOF 5
ENDMDL
MODEL 5
REMARK VINA RESULT:      -7.3      3.655      8.139
REMARK  Name = 
REMARK  7 active torsions:
REMARK  status: ('A' for Active; 'I' for Inactive)
REMARK    1  A    between atoms: C_1  and  O_2
REMARK    2  A    between atoms: O_2  and  C_3
REMARK    3  A    between atoms: C_7  and  C_8
REMARK    4  A    between atoms: C_10  and  C_11
REMARK    5  A    between atoms: N_13  and  C_14
REMARK    6  A    between atoms: C_14  and  C_15
REMARK    7  A    between atoms: C_15  and  N_16
REMARK                            x       y       z     vdW  Elec       q    Type
REMARK                         _______ _______ _______ _____ _____    ______ ____
ROOT
ATOM      1  C   UNL     1       1.840   7.250  20.113  0.00  0.00    +0.000 A 
ATOM      2  C   UNL     1       1.598   6.119  20.879  0.00  0.00    +0.000 A 
ATOM      3  C   UNL     1       2.277   4.925  20.604  0.00  0.00    +0.000 A 
ATOM      4  C   UNL     1       2.049   3.717  21.468  0.00  0.00    +0.000 C 
ATOM      5  C   UNL     1       3.195   4.906  19.554  0.00  0.00    +0.000 A 
ATOM      6  N   UNL     1       3.869   3.706  19.258  0.00  0.00    +0.000 N 
ATOM      7  N   UNL     1       3.390   6.018  18.814  0.00  0.00    +0.000 NA
ATOM      8  N   UNL     1       2.709   7.190  19.085  0.00  0.00    +0.000 NA
ATOM      9  H   UNL     1       3.224   3.103  18.752  0.00  0.00    +0.000 HD
ENDROOT
BRANCH   1  14
ATOM     10  C   UNL     1       0.199  10.135  21.964  0.00  0.00    +0.000 A 
ATOM     11  C   UNL     1       0.068  11.072  20.943  0.00  0.00    +0.000 A 
ATOM     12  C   UNL     1       0.510  10.774  19.654  0.00  0.00    +0.000 A 
ATOM     13  C   UNL     1       1.088   9.531  19.381  0.00  0.00    +0.000 A 
ATOM     14  C   UNL     1       1.227   8.563  20.390  0.00  0.00    +0.000 A 
ATOM     15  C   UNL     1       0.778   8.891  21.686  0.00  0.00    +0.000 A 
BRANCH  10  17
ATOM     16  C   UNL     1      -1.420  11.379  23.187  0.00  0.00    +0.000 C 
ATOM     17  O   UNL     1      -0.270  10.540  23.184  0.00  0.00    +0.000 OA
ENDBRANCH  10  17
ENDBRANCH   1  14
BRANCH   6  18
ATOM     18  C   UNL     1       5.148   3.866  18.560  0.00  0.00    +0.000 C 
BRANCH  18  19
ATOM     19  C   UNL     1       4.934   3.667  17.038  0.00  0.00    +0.000 C 
BRANCH  19  20
ATOM     20  N   UNL     1       6.046   4.114  16.175  0.00  0.00    +0.000 NA
ATOM     21  C   UNL     1       7.109   4.766  16.981  0.00  0.00    +0.000 C 
ATOM     22  C   UNL     1       6.764   6.185  17.476  0.00  0.00    +0.000 C 
ATOM     23  O   UNL     1       6.328   7.040  16.409  0.00  0.00    +0.000 OA
ATOM     24  C   UNL     1       5.226   6.456  15.704  0.00  0.00    +0.000 C 
ATOM     25  C   UNL     1       5.615   5.082  15.137  0.00  0.00    +0.000 C 
ENDBRANCH  19  20
ENDBRANCH  18  19
ENDBRANCH   6  18
TORSDOF 5
ENDMDL
MODEL 6
REMARK VINA RESULT:      -7.3      1.284      1.334
REMARK  Name = 
REMARK  7 active torsions:
REMARK  status: ('A' for Active; 'I' for Inactive)
REMARK    1  A    between atoms: C_1  and  O_2
REMARK    2  A    between atoms: O_2  and  C_3
REMARK    3  A    between atoms: C_7  and  C_8
REMARK    4  A    between atoms: C_10  and  C_11
REMARK    5  A    between atoms: N_13  and  C_14
REMARK    6  A    between atoms: C_14  and  C_15
REMARK    7  A    between atoms: C_15  and  N_16
REMARK                            x       y       z     vdW  Elec       q    Type
REMARK                         _______ _______ _______ _____ _____    ______ ____
ROOT
ATOM      1  C   UNL     1       2.091   7.656  19.452  0.00  0.00    +0.000 A 
ATOM      2  C   UNL     1       1.408   7.934  20.627  0.00  0.00    +0.000 A 
ATOM      3  C   UNL     1       0.680   9.125  20.752  0.00  0.00    +0.000 A 
ATOM      4  C   UNL     1      -0.099   9.398  22.007  0.00  0.00    +0.000 C 
ATOM      5  C   UNL     1       0.657  10.010  19.674  0.00  0.00    +0.000 A 
ATOM      6  N   UNL     1      -0.057  11.216  19.797  0.00  0.00    +0.000 N 
ATOM      7  N   UNL     1       1.351   9.718  18.554  0.00  0.00    +0.000 NA
ATOM      8  N   UNL     1       2.075   8.546  18.441  0.00  0.00    +0.000 NA
ATOM      9  H   UNL     1       0.505  11.854  20.355  0.00  0.00    +0.000 HD
ENDROOT
BRANCH   1  14
ATOM     10  C   UNL     1       3.197   4.033  19.759  0.00  0.00    +0.000 A 
ATOM     11  C   UNL     1       4.165   3.961  18.762  0.00  0.00    +0.000 A 
ATOM     12  C   UNL     1       4.463   5.082  17.988  0.00  0.00    +0.000 A 
ATOM     13  C   UNL     1       3.788   6.286  18.209  0.00  0.00    +0.000 A 
ATOM     14  C   UNL     1       2.812   6.390  19.214  0.00  0.00    +0.000 A 
ATOM     15  C   UNL     1       2.524   5.242  19.979  0.00  0.00    +0.000 A 
BRANCH  10  17
ATOM     16  C   UNL     1       2.224   2.960  21.647  0.00  0.00    +0.000 C 
ATOM     17  O   UNL     1       2.993   2.871  20.453  0.00  0.00    +0.000 OA
ENDBRANCH  10  17
ENDBRANCH   1  14
BRANCH   6  18
ATOM     18  C   UNL     1      -0.490  11.814  18.531  0.00  0.00    +0.000 C 
BRANCH  18  19
ATOM     19  C   UNL     1      -2.040  11.861  18.485  0.00  0.00    +0.000 C 
BRANCH  19  20
ATOM     20  N   UNL     1      -2.705  10.582  18.163  0.00  0.00    +0.000 NA
ATOM     21  C   UNL     1      -2.185  10.024  16.889  0.00  0.00    +0.000 C 
ATOM     22  C   UNL     1      -2.683  10.742  15.618  0.00  0.00    +0.000 C 
ATOM     23  O   UNL     1      -4.114  10.855  15.586  0.00  0.00    +0.000 OA
ATOM     24  C   UNL     1      -4.602  11.498  16.770  0.00  0.00    +0.000 C 
ATOM     25  C   UNL     1      -4.175  10.718  18.023  0.00  0.00    +0.000 C 
ENDBRANCH  19  20
ENDBRANCH  18  19
ENDBRANCH   6  18
TORSDOF 5
ENDMDL
MODEL 7
REMARK VINA RESULT:      -7.2      3.552      8.267
REMARK  Name = 
REMARK  7 active torsions:
REMARK  status: ('A' for Active; 'I' for Inactive)
REMARK    1  A    between atoms: C_1  and  O_2
REMARK    2  A    between atoms: O_2  and  C_3
REMARK    3  A    between atoms: C_7  and  C_8
REMARK    4  A    between atoms: C_10  and  C_11
REMARK    5  A    between atoms: N_13  and  C_14
REMARK    6  A    between atoms: C_14  and  C_15
REMARK    7  A    between atoms: C_15  and  N_16
REMARK                            x       y       z     vdW  Elec       q    Type
REMARK                         _______ _______ _______ _____ _____    ______ ____
ROOT
ATOM      1  C   UNL     1       1.600   7.339  20.461  0.00  0.00    +0.000 A 
ATOM      2  C   UNL     1       1.256   6.100  20.983  0.00  0.00    +0.000 A 
ATOM      3  C   UNL     1       1.936   4.948  20.566  0.00  0.00    +0.000 A 
ATOM      4  C   UNL     1       1.595   3.617  21.172  0.00  0.00    +0.000 C 
ATOM      5  C   UNL     1       2.958   5.080  19.626  0.00  0.00    +0.000 A 
ATOM      6  N   UNL     1       3.635   3.927  19.188  0.00  0.00    +0.000 N 
ATOM      7  N   UNL     1       3.251   6.297  19.122  0.00  0.00    +0.000 NA
ATOM      8  N   UNL     1       2.570   7.428  19.530  0.00  0.00    +0.000 NA
ATOM      9  H   UNL     1       3.034   3.448  18.521  0.00  0.00    +0.000 HD
ENDROOT
BRANCH   1  14
ATOM     10  C   UNL     1       0.373  10.937  20.470  0.00  0.00    +0.000 A 
ATOM     11  C   UNL     1      -0.193  11.026  21.738  0.00  0.00    +0.000 A 
ATOM     12  C   UNL     1      -0.180   9.925  22.594  0.00  0.00    +0.000 A 
ATOM     13  C   UNL     1       0.402   8.722  22.180  0.00  0.00    +0.000 A 
ATOM     14  C   UNL     1       0.987   8.605  20.908  0.00  0.00    +0.000 A 
ATOM     15  C   UNL     1       0.956   9.731  20.059  0.00  0.00    +0.000 A 
BRANCH  10  17
ATOM     16  C   UNL     1       1.371  12.327  18.816  0.00  0.00    +0.000 C 
ATOM     17  O   UNL     1       0.302  12.080  19.722  0.00  0.00    +0.000 OA
ENDBRANCH  10  17
ENDBRANCH   1  14
BRANCH   6  18
ATOM     18  C   UNL     1       4.983   4.158  18.660  0.00  0.00    +0.000 C 
BRANCH  18  19
ATOM     19  C   UNL     1       4.993   3.886  17.134  0.00  0.00    +0.000 C 
BRANCH  19  20
ATOM     20  N   UNL     1       4.920   5.084  16.273  0.00  0.00    +0.000 NA
ATOM     21  C   UNL     1       5.450   4.791  14.917  0.00  0.00    +0.000 C 
ATOM     22  C   UNL     1       6.986   4.679  14.835  0.00  0.00    +0.000 C 
ATOM     23  O   UNL     1       7.644   5.816  15.412  0.00  0.00    +0.000 OA
ATOM     24  C   UNL     1       7.212   6.026  16.761  0.00  0.00    +0.000 C 
ATOM     25  C   UNL     1       5.690   6.230  16.816  0.00  0.00    +0.000 C 
ENDBRANCH  19  20
ENDBRANCH  18  19
ENDBRANCH   6  18
TORSDOF 5
ENDMDL
MODEL 8
REMARK VINA RESULT:      -7.2      3.596      8.444
REMARK  Name = 
REMARK  7 active torsions:
REMARK  status: ('A' for Active; 'I' for Inactive)
REMARK    1  A    between atoms: C_1  and  O_2
REMARK    2  A    between atoms: O_2  and  C_3
REMARK    3  A    between atoms: C_7  and  C_8
REMARK    4  A    between atoms: C_10  and  C_11
REMARK    5  A    between atoms: N_13  and  C_14
REMARK    6  A    between atoms: C_14  and  C_15
REMARK    7  A    between atoms: C_15  and  N_16
REMARK                            x       y       z     vdW  Elec       q    Type
REMARK                         _______ _______ _______ _____ _____    ______ ____
ROOT
ATOM      1  C   UNL     1       1.838   7.573  19.735  0.00  0.00    +0.000 A 
ATOM      2  C   UNL     1       1.566   6.508  20.582  0.00  0.00    +0.000 A 
ATOM      3  C   UNL     1       2.207   5.277  20.391  0.00  0.00    +0.000 A 
ATOM      4  C   UNL     1       1.946   4.142  21.341  0.00  0.00    +0.000 C 
ATOM      5  C   UNL     1       3.119   5.154  19.343  0.00  0.00    +0.000 A 
ATOM      6  N   UNL     1       3.755   3.916  19.133  0.00  0.00    +0.000 N 
ATOM      7  N   UNL     1       3.344   6.203  18.525  0.00  0.00    +0.000 NA
ATOM      8  N   UNL     1       2.701   7.412  18.712  0.00  0.00    +0.000 NA
ATOM      9  H   UNL     1       3.089   3.299  18.674  0.00  0.00    +0.000 HD
ENDROOT
BRANCH   1  14
ATOM     10  C   UNL     1       0.268  10.623  21.372  0.00  0.00    +0.000 A 
ATOM     11  C   UNL     1       0.187  11.497  20.292  0.00  0.00    +0.000 A 
ATOM     12  C   UNL     1       0.639  11.104  19.032  0.00  0.00    +0.000 A 
ATOM     13  C   UNL     1       1.179   9.827  18.849  0.00  0.00    +0.000 A 
ATOM     14  C   UNL     1       1.267   8.921  19.918  0.00  0.00    +0.000 A 
ATOM     15  C   UNL     1       0.808   9.344  21.183  0.00  0.00    +0.000 A 
BRANCH  10  17
ATOM     16  C   UNL     1      -0.774  12.424  22.526  0.00  0.00    +0.000 C 
ATOM     17  O   UNL     1      -0.207  11.118  22.555  0.00  0.00    +0.000 OA
ENDBRANCH  10  17
ENDBRANCH   1  14
BRANCH   6  18
ATOM     18  C   UNL     1       5.035   3.986  18.422  0.00  0.00    +0.000 C 
BRANCH  18  19
ATOM     19  C   UNL     1       5.980   4.972  19.157  0.00  0.00    +0.000 C 
BRANCH  19  20
ATOM     20  N   UNL     1       7.383   4.972  18.695  0.00  0.00    +0.000 NA
ATOM     21  C   UNL     1       7.964   6.335  18.778  0.00  0.00    +0.000 C 
ATOM     22  C   UNL     1       7.479   7.311  17.686  0.00  0.00    +0.000 C 
ATOM     23  O   UNL     1       7.628   6.766  16.367  0.00  0.00    +0.000 OA
ATOM     24  C   UNL     1       6.967   5.499  16.260  0.00  0.00    +0.000 C 
ATOM     25  C   UNL     1       7.527   4.509  17.293  0.00  0.00    +0.000 C 
ENDBRANCH  19  20
ENDBRANCH  18  19
ENDBRANCH   6  18
TORSDOF 5
ENDMDL
MODEL 9
REMARK VINA RESULT:      -7.1      1.108      1.800
REMARK  Name = 
REMARK  7 active torsions:
REMARK  status: ('A' for Active; 'I' for Inactive)
REMARK    1  A    between atoms: C_1  and  O_2
REMARK    2  A    between atoms: O_2  and  C_3
REMARK    3  A    between atoms: C_7  and  C_8
REMARK    4  A    between atoms: C_10  and  C_11
REMARK    5  A    between atoms: N_13  and  C_14
REMARK    6  A    between atoms: C_14  and  C_15
REMARK    7  A    between atoms: C_15  and  N_16
REMARK                            x       y       z     vdW  Elec       q    Type
REMARK                         _______ _______ _______ _____ _____    ______ ____
ROOT
ATOM      1  C   UNL     1       2.212   7.443  19.298  0.00  0.00    +0.000 A 
ATOM      2  C   UNL     1       1.586   7.682  20.513  0.00  0.00    +0.000 A 
ATOM      3  C   UNL     1       0.841   8.853  20.702  0.00  0.00    +0.000 A 
ATOM      4  C   UNL     1       0.123   9.082  22.002  0.00  0.00    +0.000 C 
ATOM      5  C   UNL     1       0.743   9.760  19.647  0.00  0.00    +0.000 A 
ATOM      6  N   UNL     1       0.012  10.948  19.833  0.00  0.00    +0.000 N 
ATOM      7  N   UNL     1       1.383   9.508  18.486  0.00  0.00    +0.000 NA
ATOM      8  N   UNL     1       2.125   8.355  18.310  0.00  0.00    +0.000 NA
ATOM      9  H   UNL     1       0.589  11.586  20.376  0.00  0.00    +0.000 HD
ENDROOT
BRANCH   1  14
ATOM     10  C   UNL     1       4.319   4.864  17.466  0.00  0.00    +0.000 A 
ATOM     11  C   UNL     1       4.365   3.838  18.405  0.00  0.00    +0.000 A 
ATOM     12  C   UNL     1       3.717   3.976  19.632  0.00  0.00    +0.000 A 
ATOM     13  C   UNL     1       3.017   5.150  19.926  0.00  0.00    +0.000 A 
ATOM     14  C   UNL     1       2.946   6.199  18.995  0.00  0.00    +0.000 A 
ATOM     15  C   UNL     1       3.614   6.038  17.764  0.00  0.00    +0.000 A 
BRANCH  10  17
ATOM     16  C   UNL     1       5.477   5.742  15.582  0.00  0.00    +0.000 C 
ATOM     17  O   UNL     1       4.990   4.614  16.300  0.00  0.00    +0.000 OA
ENDBRANCH  10  17
ENDBRANCH   1  14
BRANCH   6  18
ATOM     18  C   UNL     1      -0.499  11.563  18.605  0.00  0.00    +0.000 C 
BRANCH  18  19
ATOM     19  C   UNL     1      -2.050  11.562  18.634  0.00  0.00    +0.000 C 
BRANCH  19  20
ATOM     20  N   UNL     1      -2.694  10.324  18.150  0.00  0.00    +0.000 NA
ATOM     21  C   UNL     1      -2.156   9.935  16.822  0.00  0.00    +0.000 C 
ATOM     22  C   UNL     1      -2.656  10.797  15.645  0.00  0.00    +0.000 C 
ATOM     23  O   UNL     1      -4.087  10.893  15.614  0.00  0.00    +0.000 OA
ATOM     24  C   UNL     1      -4.594  11.378  16.863  0.00  0.00    +0.000 C 
ATOM     25  C   UNL     1      -4.165  10.456  18.015  0.00  0.00    +0.000 C 
ENDBRANCH  19  20
ENDBRANCH  18  19
ENDBRANCH   6  18
TORSDOF 5
ENDMDL
