MODEL 1
REMARK VINA RESULT:      -7.1      0.000      0.000
REMARK  Name = 
REMARK  8 active torsions:
REMARK  status: ('A' for Active; 'I' for Inactive)
REMARK    1  A    between atoms: C_1  and  O_2
REMARK    2  A    between atoms: O_2  and  C_3
REMARK    3  A    between atoms: C_3  and  C_4
REMARK    4  A    between atoms: C_4  and  C_5
REMARK    5  A    between atoms: C_5  and  N_6
REMARK    6  A    between atoms: C_7  and  C_9
REMARK    7  A    between atoms: N_16  and  C_17
REMARK    8  A    between atoms: C_17  and  C_18
REMARK                            x       y       z     vdW  Elec       q    Type
REMARK                         _______ _______ _______ _____ _____    ______ ____
ROOT
ATOM      1  C   UNL     1       2.282   5.053  19.501  0.00  0.00    +0.000 C 
ATOM      2  C   UNL     1       1.770   4.811  20.942  0.00  0.00    +0.000 C 
ATOM      3  C   UNL     1       1.193   3.426  21.216  0.00  0.00    +0.000 C 
ATOM      4  C   UNL     1       2.210   2.300  21.111  0.00  0.00    +0.000 C 
ATOM      5  C   UNL     1       2.805   2.199  19.721  0.00  0.00    +0.000 C 
ATOM      6  C   UNL     1       3.955   3.168  19.570  0.00  0.00    +0.000 C 
ATOM      7  O   UNL     1       5.107   2.764  19.733  0.00  0.00    +0.000 OA
ATOM      8  N   UNL     1       3.648   4.497  19.274  0.00  0.00    +0.000 N 
ENDROOT
BRANCH   1  10
ATOM      9  N   UNL     1       1.952   7.351  20.387  0.00  0.00    +0.000 N 
ATOM     10  C   UNL     1       2.183   6.585  19.270  0.00  0.00    +0.000 C 
ATOM     11  O   UNL     1       2.190   7.076  18.137  0.00  0.00    +0.000 OA
ATOM     12  H   UNL     1       1.795   6.908  21.283  0.00  0.00    +0.000 HD
BRANCH   9  13
ATOM     13  C   UNL     1       1.700   8.779  20.274  0.00  0.00    +0.000 C 
BRANCH  13  14
ATOM     14  C   UNL     1       0.488   9.239  21.087  0.00  0.00    +0.000 C 
BRANCH  14  15
ATOM     15  C   UNL     1       0.320  10.754  21.078  0.00  0.00    +0.000 C 
BRANCH  15  17
ATOM     16  C   UNL     1      -0.784  10.270  23.101  0.00  0.00    +0.000 C 
ATOM     17  O   UNL     1       0.039  11.195  22.406  0.00  0.00    +0.000 OA
ENDBRANCH  15  17
ENDBRANCH  14  15
ENDBRANCH  13  14
ENDBRANCH   9  13
ENDBRANCH   1  10
BRANCH   8  18
ATOM     18  C   UNL     1       4.795   5.410  19.154  0.00  0.00    +0.000 C 
BRANCH  18  19
ATOM     19  C   UNL     1       5.581   5.333  17.854  0.00  0.00    +0.000 A 
ATOM     20  C   UNL     1       6.899   4.859  17.788  0.00  0.00    +0.000 A 
ATOM     21  C   UNL     1       7.545   4.717  16.558  0.00  0.00    +0.000 A 
ATOM     22  C   UNL     1       6.875   5.023  15.375  0.00  0.00    +0.000 A 
ATOM     23  C   UNL     1       5.563   5.486  15.422  0.00  0.00    +0.000 A 
ATOM     24  C   UNL     1       4.922   5.643  16.652  0.00  0.00    +0.000 A 
ENDBRANCH  18  19
ENDBRANCH   8  18
TORSDOF 7
ENDMDL
MODEL 2
REMARK VINA RESULT:      -6.9      2.646      5.887
REMARK  Name = 
REMARK  8 active torsions:
REMARK  status: ('A' for Active; 'I' for Inactive)
REMARK    1  A    between atoms: C_1  and  O_2
REMARK    2  A    between atoms: O_2  and  C_3
REMARK    3  A    between atoms: C_3  and  C_4
REMARK    4  A    between atoms: C_4  and  C_5
REMARK    5  A    between atoms: C_5  and  N_6
REMARK    6  A    between atoms: C_7  and  C_9
REMARK    7  A    between atoms: N_16  and  C_17
REMARK    8  A    between atoms: C_17  and  C_18
REMARK                            x       y       z     vdW  Elec       q    Type
REMARK                         _______ _______ _______ _____ _____    ______ ____
ROOT
ATOM      1  C   UNL     1       3.562   4.608  16.828  0.00  0.00    +0.000 C 
ATOM      2  C   UNL     1       4.648   3.505  16.777  0.00  0.00    +0.000 C 
ATOM      3  C   UNL     1       5.645   3.611  15.627  0.00  0.00    +0.000 C 
ATOM      4  C   UNL     1       6.532   4.845  15.687  0.00  0.00    +0.000 C 
ATOM      5  C   UNL     1       5.727   6.128  15.615  0.00  0.00    +0.000 C 
ATOM      6  C   UNL     1       5.215   6.505  16.986  0.00  0.00    +0.000 C 
ATOM      7  O   UNL     1       5.841   7.326  17.657  0.00  0.00    +0.000 OA
ATOM      8  N   UNL     1       4.055   5.875  17.440  0.00  0.00    +0.000 N 
ENDROOT
BRANCH   1  10
ATOM      9  N   UNL     1       2.635   2.878  18.352  0.00  0.00    +0.000 N 
ATOM     10  C   UNL     1       2.357   3.977  17.576  0.00  0.00    +0.000 C 
ATOM     11  O   UNL     1       1.199   4.364  17.391  0.00  0.00    +0.000 OA
ATOM     12  H   UNL     1       3.568   2.486  18.363  0.00  0.00    +0.000 HD
BRANCH   9  13
ATOM     13  C   UNL     1       1.567   2.121  18.985  0.00  0.00    +0.000 C 
BRANCH  13  14
ATOM     14  C   UNL     1       1.035   2.784  20.257  0.00  0.00    +0.000 C 
BRANCH  14  15
ATOM     15  C   UNL     1       1.694   2.238  21.519  0.00  0.00    +0.000 C 
BRANCH  15  17
ATOM     16  C   UNL     1       2.315   4.509  21.488  0.00  0.00    +0.000 C 
ATOM     17  O   UNL     1       2.222   3.329  22.272  0.00  0.00    +0.000 OA
ENDBRANCH  15  17
ENDBRANCH  14  15
ENDBRANCH  13  14
ENDBRANCH   9  13
ENDBRANCH   1  10
BRANCH   8  18
ATOM     18  C   UNL     1       3.601   6.257  18.787  0.00  0.00    +0.000 C 
BRANCH  18  19
ATOM     19  C   UNL     1       2.601   7.400  18.859  0.00  0.00    +0.000 A 
ATOM     20  C   UNL     1       1.935   7.757  20.041  0.00  0.00    +0.000 A 
ATOM     21  C   UNL     1       1.098   8.874  20.078  0.00  0.00    +0.000 A 
ATOM     22  C   UNL     1       0.933   9.664  18.942  0.00  0.00    +0.000 A 
ATOM     23  C   UNL     1       1.593   9.330  17.763  0.00  0.00    +0.000 A 
ATOM     24  C   UNL     1       2.417   8.204  17.721  0.00  0.00    +0.000 A 
ENDBRANCH  18  19
ENDBRANCH   8  18
TORSDOF 7
ENDMDL
MODEL 3
REMARK VINA RESULT:      -6.9      1.719      1.850
REMARK  Name = 
REMARK  8 active torsions:
REMARK  status: ('A' for Active; 'I' for Inactive)
REMARK    1  A    between atoms: C_1  and  O_2
REMARK    2  A    between atoms: O_2  and  C_3
REMARK    3  A    between atoms: C_3  and  C_4
REMARK    4  A    between atoms: C_4  and  C_5
REMARK    5  A    between atoms: C_5  and  N_6
REMARK    6  A    between atoms: C_7  and  C_9
REMARK    7  A    between atoms: N_16  and  C_17
REMARK    8  A    between atoms: C_17  and  C_18
REMARK                            x       y       z     vdW  Elec       q    Type
REMARK                         _______ _______ _______ _____ _____    ______ ____
ROOT
ATOM      1  C   UNL     1       2.259   5.193  19.475  0.00  0.00    +0.000 C 
ATOM      2  C   UNL     1       1.746   4.885  20.903  0.00  0.00    +0.000 C 
ATOM      3  C   UNL     1       1.087   3.522  21.090  0.00  0.00    +0.000 C 
ATOM      4  C   UNL     1       2.031   2.346  20.896  0.00  0.00    +0.000 C 
ATOM      5  C   UNL     1       2.606   2.304  19.494  0.00  0.00    +0.000 C 
ATOM      6  C   UNL     1       3.813   3.209  19.394  0.00  0.00    +0.000 C 
ATOM      7  O   UNL     1       4.939   2.725  19.514  0.00  0.00    +0.000 OA
ATOM      8  N   UNL     1       3.586   4.571  19.193  0.00  0.00    +0.000 N 
ENDROOT
BRANCH   1  10
ATOM      9  N   UNL     1       2.244   7.243  18.072  0.00  0.00    +0.000 N 
ATOM     10  C   UNL     1       2.253   6.741  19.350  0.00  0.00    +0.000 C 
ATOM     11  O   UNL     1       2.370   7.475  20.336  0.00  0.00    +0.000 OA
ATOM     12  H   UNL     1       2.305   6.618  17.279  0.00  0.00    +0.000 HD
BRANCH   9  13
ATOM     13  C   UNL     1       2.379   8.672  17.831  0.00  0.00    +0.000 C 
BRANCH  13  14
ATOM     14  C   UNL     1       1.041   9.414  17.861  0.00  0.00    +0.000 C 
BRANCH  14  15
ATOM     15  C   UNL     1       1.011  10.520  18.909  0.00  0.00    +0.000 C 
BRANCH  15  17
ATOM     16  C   UNL     1       1.869  12.656  19.408  0.00  0.00    +0.000 C 
ATOM     17  O   UNL     1       1.793  11.619  18.441  0.00  0.00    +0.000 OA
ENDBRANCH  15  17
ENDBRANCH  14  15
ENDBRANCH  13  14
ENDBRANCH   9  13
ENDBRANCH   1  10
BRANCH   8  18
ATOM     18  C   UNL     1       4.786   5.419  19.120  0.00  0.00    +0.000 C 
BRANCH  18  19
ATOM     19  C   UNL     1       5.576   5.352  17.823  0.00  0.00    +0.000 A 
ATOM     20  C   UNL     1       6.903   4.899  17.761  0.00  0.00    +0.000 A 
ATOM     21  C   UNL     1       7.554   4.766  16.533  0.00  0.00    +0.000 A 
ATOM     22  C   UNL     1       6.882   5.059  15.348  0.00  0.00    +0.000 A 
ATOM     23  C   UNL     1       5.563   5.501  15.390  0.00  0.00    +0.000 A 
ATOM     24  C   UNL     1       4.916   5.650  16.618  0.00  0.00    +0.000 A 
ENDBRANCH  18  19
ENDBRANCH   8  18
TORSDOF 7
ENDMDL
MODEL 4
REMARK VINA RESULT:      -6.9      2.869      6.075
REMARK  Name = 
REMARK  8 active torsions:
REMARK  status: ('A' for Active; 'I' for Inactive)
REMARK    1  A    between atoms: C_1  and  O_2
REMARK    2  A    between atoms: O_2  and  C_3
REMARK    3  A    between atoms: C_3  and  C_4
REMARK    4  A    between atoms: C_4  and  C_5
REMARK    5  A    between atoms: C_5  and  N_6
REMARK    6  A    between atoms: C_7  and  C_9
REMARK    7  A    between atoms: N_16  and  C_17
REMARK    8  A    between atoms: C_17  and  C_18
REMARK                            x       y       z     vdW  Elec       q    Type
REMARK                         _______ _______ _______ _____ _____    ______ ____
ROOT
ATOM      1  C   UNL     1       5.870   4.452  18.242  0.00  0.00    +0.000 C 
ATOM      2  C   UNL     1       6.470   5.251  19.425  0.00  0.00    +0.000 C 
ATOM      3  C   UNL     1       7.817   5.916  19.159  0.00  0.00    +0.000 C 
ATOM      4  C   UNL     1       7.771   7.010  18.105  0.00  0.00    +0.000 C 
ATOM      5  C   UNL     1       7.332   6.481  16.754  0.00  0.00    +0.000 C 
ATOM      6  C   UNL     1       5.824   6.427  16.676  0.00  0.00    +0.000 C 
ATOM      7  O   UNL     1       5.216   7.354  16.139  0.00  0.00    +0.000 OA
ATOM      8  N   UNL     1       5.185   5.325  17.246  0.00  0.00    +0.000 N 
ENDROOT
BRANCH   1  10
ATOM      9  N   UNL     1       4.193   2.634  18.011  0.00  0.00    +0.000 N 
ATOM     10  C   UNL     1       4.943   3.384  18.883  0.00  0.00    +0.000 C 
ATOM     11  O   UNL     1       4.798   3.295  20.106  0.00  0.00    +0.000 OA
ATOM     12  H   UNL     1       4.215   2.834  17.019  0.00  0.00    +0.000 HD
BRANCH   9  13
ATOM     13  C   UNL     1       3.187   1.704  18.500  0.00  0.00    +0.000 C 
BRANCH  13  14
ATOM     14  C   UNL     1       1.756   2.167  18.221  0.00  0.00    +0.000 C 
BRANCH  14  15
ATOM     15  C   UNL     1       1.101   2.807  19.439  0.00  0.00    +0.000 C 
BRANCH  15  17
ATOM     16  C   UNL     1       1.729   3.092  21.691  0.00  0.00    +0.000 C 
ATOM     17  O   UNL     1       1.599   2.173  20.617  0.00  0.00    +0.000 OA
ENDBRANCH  15  17
ENDBRANCH  14  15
ENDBRANCH  13  14
ENDBRANCH   9  13
ENDBRANCH   1  10
BRANCH   8  18
ATOM     18  C   UNL     1       3.715   5.321  17.164  0.00  0.00    +0.000 C 
BRANCH  18  19
ATOM     19  C   UNL     1       2.988   6.263  18.111  0.00  0.00    +0.000 A 
ATOM     20  C   UNL     1       2.772   5.965  19.464  0.00  0.00    +0.000 A 
ATOM     21  C   UNL     1       2.185   6.904  20.315  0.00  0.00    +0.000 A 
ATOM     22  C   UNL     1       1.826   8.160  19.832  0.00  0.00    +0.000 A 
ATOM     23  C   UNL     1       2.041   8.476  18.494  0.00  0.00    +0.000 A 
ATOM     24  C   UNL     1       2.614   7.533  17.639  0.00  0.00    +0.000 A 
ENDBRANCH  18  19
ENDBRANCH   8  18
TORSDOF 7
ENDMDL
MODEL 5
REMARK VINA RESULT:      -6.8      2.783      6.135
REMARK  Name = 
REMARK  8 active torsions:
REMARK  status: ('A' for Active; 'I' for Inactive)
REMARK    1  A    between atoms: C_1  and  O_2
REMARK    2  A    between atoms: O_2  and  C_3
REMARK    3  A    between atoms: C_3  and  C_4
REMARK    4  A    between atoms: C_4  and  C_5
REMARK    5  A    between atoms: C_5  and  N_6
REMARK    6  A    between atoms: C_7  and  C_9
REMARK    7  A    between atoms: N_16  and  C_17
REMARK    8  A    between atoms: C_17  and  C_18
REMARK                            x       y       z     vdW  Elec       q    Type
REMARK                         _______ _______ _______ _____ _____    ______ ____
ROOT
ATOM      1  C   UNL     1       5.919   4.516  18.223  0.00  0.00    +0.000 C 
ATOM      2  C   UNL     1       6.535   5.183  19.477  0.00  0.00    +0.000 C 
ATOM      3  C   UNL     1       7.909   5.817  19.282  0.00  0.00    +0.000 C 
ATOM      4  C   UNL     1       7.915   7.002  18.330  0.00  0.00    +0.000 C 
ATOM      5  C   UNL     1       7.472   6.612  16.933  0.00  0.00    +0.000 C 
ATOM      6  C   UNL     1       5.964   6.623  16.839  0.00  0.00    +0.000 C 
ATOM      7  O   UNL     1       5.397   7.617  16.383  0.00  0.00    +0.000 OA
ATOM      8  N   UNL     1       5.277   5.500  17.303  0.00  0.00    +0.000 N 
ENDROOT
BRANCH   1  10
ATOM      9  N   UNL     1       4.236   2.735  17.810  0.00  0.00    +0.000 N 
ATOM     10  C   UNL     1       4.946   3.431  18.758  0.00  0.00    +0.000 C 
ATOM     11  O   UNL     1       4.733   3.284  19.965  0.00  0.00    +0.000 OA
ATOM     12  H   UNL     1       4.315   2.983  16.832  0.00  0.00    +0.000 HD
BRANCH   9  13
ATOM     13  C   UNL     1       3.195   1.796  18.197  0.00  0.00    +0.000 C 
BRANCH  13  14
ATOM     14  C   UNL     1       1.800   2.427  18.228  0.00  0.00    +0.000 C 
BRANCH  14  15
ATOM     15  C   UNL     1       1.026   2.069  19.491  0.00  0.00    +0.000 C 
BRANCH  15  17
ATOM     16  C   UNL     1       1.647   2.987  21.569  0.00  0.00    +0.000 C 
ATOM     17  O   UNL     1       0.973   3.216  20.340  0.00  0.00    +0.000 OA
ENDBRANCH  15  17
ENDBRANCH  14  15
ENDBRANCH  13  14
ENDBRANCH   9  13
ENDBRANCH   1  10
BRANCH   8  18
ATOM     18  C   UNL     1       3.810   5.559  17.210  0.00  0.00    +0.000 C 
BRANCH  18  19
ATOM     19  C   UNL     1       3.116   6.520  18.162  0.00  0.00    +0.000 A 
ATOM     20  C   UNL     1       2.655   7.785  17.766  0.00  0.00    +0.000 A 
ATOM     21  C   UNL     1       1.938   8.592  18.653  0.00  0.00    +0.000 A 
ATOM     22  C   UNL     1       1.651   8.138  19.938  0.00  0.00    +0.000 A 
ATOM     23  C   UNL     1       2.093   6.882  20.345  0.00  0.00    +0.000 A 
ATOM     24  C   UNL     1       2.823   6.081  19.465  0.00  0.00    +0.000 A 
ENDBRANCH  18  19
ENDBRANCH   8  18
TORSDOF 7
ENDMDL
MODEL 6
REMARK VINA RESULT:      -6.8      0.961      1.279
REMARK  Name = 
REMARK  8 active torsions:
REMARK  status: ('A' for Active; 'I' for Inactive)
REMARK    1  A    between atoms: C_1  and  O_2
REMARK    2  A    between atoms: O_2  and  C_3
REMARK    3  A    between atoms: C_3  and  C_4
REMARK    4  A    between atoms: C_4  and  C_5
REMARK    5  A    between atoms: C_5  and  N_6
REMARK    6  A    between atoms: C_7  and  C_9
REMARK    7  A    between atoms: N_16  and  C_17
REMARK    8  A    between atoms: C_17  and  C_18
REMARK                            x       y       z     vdW  Elec       q    Type
REMARK                         _______ _______ _______ _____ _____    ______ ____
ROOT
ATOM      1  C   UNL     1       2.242   5.036  19.593  0.00  0.00    +0.000 C 
ATOM      2  C   UNL     1       1.741   4.675  21.013  0.00  0.00    +0.000 C 
ATOM      3  C   UNL     1       1.110   3.294  21.161  0.00  0.00    +0.000 C 
ATOM      4  C   UNL     1       2.076   2.144  20.927  0.00  0.00    +0.000 C 
ATOM      5  C   UNL     1       2.645   2.155  19.522  0.00  0.00    +0.000 C 
ATOM      6  C   UNL     1       3.833   3.086  19.445  0.00  0.00    +0.000 C 
ATOM      7  O   UNL     1       4.969   2.621  19.545  0.00  0.00    +0.000 OA
ATOM      8  N   UNL     1       3.579   4.449  19.287  0.00  0.00    +0.000 N 
ENDROOT
BRANCH   1  10
ATOM      9  N   UNL     1       1.904   7.243  20.683  0.00  0.00    +0.000 N 
ATOM     10  C   UNL     1       2.205   6.587  19.515  0.00  0.00    +0.000 C 
ATOM     11  O   UNL     1       2.321   7.189  18.444  0.00  0.00    +0.000 OA
ATOM     12  H   UNL     1       1.660   6.718  21.513  0.00  0.00    +0.000 HD
BRANCH   9  13
ATOM     13  C   UNL     1       1.702   8.684  20.699  0.00  0.00    +0.000 C 
BRANCH  13  14
ATOM     14  C   UNL     1       0.236   9.081  20.887  0.00  0.00    +0.000 C 
BRANCH  14  15
ATOM     15  C   UNL     1      -0.153  10.291  20.045  0.00  0.00    +0.000 C 
BRANCH  15  17
ATOM     16  C   UNL     1       0.949  12.028  18.899  0.00  0.00    +0.000 C 
ATOM     17  O   UNL     1       0.947  10.642  19.206  0.00  0.00    +0.000 OA
ENDBRANCH  15  17
ENDBRANCH  14  15
ENDBRANCH  13  14
ENDBRANCH   9  13
ENDBRANCH   1  10
BRANCH   8  18
ATOM     18  C   UNL     1       4.762   5.322  19.235  0.00  0.00    +0.000 C 
BRANCH  18  19
ATOM     19  C   UNL     1       5.551   5.306  17.935  0.00  0.00    +0.000 A 
ATOM     20  C   UNL     1       6.872   4.840  17.851  0.00  0.00    +0.000 A 
ATOM     21  C   UNL     1       7.520   4.755  16.616  0.00  0.00    +0.000 A 
ATOM     22  C   UNL     1       6.852   5.112  15.447  0.00  0.00    +0.000 A 
ATOM     23  C   UNL     1       5.538   5.568  15.511  0.00  0.00    +0.000 A 
ATOM     24  C   UNL     1       4.894   5.668  16.746  0.00  0.00    +0.000 A 
ENDBRANCH  18  19
ENDBRANCH   8  18
TORSDOF 7
ENDMDL
MODEL 7
REMARK VINA RESULT:      -6.8      1.461      1.933
REMARK  Name = 
REMARK  8 active torsions:
REMARK  status: ('A' for Active; 'I' for Inactive)
REMARK    1  A    between atoms: C_1  and  O_2
REMARK    2  A    between atoms: O_2  and  C_3
REMARK    3  A    between atoms: C_3  and  C_4
REMARK    4  A    between atoms: C_4  and  C_5
REMARK    5  A    between atoms: C_5  and  N_6
REMARK    6  A    between atoms: C_7  and  C_9
REMARK    7  A    between atoms: N_16  and  C_17
REMARK    8  A    between atoms: C_17  and  C_18
REMARK                            x       y       z     vdW  Elec       q    Type
REMARK                         _______ _______ _______ _____ _____    ______ ____
ROOT
ATOM      1  C   UNL     1       2.125   5.021  19.099  0.00  0.00    +0.000 C 
ATOM      2  C   UNL     1       1.107   4.312  20.026  0.00  0.00    +0.000 C 
ATOM      3  C   UNL     1       0.404   3.097  19.431  0.00  0.00    +0.000 C 
ATOM      4  C   UNL     1       1.332   1.931  19.127  0.00  0.00    +0.000 C 
ATOM      5  C   UNL     1       2.392   2.299  18.107  0.00  0.00    +0.000 C 
ATOM      6  C   UNL     1       3.562   2.973  18.785  0.00  0.00    +0.000 C 
ATOM      7  O   UNL     1       4.552   2.305  19.082  0.00  0.00    +0.000 OA
ATOM      8  N   UNL     1       3.449   4.336  19.067  0.00  0.00    +0.000 N 
ENDROOT
BRANCH   1  10
ATOM      9  N   UNL     1       1.703   6.727  20.855  0.00  0.00    +0.000 N 
ATOM     10  C   UNL     1       2.191   6.491  19.594  0.00  0.00    +0.000 C 
ATOM     11  O   UNL     1       2.550   7.413  18.854  0.00  0.00    +0.000 OA
ATOM     12  H   UNL     1       1.271   5.979  21.382  0.00  0.00    +0.000 HD
BRANCH   9  13
ATOM     13  C   UNL     1       1.584   8.084  21.368  0.00  0.00    +0.000 C 
BRANCH  13  14
ATOM     14  C   UNL     1       0.146   8.608  21.347  0.00  0.00    +0.000 C 
BRANCH  14  15
ATOM     15  C   UNL     1       0.080  10.130  21.329  0.00  0.00    +0.000 C 
BRANCH  15  17
ATOM     16  C   UNL     1      -1.235  11.347  19.800  0.00  0.00    +0.000 C 
ATOM     17  O   UNL     1      -0.061  10.569  19.978  0.00  0.00    +0.000 OA
ENDBRANCH  15  17
ENDBRANCH  14  15
ENDBRANCH  13  14
ENDBRANCH   9  13
ENDBRANCH   1  10
BRANCH   8  18
ATOM     18  C   UNL     1       4.603   4.949  19.744  0.00  0.00    +0.000 C 
BRANCH  18  19
ATOM     19  C   UNL     1       5.641   5.600  18.842  0.00  0.00    +0.000 A 
ATOM     20  C   UNL     1       5.322   6.171  17.601  0.00  0.00    +0.000 A 
ATOM     21  C   UNL     1       6.294   6.841  16.855  0.00  0.00    +0.000 A 
ATOM     22  C   UNL     1       7.590   6.971  17.347  0.00  0.00    +0.000 A 
ATOM     23  C   UNL     1       7.922   6.418  18.581  0.00  0.00    +0.000 A 
ATOM     24  C   UNL     1       6.956   5.734  19.321  0.00  0.00    +0.000 A 
ENDBRANCH  18  19
ENDBRANCH   8  18
TORSDOF 7
ENDMDL
MODEL 8
REMARK VINA RESULT:      -6.8      0.792      1.013
REMARK  Name = 
REMARK  8 active torsions:
REMARK  status: ('A' for Active; 'I' for Inactive)
REMARK    1  A    between atoms: C_1  and  O_2
REMARK    2  A    between atoms: O_2  and  C_3
REMARK    3  A    between atoms: C_3  and  C_4
REMARK    4  A    between atoms: C_4  and  C_5
REMARK    5  A    between atoms: C_5  and  N_6
REMARK    6  A    between atoms: C_7  and  C_9
REMARK    7  A    between atoms: N_16  and  C_17
REMARK    8  A    between atoms: C_17  and  C_18
REMARK                            x       y       z     vdW  Elec       q    Type
REMARK                         _______ _______ _______ _____ _____    ______ ____
ROOT
ATOM      1  C   UNL     1       2.341   4.953  19.299  0.00  0.00    +0.000 C 
ATOM      2  C   UNL     1       1.689   4.887  20.702  0.00  0.00    +0.000 C 
ATOM      3  C   UNL     1       0.976   3.582  21.040  0.00  0.00    +0.000 C 
ATOM      4  C   UNL     1       1.898   2.376  21.127  0.00  0.00    +0.000 C 
ATOM      5  C   UNL     1       2.599   2.100  19.811  0.00  0.00    +0.000 C 
ATOM      6  C   UNL     1       3.836   2.959  19.685  0.00  0.00    +0.000 C 
ATOM      7  O   UNL     1       4.931   2.485  19.987  0.00  0.00    +0.000 OA
ATOM      8  N   UNL     1       3.669   4.274  19.248  0.00  0.00    +0.000 N 
ENDROOT
BRANCH   1  10
ATOM      9  N   UNL     1       1.997   7.336  19.909  0.00  0.00    +0.000 N 
ATOM     10  C   UNL     1       2.392   6.460  18.928  0.00  0.00    +0.000 C 
ATOM     11  O   UNL     1       2.657   6.841  17.784  0.00  0.00    +0.000 OA
ATOM     12  H   UNL     1       1.637   6.988  20.788  0.00  0.00    +0.000 HD
BRANCH   9  13
ATOM     13  C   UNL     1       1.869   8.759  19.631  0.00  0.00    +0.000 C 
BRANCH  13  14
ATOM     14  C   UNL     1       0.572   9.361  20.177  0.00  0.00    +0.000 C 
BRANCH  14  15
ATOM     15  C   UNL     1       0.826  10.477  21.184  0.00  0.00    +0.000 C 
BRANCH  15  17
ATOM     16  C   UNL     1      -0.056   9.530  23.152  0.00  0.00    +0.000 C 
ATOM     17  O   UNL     1       1.124   9.894  22.453  0.00  0.00    +0.000 OA
ENDBRANCH  15  17
ENDBRANCH  14  15
ENDBRANCH  13  14
ENDBRANCH   9  13
ENDBRANCH   1  10
BRANCH   8  18
ATOM     18  C   UNL     1       4.895   5.081  19.156  0.00  0.00    +0.000 C 
BRANCH  18  19
ATOM     19  C   UNL     1       5.637   5.025  17.829  0.00  0.00    +0.000 A 
ATOM     20  C   UNL     1       5.269   4.162  16.787  0.00  0.00    +0.000 A 
ATOM     21  C   UNL     1       5.922   4.216  15.553  0.00  0.00    +0.000 A 
ATOM     22  C   UNL     1       6.935   5.147  15.336  0.00  0.00    +0.000 A 
ATOM     23  C   UNL     1       7.307   6.018  16.357  0.00  0.00    +0.000 A 
ATOM     24  C   UNL     1       6.666   5.954  17.596  0.00  0.00    +0.000 A 
ENDBRANCH  18  19
ENDBRANCH   8  18
TORSDOF 7
ENDMDL
MODEL 9
REMARK VINA RESULT:      -6.8      1.366      1.834
REMARK  Name = 
REMARK  8 active torsions:
REMARK  status: ('A' for Active; 'I' for Inactive)
REMARK    1  A    between atoms: C_1  and  O_2
REMARK    2  A    between atoms: O_2  and  C_3
REMARK    3  A    between atoms: C_3  and  C_4
REMARK    4  A    between atoms: C_4  and  C_5
REMARK    5  A    between atoms: C_5  and  N_6
REMARK    6  A    between atoms: C_7  and  C_9
REMARK    7  A    between atoms: N_16  and  C_17
REMARK    8  A    between atoms: C_17  and  C_18
REMARK                            x       y       z     vdW  Elec       q    Type
REMARK                         _______ _______ _______ _____ _____    ______ ____
ROOT
ATOM      1  C   UNL     1       2.235   5.092  19.480  0.00  0.00    +0.000 C 
ATOM      2  C   UNL     1       1.761   4.847  20.934  0.00  0.00    +0.000 C 
ATOM      3  C   UNL     1       1.061   3.516  21.186  0.00  0.00    +0.000 C 
ATOM      4  C   UNL     1       1.954   2.300  20.997  0.00  0.00    +0.000 C 
ATOM      5  C   UNL     1       2.478   2.194  19.579  0.00  0.00    +0.000 C 
ATOM      6  C   UNL     1       3.712   3.050  19.410  0.00  0.00    +0.000 C 
ATOM      7  O   UNL     1       4.824   2.529  19.506  0.00  0.00    +0.000 OA
ATOM      8  N   UNL     1       3.528   4.413  19.173  0.00  0.00    +0.000 N 
ENDROOT
BRANCH   1  10
ATOM      9  N   UNL     1       2.292   7.096  18.013  0.00  0.00    +0.000 N 
ATOM     10  C   UNL     1       2.280   6.634  19.306  0.00  0.00    +0.000 C 
ATOM     11  O   UNL     1       2.418   7.395  20.269  0.00  0.00    +0.000 OA
ATOM     12  H   UNL     1       2.335   6.444  17.240  0.00  0.00    +0.000 HD
BRANCH   9  13
ATOM     13  C   UNL     1       2.475   8.511  17.727  0.00  0.00    +0.000 C 
BRANCH  13  14
ATOM     14  C   UNL     1       1.184   9.321  17.860  0.00  0.00    +0.000 C 
BRANCH  14  15
ATOM     15  C   UNL     1       1.383  10.613  18.645  0.00  0.00    +0.000 C 
BRANCH  15  17
ATOM     16  C   UNL     1      -0.001  11.613  20.266  0.00  0.00    +0.000 C 
ATOM     17  O   UNL     1       0.773  10.472  19.927  0.00  0.00    +0.000 OA
ENDBRANCH  15  17
ENDBRANCH  14  15
ENDBRANCH  13  14
ENDBRANCH   9  13
ENDBRANCH   1  10
BRANCH   8  18
ATOM     18  C   UNL     1       4.755   5.213  19.033  0.00  0.00    +0.000 C 
BRANCH  18  19
ATOM     19  C   UNL     1       5.483   5.097  17.703  0.00  0.00    +0.000 A 
ATOM     20  C   UNL     1       4.896   5.454  16.480  0.00  0.00    +0.000 A 
ATOM     21  C   UNL     1       5.639   5.419  15.297  0.00  0.00    +0.000 A 
ATOM     22  C   UNL     1       6.982   5.052  15.323  0.00  0.00    +0.000 A 
ATOM     23  C   UNL     1       7.582   4.703  16.529  0.00  0.00    +0.000 A 
ATOM     24  C   UNL     1       6.837   4.722  17.710  0.00  0.00    +0.000 A 
ENDBRANCH  18  19
ENDBRANCH   8  18
TORSDOF 7
ENDMDL
