MODEL 1
REMARK VINA RESULT:      -8.7      0.000      0.000
REMARK  Name = 
REMARK  10 active torsions:
REMARK  status: ('A' for Active; 'I' for Inactive)
REMARK    1  A    between atoms: C_1  and  C_2
REMARK    2  A    between atoms: C_2  and  N_3
REMARK    3  A    between atoms: N_3  and  C_4
REMARK    4  A    between atoms: N_3  and  C_11
REMARK    5  A    between atoms: C_4  and  C_5
REMARK    6  A    between atoms: C_11  and  C_12
REMARK    7  A    between atoms: N_14  and  C_15
REMARK    8  A    between atoms: C_17  and  C_18
REMARK    9  A    between atoms: C_21  and  O_22
REMARK   10  A    between atoms: O_22  and  C_23
REMARK                            x       y       z     vdW  Elec       q    Type
REMARK                         _______ _______ _______ _____ _____    ______ ____
ROOT
ATOM      1  C   UNL     1       4.501   5.608  17.640  0.00  0.00    +0.000 A 
ATOM      2  C   UNL     1       4.912   4.346  18.035  0.00  0.00    +0.000 A 
ATOM      3  N   UNL     1       4.146   4.008  19.101  0.00  0.00    +0.000 N 
ATOM      4  C   UNL     1       4.158   2.757  19.818  0.00  0.00    +0.000 C 
ATOM      5  N   UNL     1       3.288   4.967  19.471  0.00  0.00    +0.000 NA
ATOM      6  C   UNL     1       3.501   5.975  18.606  0.00  0.00    +0.000 A 
ENDROOT
BRANCH   6   7
ATOM      7  C   UNL     1       2.724   7.218  18.725  0.00  0.00    +0.000 A 
ATOM      8  C   UNL     1       2.674   8.165  17.694  0.00  0.00    +0.000 A 
ATOM      9  C   UNL     1       1.892   9.318  17.819  0.00  0.00    +0.000 A 
ATOM     10  C   UNL     1       1.175   9.561  18.990  0.00  0.00    +0.000 A 
ATOM     11  C   UNL     1       1.286   8.670  20.057  0.00  0.00    +0.000 A 
ATOM     12  C   UNL     1       2.029   7.494  19.912  0.00  0.00    +0.000 A 
BRANCH  10  13
ATOM     13  O   UNL     1       0.463  10.737  19.017  0.00  0.00    +0.000 OA
BRANCH  13  14
ATOM     14  C   UNL     1      -0.853  10.758  18.620  0.00  0.00    +0.000 A 
ATOM     15  C   UNL     1      -1.660  11.711  19.245  0.00  0.00    +0.000 A 
ATOM     16  C   UNL     1      -3.008  11.822  18.903  0.00  0.00    +0.000 A 
ATOM     17  C   UNL     1      -3.552  10.981  17.934  0.00  0.00    +0.000 A 
ATOM     18  C   UNL     1      -2.742  10.050  17.284  0.00  0.00    +0.000 A 
ATOM     19  C   UNL     1      -1.387   9.957  17.607  0.00  0.00    +0.000 A 
ENDBRANCH  13  14
ENDBRANCH  10  13
ENDBRANCH   6   7
BRANCH   1  20
ATOM     20  C   UNL     1       4.992   6.407  16.471  0.00  0.00    +0.000 C 
BRANCH  20  21
ATOM     21  N   UNL     1       6.473   6.473  16.395  0.00  0.00    +0.000 NA
BRANCH  21  23
ATOM     22  C   UNL     1       7.811   8.252  17.602  0.00  0.00    +0.000 C 
ATOM     23  C   UNL     1       7.007   6.960  17.692  0.00  0.00    +0.000 C 
ENDBRANCH  21  23
BRANCH  21  24
ATOM     24  C   UNL     1       7.012   5.127  16.088  0.00  0.00    +0.000 C 
BRANCH  24  25
ATOM     25  C   UNL     1       6.956   4.731  14.626  0.00  0.00    +0.000 A 
ATOM     26  C   UNL     1       6.067   3.750  14.172  0.00  0.00    +0.000 A 
ATOM     27  C   UNL     1       6.044   3.451  12.816  0.00  0.00    +0.000 A 
ATOM     28  N   UNL     1       6.822   4.053  11.895  0.00  0.00    +0.000 NA
ATOM     29  C   UNL     1       7.672   4.996  12.349  0.00  0.00    +0.000 A 
ATOM     30  C   UNL     1       7.775   5.364  13.683  0.00  0.00    +0.000 A 
ENDBRANCH  24  25
ENDBRANCH  21  24
ENDBRANCH  20  21
ENDBRANCH   1  20
TORSDOF 8
ENDMDL
MODEL 2
REMARK VINA RESULT:      -8.6      0.973      1.425
REMARK  Name = 
REMARK  10 active torsions:
REMARK  status: ('A' for Active; 'I' for Inactive)
REMARK    1  A    between atoms: C_1  and  C_2
REMARK    2  A    between atoms: C_2  and  N_3
REMARK    3  A    between atoms: N_3  and  C_4
REMARK    4  A    between atoms: N_3  and  C_11
REMARK    5  A    between atoms: C_4  and  C_5
REMARK    6  A    between atoms: C_11  and  C_12
REMARK    7  A    between atoms: N_14  and  C_15
REMARK    8  A    between atoms: C_17  and  C_18
REMARK    9  A    between atoms: C_21  and  O_22
REMARK   10  A    between atoms: O_22  and  C_23
REMARK                            x       y       z     vdW  Elec       q    Type
REMARK                         _______ _______ _______ _____ _____    ______ ____
ROOT
ATOM      1  C   UNL     1       4.257   4.815  19.156  0.00  0.00    +0.000 A 
ATOM      2  C   UNL     1       4.109   3.458  19.392  0.00  0.00    +0.000 A 
ATOM      3  N   UNL     1       2.780   3.235  19.532  0.00  0.00    +0.000 N 
ATOM      4  C   UNL     1       2.129   1.962  19.726  0.00  0.00    +0.000 C 
ATOM      5  N   UNL     1       2.037   4.344  19.449  0.00  0.00    +0.000 NA
ATOM      6  C   UNL     1       2.920   5.339  19.244  0.00  0.00    +0.000 A 
ENDROOT
BRANCH   6   7
ATOM      7  C   UNL     1       2.446   6.724  19.112  0.00  0.00    +0.000 A 
ATOM      8  C   UNL     1       2.635   7.467  17.940  0.00  0.00    +0.000 A 
ATOM      9  C   UNL     1       2.135   8.769  17.828  0.00  0.00    +0.000 A 
ATOM     10  C   UNL     1       1.469   9.362  18.899  0.00  0.00    +0.000 A 
ATOM     11  C   UNL     1       1.351   8.666  20.102  0.00  0.00    +0.000 A 
ATOM     12  C   UNL     1       1.808   7.348  20.195  0.00  0.00    +0.000 A 
BRANCH  10  13
ATOM     13  O   UNL     1       1.045  10.653  18.693  0.00  0.00    +0.000 OA
BRANCH  13  14
ATOM     14  C   UNL     1      -0.299  10.943  18.660  0.00  0.00    +0.000 A 
ATOM     15  C   UNL     1      -0.712  12.000  19.475  0.00  0.00    +0.000 A 
ATOM     16  C   UNL     1      -2.054  12.381  19.503  0.00  0.00    +0.000 A 
ATOM     17  C   UNL     1      -2.986  11.706  18.716  0.00  0.00    +0.000 A 
ATOM     18  C   UNL     1      -2.572  10.672  17.877  0.00  0.00    +0.000 A 
ATOM     19  C   UNL     1      -1.226  10.308  17.828  0.00  0.00    +0.000 A 
ENDBRANCH  13  14
ENDBRANCH  10  13
ENDBRANCH   6   7
BRANCH   1  20
ATOM     20  C   UNL     1       5.524   5.563  18.874  0.00  0.00    +0.000 C 
BRANCH  20  21
ATOM     21  N   UNL     1       5.755   5.787  17.424  0.00  0.00    +0.000 NA
BRANCH  21  23
ATOM     22  C   UNL     1       7.690   7.373  17.814  0.00  0.00    +0.000 C 
ATOM     23  C   UNL     1       6.301   7.152  17.222  0.00  0.00    +0.000 C 
ENDBRANCH  21  23
BRANCH  21  24
ATOM     24  C   UNL     1       6.704   4.769  16.913  0.00  0.00    +0.000 C 
BRANCH  24  25
ATOM     25  C   UNL     1       6.740   4.623  15.406  0.00  0.00    +0.000 A 
ATOM     26  C   UNL     1       7.740   5.233  14.640  0.00  0.00    +0.000 A 
ATOM     27  C   UNL     1       7.735   5.038  13.264  0.00  0.00    +0.000 A 
ATOM     28  N   UNL     1       6.828   4.287  12.610  0.00  0.00    +0.000 NA
ATOM     29  C   UNL     1       5.872   3.707  13.362  0.00  0.00    +0.000 A 
ATOM     30  C   UNL     1       5.786   3.842  14.741  0.00  0.00    +0.000 A 
ENDBRANCH  24  25
ENDBRANCH  21  24
ENDBRANCH  20  21
ENDBRANCH   1  20
TORSDOF 8
ENDMDL
MODEL 3
REMARK VINA RESULT:      -8.5      4.910     10.348
REMARK  Name = 
REMARK  10 active torsions:
REMARK  status: ('A' for Active; 'I' for Inactive)
REMARK    1  A    between atoms: C_1  and  C_2
REMARK    2  A    between atoms: C_2  and  N_3
REMARK    3  A    between atoms: N_3  and  C_4
REMARK    4  A    between atoms: N_3  and  C_11
REMARK    5  A    between atoms: C_4  and  C_5
REMARK    6  A    between atoms: C_11  and  C_12
REMARK    7  A    between atoms: N_14  and  C_15
REMARK    8  A    between atoms: C_17  and  C_18
REMARK    9  A    between atoms: C_21  and  O_22
REMARK   10  A    between atoms: O_22  and  C_23
REMARK                            x       y       z     vdW  Elec       q    Type
REMARK                         _______ _______ _______ _____ _____    ______ ____
ROOT
ATOM      1  C   UNL     1      -1.047  10.859  19.302  0.00  0.00    +0.000 A 
ATOM      2  C   UNL     1      -1.336  12.035  19.972  0.00  0.00    +0.000 A 
ATOM      3  N   UNL     1      -0.228  12.354  20.685  0.00  0.00    +0.000 N 
ATOM      4  C   UNL     1      -0.024  13.532  21.493  0.00  0.00    +0.000 C 
ATOM      5  N   UNL     1       0.759  11.458  20.573  0.00  0.00    +0.000 NA
ATOM      6  C   UNL     1       0.276  10.511  19.747  0.00  0.00    +0.000 A 
ENDROOT
BRANCH   6   7
ATOM      7  C   UNL     1       1.105   9.346  19.404  0.00  0.00    +0.000 A 
ATOM      8  C   UNL     1       1.425   8.358  20.344  0.00  0.00    +0.000 A 
ATOM      9  C   UNL     1       2.180   7.239  19.977  0.00  0.00    +0.000 A 
ATOM     10  C   UNL     1       2.658   7.107  18.674  0.00  0.00    +0.000 A 
ATOM     11  C   UNL     1       2.421   8.126  17.752  0.00  0.00    +0.000 A 
ATOM     12  C   UNL     1       1.624   9.219  18.107  0.00  0.00    +0.000 A 
BRANCH  10  13
ATOM     13  O   UNL     1       3.413   5.984  18.429  0.00  0.00    +0.000 OA
BRANCH  13  14
ATOM     14  C   UNL     1       2.932   4.741  18.765  0.00  0.00    +0.000 A 
ATOM     15  C   UNL     1       1.784   4.329  18.085  0.00  0.00    +0.000 A 
ATOM     16  C   UNL     1       1.225   3.078  18.344  0.00  0.00    +0.000 A 
ATOM     17  C   UNL     1       1.814   2.234  19.284  0.00  0.00    +0.000 A 
ATOM     18  C   UNL     1       2.979   2.627  19.942  0.00  0.00    +0.000 A 
ATOM     19  C   UNL     1       3.554   3.868  19.663  0.00  0.00    +0.000 A 
ENDBRANCH  13  14
ENDBRANCH  10  13
ENDBRANCH   6   7
BRANCH   1  20
ATOM     20  C   UNL     1      -1.918  10.118  18.333  0.00  0.00    +0.000 C 
BRANCH  20  21
ATOM     21  N   UNL     1      -2.890  10.999  17.637  0.00  0.00    +0.000 NA
BRANCH  21  23
ATOM     22  C   UNL     1      -3.434  10.557  15.204  0.00  0.00    +0.000 C 
ATOM     23  C   UNL     1      -2.473  11.163  16.222  0.00  0.00    +0.000 C 
ENDBRANCH  21  23
BRANCH  21  24
ATOM     24  C   UNL     1      -4.242  10.397  17.711  0.00  0.00    +0.000 C 
BRANCH  24  25
ATOM     25  C   UNL     1      -5.245  11.169  18.543  0.00  0.00    +0.000 A 
ATOM     26  C   UNL     1      -6.535  10.676  18.771  0.00  0.00    +0.000 A 
ATOM     27  C   UNL     1      -7.400  11.418  19.565  0.00  0.00    +0.000 A 
ATOM     28  N   UNL     1      -7.076  12.590  20.145  0.00  0.00    +0.000 NA
ATOM     29  C   UNL     1      -5.830  13.051  19.916  0.00  0.00    +0.000 A 
ATOM     30  C   UNL     1      -4.893  12.389  19.136  0.00  0.00    +0.000 A 
ENDBRANCH  24  25
ENDBRANCH  21  24
ENDBRANCH  20  21
ENDBRANCH   1  20
TORSDOF 8
ENDMDL
MODEL 4
REMARK VINA RESULT:      -8.5      5.062     10.420
REMARK  Name = 
REMARK  10 active torsions:
REMARK  status: ('A' for Active; 'I' for Inactive)
REMARK    1  A    between atoms: C_1  and  C_2
REMARK    2  A    between atoms: C_2  and  N_3
REMARK    3  A    between atoms: N_3  and  C_4
REMARK    4  A    between atoms: N_3  and  C_11
REMARK    5  A    between atoms: C_4  and  C_5
REMARK    6  A    between atoms: C_11  and  C_12
REMARK    7  A    between atoms: N_14  and  C_15
REMARK    8  A    between atoms: C_17  and  C_18
REMARK    9  A    between atoms: C_21  and  O_22
REMARK   10  A    between atoms: O_22  and  C_23
REMARK                            x       y       z     vdW  Elec       q    Type
REMARK                         _______ _______ _______ _____ _____    ______ ____
ROOT
ATOM      1  C   UNL     1      -0.827  11.665  18.211  0.00  0.00    +0.000 A 
ATOM      2  C   UNL     1      -0.884  13.049  18.237  0.00  0.00    +0.000 A 
ATOM      3  N   UNL     1       0.277  13.470  18.797  0.00  0.00    +0.000 N 
ATOM      4  C   UNL     1       0.709  14.835  18.978  0.00  0.00    +0.000 C 
ATOM      5  N   UNL     1       1.080  12.472  19.183  0.00  0.00    +0.000 NA
ATOM      6  C   UNL     1       0.416  11.347  18.860  0.00  0.00    +0.000 A 
ENDROOT
BRANCH   6   7
ATOM      7  C   UNL     1       1.011  10.035  19.156  0.00  0.00    +0.000 A 
ATOM      8  C   UNL     1       0.969   9.472  20.437  0.00  0.00    +0.000 A 
ATOM      9  C   UNL     1       1.505   8.203  20.679  0.00  0.00    +0.000 A 
ATOM     10  C   UNL     1       2.125   7.492  19.653  0.00  0.00    +0.000 A 
ATOM     11  C   UNL     1       2.251   8.078  18.393  0.00  0.00    +0.000 A 
ATOM     12  C   UNL     1       1.671   9.325  18.141  0.00  0.00    +0.000 A 
BRANCH  10  13
ATOM     13  O   UNL     1       2.642   6.268  20.006  0.00  0.00    +0.000 OA
BRANCH  13  14
ATOM     14  C   UNL     1       2.088   5.112  19.509  0.00  0.00    +0.000 A 
ATOM     15  C   UNL     1       1.450   4.294  20.444  0.00  0.00    +0.000 A 
ATOM     16  C   UNL     1       0.845   3.105  20.039  0.00  0.00    +0.000 A 
ATOM     17  C   UNL     1       0.874   2.731  18.696  0.00  0.00    +0.000 A 
ATOM     18  C   UNL     1       1.481   3.561  17.754  0.00  0.00    +0.000 A 
ATOM     19  C   UNL     1       2.063   4.764  18.155  0.00  0.00    +0.000 A 
ENDBRANCH  13  14
ENDBRANCH  10  13
ENDBRANCH   6   7
BRANCH   1  20
ATOM     20  C   UNL     1      -1.837  10.718  17.638  0.00  0.00    +0.000 C 
BRANCH  20  21
ATOM     21  N   UNL     1      -3.111  11.384  17.266  0.00  0.00    +0.000 NA
BRANCH  21  23
ATOM     22  C   UNL     1      -2.626   9.861  15.301  0.00  0.00    +0.000 C 
ATOM     23  C   UNL     1      -3.503  10.957  15.899  0.00  0.00    +0.000 C 
ENDBRANCH  21  23
BRANCH  21  24
ATOM     24  C   UNL     1      -4.163  11.018  18.244  0.00  0.00    +0.000 C 
BRANCH  24  25
ATOM     25  C   UNL     1      -4.861  12.189  18.905  0.00  0.00    +0.000 A 
ATOM     26  C   UNL     1      -4.388  12.735  20.103  0.00  0.00    +0.000 A 
ATOM     27  C   UNL     1      -5.056  13.826  20.646  0.00  0.00    +0.000 A 
ATOM     28  N   UNL     1      -6.135  14.406  20.086  0.00  0.00    +0.000 NA
ATOM     29  C   UNL     1      -6.578  13.868  18.932  0.00  0.00    +0.000 A 
ATOM     30  C   UNL     1      -5.985  12.778  18.312  0.00  0.00    +0.000 A 
ENDBRANCH  24  25
ENDBRANCH  21  24
ENDBRANCH  20  21
ENDBRANCH   1  20
TORSDOF 8
ENDMDL
MODEL 5
REMARK VINA RESULT:      -8.4      4.438     10.469
REMARK  Name = 
REMARK  10 active torsions:
REMARK  status: ('A' for Active; 'I' for Inactive)
REMARK    1  A    between atoms: C_1  and  C_2
REMARK    2  A    between atoms: C_2  and  N_3
REMARK    3  A    between atoms: N_3  and  C_4
REMARK    4  A    between atoms: N_3  and  C_11
REMARK    5  A    between atoms: C_4  and  C_5
REMARK    6  A    between atoms: C_11  and  C_12
REMARK    7  A    between atoms: N_14  and  C_15
REMARK    8  A    between atoms: C_17  and  C_18
REMARK    9  A    between atoms: C_21  and  O_22
REMARK   10  A    between atoms: O_22  and  C_23
REMARK                            x       y       z     vdW  Elec       q    Type
REMARK                         _______ _______ _______ _____ _____    ______ ____
ROOT
ATOM      1  C   UNL     1      -0.954  11.525  18.337  0.00  0.00    +0.000 A 
ATOM      2  C   UNL     1      -1.083  12.900  18.435  0.00  0.00    +0.000 A 
ATOM      3  N   UNL     1       0.027  13.346  19.072  0.00  0.00    +0.000 N 
ATOM      4  C   UNL     1       0.379  14.718  19.348  0.00  0.00    +0.000 C 
ATOM      5  N   UNL     1       0.863  12.369  19.441  0.00  0.00    +0.000 NA
ATOM      6  C   UNL     1       0.274  11.232  19.025  0.00  0.00    +0.000 A 
ENDROOT
BRANCH   6   7
ATOM      7  C   UNL     1       0.922   9.937  19.277  0.00  0.00    +0.000 A 
ATOM      8  C   UNL     1       0.884   9.317  20.532  0.00  0.00    +0.000 A 
ATOM      9  C   UNL     1       1.473   8.064  20.730  0.00  0.00    +0.000 A 
ATOM     10  C   UNL     1       2.141   7.426  19.687  0.00  0.00    +0.000 A 
ATOM     11  C   UNL     1       2.263   8.071  18.456  0.00  0.00    +0.000 A 
ATOM     12  C   UNL     1       1.631   9.301  18.246  0.00  0.00    +0.000 A 
BRANCH  10  13
ATOM     13  O   UNL     1       2.708   6.213  19.998  0.00  0.00    +0.000 OA
BRANCH  13  14
ATOM     14  C   UNL     1       2.987   5.304  19.004  0.00  0.00    +0.000 A 
ATOM     15  C   UNL     1       4.336   5.164  18.671  0.00  0.00    +0.000 A 
ATOM     16  C   UNL     1       4.725   4.258  17.684  0.00  0.00    +0.000 A 
ATOM     17  C   UNL     1       3.765   3.489  17.029  0.00  0.00    +0.000 A 
ATOM     18  C   UNL     1       2.420   3.602  17.381  0.00  0.00    +0.000 A 
ATOM     19  C   UNL     1       2.034   4.489  18.387  0.00  0.00    +0.000 A 
ENDBRANCH  13  14
ENDBRANCH  10  13
ENDBRANCH   6   7
BRANCH   1  20
ATOM     20  C   UNL     1      -1.886  10.563  17.664  0.00  0.00    +0.000 C 
BRANCH  20  21
ATOM     21  N   UNL     1      -3.118  11.213  17.151  0.00  0.00    +0.000 NA
BRANCH  21  23
ATOM     22  C   UNL     1      -3.000   9.889  14.995  0.00  0.00    +0.000 C 
ATOM     23  C   UNL     1      -3.064  11.256  15.668  0.00  0.00    +0.000 C 
ENDBRANCH  21  23
BRANCH  21  24
ATOM     24  C   UNL     1      -4.304  10.448  17.603  0.00  0.00    +0.000 C 
BRANCH  24  25
ATOM     25  C   UNL     1      -5.512  11.289  17.964  0.00  0.00    +0.000 A 
ATOM     26  C   UNL     1      -6.320  10.968  19.061  0.00  0.00    +0.000 A 
ATOM     27  C   UNL     1      -7.397  11.794  19.357  0.00  0.00    +0.000 A 
ATOM     28  N   UNL     1      -7.716  12.900  18.658  0.00  0.00    +0.000 NA
ATOM     29  C   UNL     1      -6.928  13.196  17.605  0.00  0.00    +0.000 A 
ATOM     30  C   UNL     1      -5.832  12.434  17.224  0.00  0.00    +0.000 A 
ENDBRANCH  24  25
ENDBRANCH  21  24
ENDBRANCH  20  21
ENDBRANCH   1  20
TORSDOF 8
ENDMDL
MODEL 6
REMARK VINA RESULT:      -8.4      4.157     10.493
REMARK  Name = 
REMARK  10 active torsions:
REMARK  status: ('A' for Active; 'I' for Inactive)
REMARK    1  A    between atoms: C_1  and  C_2
REMARK    2  A    between atoms: C_2  and  N_3
REMARK    3  A    between atoms: N_3  and  C_4
REMARK    4  A    between atoms: N_3  and  C_11
REMARK    5  A    between atoms: C_4  and  C_5
REMARK    6  A    between atoms: C_11  and  C_12
REMARK    7  A    between atoms: N_14  and  C_15
REMARK    8  A    between atoms: C_17  and  C_18
REMARK    9  A    between atoms: C_21  and  O_22
REMARK   10  A    between atoms: O_22  and  C_23
REMARK                            x       y       z     vdW  Elec       q    Type
REMARK                         _______ _______ _______ _____ _____    ______ ____
ROOT
ATOM      1  C   UNL     1      -0.964  10.898  19.079  0.00  0.00    +0.000 A 
ATOM      2  C   UNL     1      -1.196  12.115  19.696  0.00  0.00    +0.000 A 
ATOM      3  N   UNL     1      -0.025  12.485  20.270  0.00  0.00    +0.000 N 
ATOM      4  C   UNL     1       0.248  13.715  20.973  0.00  0.00    +0.000 C 
ATOM      5  N   UNL     1       0.954  11.586  20.118  0.00  0.00    +0.000 NA
ATOM      6  C   UNL     1       0.400  10.585  19.410  0.00  0.00    +0.000 A 
ENDROOT
BRANCH   6   7
ATOM      7  C   UNL     1       1.201   9.402  19.062  0.00  0.00    +0.000 A 
ATOM      8  C   UNL     1       1.718   9.207  17.775  0.00  0.00    +0.000 A 
ATOM      9  C   UNL     1       2.513   8.093  17.484  0.00  0.00    +0.000 A 
ATOM     10  C   UNL     1       2.775   7.139  18.465  0.00  0.00    +0.000 A 
ATOM     11  C   UNL     1       2.195   7.276  19.726  0.00  0.00    +0.000 A 
ATOM     12  C   UNL     1       1.442   8.415  20.029  0.00  0.00    +0.000 A 
BRANCH  10  13
ATOM     13  O   UNL     1       3.543   6.071  18.065  0.00  0.00    +0.000 OA
BRANCH  13  14
ATOM     14  C   UNL     1       4.915   6.137  18.142  0.00  0.00    +0.000 A 
ATOM     15  C   UNL     1       5.501   5.403  19.175  0.00  0.00    +0.000 A 
ATOM     16  C   UNL     1       6.887   5.394  19.331  0.00  0.00    +0.000 A 
ATOM     17  C   UNL     1       7.691   6.119  18.453  0.00  0.00    +0.000 A 
ATOM     18  C   UNL     1       7.112   6.827  17.400  0.00  0.00    +0.000 A 
ATOM     19  C   UNL     1       5.727   6.815  17.228  0.00  0.00    +0.000 A 
ENDBRANCH  13  14
ENDBRANCH  10  13
ENDBRANCH   6   7
BRANCH   1  20
ATOM     20  C   UNL     1      -1.921  10.091  18.255  0.00  0.00    +0.000 C 
BRANCH  20  21
ATOM     21  N   UNL     1      -2.767  10.927  17.366  0.00  0.00    +0.000 NA
BRANCH  21  23
ATOM     22  C   UNL     1      -3.657  10.368  15.062  0.00  0.00    +0.000 C 
ATOM     23  C   UNL     1      -2.443  10.617  15.951  0.00  0.00    +0.000 C 
ENDBRANCH  21  23
BRANCH  21  24
ATOM     24  C   UNL     1      -4.197  10.649  17.641  0.00  0.00    +0.000 C 
BRANCH  24  25
ATOM     25  C   UNL     1      -5.013  11.848  18.080  0.00  0.00    +0.000 A 
ATOM     26  C   UNL     1      -5.928  12.460  17.216  0.00  0.00    +0.000 A 
ATOM     27  C   UNL     1      -6.667  13.539  17.687  0.00  0.00    +0.000 A 
ATOM     28  N   UNL     1      -6.567  14.037  18.935  0.00  0.00    +0.000 NA
ATOM     29  C   UNL     1      -5.681  13.435  19.754  0.00  0.00    +0.000 A 
ATOM     30  C   UNL     1      -4.894  12.356  19.380  0.00  0.00    +0.000 A 
ENDBRANCH  24  25
ENDBRANCH  21  24
ENDBRANCH  20  21
ENDBRANCH   1  20
TORSDOF 8
ENDMDL
MODEL 7
REMARK VINA RESULT:      -8.4      5.356     10.810
REMARK  Name = 
REMARK  10 active torsions:
REMARK  status: ('A' for Active; 'I' for Inactive)
REMARK    1  A    between atoms: C_1  and  C_2
REMARK    2  A    between atoms: C_2  and  N_3
REMARK    3  A    between atoms: N_3  and  C_4
REMARK    4  A    between atoms: N_3  and  C_11
REMARK    5  A    between atoms: C_4  and  C_5
REMARK    6  A    between atoms: C_11  and  C_12
REMARK    7  A    between atoms: N_14  and  C_15
REMARK    8  A    between atoms: C_17  and  C_18
REMARK    9  A    between atoms: C_21  and  O_22
REMARK   10  A    between atoms: O_22  and  C_23
REMARK                            x       y       z     vdW  Elec       q    Type
REMARK                         _______ _______ _______ _____ _____    ______ ____
ROOT
ATOM      1  C   UNL     1      -1.952  11.600  19.237  0.00  0.00    +0.000 A 
ATOM      2  C   UNL     1      -2.362  12.836  19.706  0.00  0.00    +0.000 A 
ATOM      3  N   UNL     1      -1.378  13.282  20.525  0.00  0.00    +0.000 N 
ATOM      4  C   UNL     1      -1.320  14.557  21.200  0.00  0.00    +0.000 C 
ATOM      5  N   UNL     1      -0.367  12.418  20.669  0.00  0.00    +0.000 NA
ATOM      6  C   UNL     1      -0.703  11.361  19.908  0.00  0.00    +0.000 A 
ENDROOT
BRANCH   6   7
ATOM      7  C   UNL     1       0.193  10.196  19.837  0.00  0.00    +0.000 A 
ATOM      8  C   UNL     1       0.450   9.387  20.950  0.00  0.00    +0.000 A 
ATOM      9  C   UNL     1       1.273   8.260  20.841  0.00  0.00    +0.000 A 
ATOM     10  C   UNL     1       1.880   7.945  19.627  0.00  0.00    +0.000 A 
ATOM     11  C   UNL     1       1.702   8.792  18.533  0.00  0.00    +0.000 A 
ATOM     12  C   UNL     1       0.840   9.889  18.630  0.00  0.00    +0.000 A 
BRANCH  10  13
ATOM     13  O   UNL     1       2.690   6.835  19.638  0.00  0.00    +0.000 OA
BRANCH  13  14
ATOM     14  C   UNL     1       2.148   5.581  19.480  0.00  0.00    +0.000 A 
ATOM     15  C   UNL     1       2.176   5.066  18.182  0.00  0.00    +0.000 A 
ATOM     16  C   UNL     1       1.662   3.796  17.920  0.00  0.00    +0.000 A 
ATOM     17  C   UNL     1       1.120   3.037  18.956  0.00  0.00    +0.000 A 
ATOM     18  C   UNL     1       1.119   3.534  20.259  0.00  0.00    +0.000 A 
ATOM     19  C   UNL     1       1.658   4.793  20.526  0.00  0.00    +0.000 A 
ENDBRANCH  13  14
ENDBRANCH  10  13
ENDBRANCH   6   7
BRANCH   1  20
ATOM     20  C   UNL     1      -2.654  10.714  18.253  0.00  0.00    +0.000 C 
BRANCH  20  21
ATOM     21  N   UNL     1      -3.780  11.393  17.563  0.00  0.00    +0.000 NA
BRANCH  21  23
ATOM     22  C   UNL     1      -2.616  10.148  15.690  0.00  0.00    +0.000 C 
ATOM     23  C   UNL     1      -3.639  11.204  16.098  0.00  0.00    +0.000 C 
ENDBRANCH  21  23
BRANCH  21  24
ATOM     24  C   UNL     1      -5.064  10.823  18.037  0.00  0.00    +0.000 C 
BRANCH  24  25
ATOM     25  C   UNL     1      -5.941  11.778  18.820  0.00  0.00    +0.000 A 
ATOM     26  C   UNL     1      -6.550  11.390  20.019  0.00  0.00    +0.000 A 
ATOM     27  C   UNL     1      -7.320  12.320  20.705  0.00  0.00    +0.000 A 
ATOM     28  N   UNL     1      -7.517  13.588  20.295  0.00  0.00    +0.000 NA
ATOM     29  C   UNL     1      -6.924  13.947  19.139  0.00  0.00    +0.000 A 
ATOM     30  C   UNL     1      -6.139  13.092  18.377  0.00  0.00    +0.000 A 
ENDBRANCH  24  25
ENDBRANCH  21  24
ENDBRANCH  20  21
ENDBRANCH   1  20
TORSDOF 8
ENDMDL
MODEL 8
REMARK VINA RESULT:      -8.4      1.115      1.387
REMARK  Name = 
REMARK  10 active torsions:
REMARK  status: ('A' for Active; 'I' for Inactive)
REMARK    1  A    between atoms: C_1  and  C_2
REMARK    2  A    between atoms: C_2  and  N_3
REMARK    3  A    between atoms: N_3  and  C_4
REMARK    4  A    between atoms: N_3  and  C_11
REMARK    5  A    between atoms: C_4  and  C_5
REMARK    6  A    between atoms: C_11  and  C_12
REMARK    7  A    between atoms: N_14  and  C_15
REMARK    8  A    between atoms: C_17  and  C_18
REMARK    9  A    between atoms: C_21  and  O_22
REMARK   10  A    between atoms: O_22  and  C_23
REMARK                            x       y       z     vdW  Elec       q    Type
REMARK                         _______ _______ _______ _____ _____    ______ ____
ROOT
ATOM      1  C   UNL     1       4.384   4.803  18.318  0.00  0.00    +0.000 A 
ATOM      2  C   UNL     1       4.279   3.448  18.052  0.00  0.00    +0.000 A 
ATOM      3  N   UNL     1       2.959   3.146  18.106  0.00  0.00    +0.000 N 
ATOM      4  C   UNL     1       2.348   1.868  17.833  0.00  0.00    +0.000 C 
ATOM      5  N   UNL     1       2.183   4.188  18.429  0.00  0.00    +0.000 NA
ATOM      6  C   UNL     1       3.034   5.218  18.591  0.00  0.00    +0.000 A 
ENDROOT
BRANCH   6   7
ATOM      7  C   UNL     1       2.518   6.542  18.966  0.00  0.00    +0.000 A 
ATOM      8  C   UNL     1       2.530   7.624  18.077  0.00  0.00    +0.000 A 
ATOM      9  C   UNL     1       1.992   8.862  18.448  0.00  0.00    +0.000 A 
ATOM     10  C   UNL     1       1.468   9.048  19.725  0.00  0.00    +0.000 A 
ATOM     11  C   UNL     1       1.530   8.005  20.650  0.00  0.00    +0.000 A 
ATOM     12  C   UNL     1       2.022   6.755  20.261  0.00  0.00    +0.000 A 
BRANCH  10  13
ATOM     13  O   UNL     1       0.993  10.310  19.994  0.00  0.00    +0.000 OA
BRANCH  13  14
ATOM     14  C   UNL     1      -0.008  10.852  19.222  0.00  0.00    +0.000 A 
ATOM     15  C   UNL     1      -1.119  10.034  19.007  0.00  0.00    +0.000 A 
ATOM     16  C   UNL     1      -2.194  10.496  18.247  0.00  0.00    +0.000 A 
ATOM     17  C   UNL     1      -2.160  11.778  17.701  0.00  0.00    +0.000 A 
ATOM     18  C   UNL     1      -1.067  12.610  17.940  0.00  0.00    +0.000 A 
ATOM     19  C   UNL     1      -0.003  12.158  18.723  0.00  0.00    +0.000 A 
ENDBRANCH  13  14
ENDBRANCH  10  13
ENDBRANCH   6   7
BRANCH   1  20
ATOM     20  C   UNL     1       5.625   5.643  18.320  0.00  0.00    +0.000 C 
BRANCH  20  21
ATOM     21  N   UNL     1       6.090   5.992  16.954  0.00  0.00    +0.000 NA
BRANCH  21  23
ATOM     22  C   UNL     1       7.862   7.440  18.038  0.00  0.00    +0.000 C 
ATOM     23  C   UNL     1       6.760   7.316  16.991  0.00  0.00    +0.000 C 
ENDBRANCH  21  23
BRANCH  21  24
ATOM     24  C   UNL     1       7.029   4.951  16.472  0.00  0.00    +0.000 C 
BRANCH  24  25
ATOM     25  C   UNL     1       6.958   4.659  14.987  0.00  0.00    +0.000 A 
ATOM     26  C   UNL     1       6.005   3.778  14.463  0.00  0.00    +0.000 A 
ATOM     27  C   UNL     1       5.973   3.574  13.090  0.00  0.00    +0.000 A 
ATOM     28  N   UNL     1       6.801   4.179  12.215  0.00  0.00    +0.000 NA
ATOM     29  C   UNL     1       7.713   5.025  12.736  0.00  0.00    +0.000 A 
ATOM     30  C   UNL     1       7.830   5.294  14.092  0.00  0.00    +0.000 A 
ENDBRANCH  24  25
ENDBRANCH  21  24
ENDBRANCH  20  21
ENDBRANCH   1  20
TORSDOF 8
ENDMDL
MODEL 9
REMARK VINA RESULT:      -8.3      3.233      8.233
REMARK  Name = 
REMARK  10 active torsions:
REMARK  status: ('A' for Active; 'I' for Inactive)
REMARK    1  A    between atoms: C_1  and  C_2
REMARK    2  A    between atoms: C_2  and  N_3
REMARK    3  A    between atoms: N_3  and  C_4
REMARK    4  A    between atoms: N_3  and  C_11
REMARK    5  A    between atoms: C_4  and  C_5
REMARK    6  A    between atoms: C_11  and  C_12
REMARK    7  A    between atoms: N_14  and  C_15
REMARK    8  A    between atoms: C_17  and  C_18
REMARK    9  A    between atoms: C_21  and  O_22
REMARK   10  A    between atoms: O_22  and  C_23
REMARK                            x       y       z     vdW  Elec       q    Type
REMARK                         _______ _______ _______ _____ _____    ______ ____
ROOT
ATOM      1  C   UNL     1       5.504   5.255  17.409  0.00  0.00    +0.000 A 
ATOM      2  C   UNL     1       5.201   4.404  16.360  0.00  0.00    +0.000 A 
ATOM      3  N   UNL     1       6.096   4.671  15.377  0.00  0.00    +0.000 N 
ATOM      4  C   UNL     1       6.224   3.992  14.110  0.00  0.00    +0.000 C 
ATOM      5  N   UNL     1       6.943   5.662  15.678  0.00  0.00    +0.000 NA
ATOM      6  C   UNL     1       6.588   6.060  16.913  0.00  0.00    +0.000 A 
ENDROOT
BRANCH   6   7
ATOM      7  C   UNL     1       7.313   7.161  17.565  0.00  0.00    +0.000 A 
ATOM      8  C   UNL     1       8.135   6.952  18.679  0.00  0.00    +0.000 A 
ATOM      9  C   UNL     1       8.847   8.011  19.253  0.00  0.00    +0.000 A 
ATOM     10  C   UNL     1       8.720   9.303  18.744  0.00  0.00    +0.000 A 
ATOM     11  C   UNL     1       7.836   9.540  17.691  0.00  0.00    +0.000 A 
ATOM     12  C   UNL     1       7.164   8.472  17.088  0.00  0.00    +0.000 A 
BRANCH  10  13
ATOM     13  O   UNL     1       9.440  10.273  19.400  0.00  0.00    +0.000 OA
BRANCH  13  14
ATOM     14  C   UNL     1       9.857  11.398  18.729  0.00  0.00    +0.000 A 
ATOM     15  C   UNL     1       9.170  12.576  19.032  0.00  0.00    +0.000 A 
ATOM     16  C   UNL     1       9.525  13.774  18.414  0.00  0.00    +0.000 A 
ATOM     17  C   UNL     1      10.570  13.799  17.491  0.00  0.00    +0.000 A 
ATOM     18  C   UNL     1      11.279  12.632  17.209  0.00  0.00    +0.000 A 
ATOM     19  C   UNL     1      10.941  11.438  17.848  0.00  0.00    +0.000 A 
ENDBRANCH  13  14
ENDBRANCH  10  13
ENDBRANCH   6   7
BRANCH   1  20
ATOM     20  C   UNL     1       4.848   5.320  18.755  0.00  0.00    +0.000 C 
BRANCH  20  21
ATOM     21  N   UNL     1       3.372   5.177  18.687  0.00  0.00    +0.000 NA
BRANCH  21  23
ATOM     22  C   UNL     1       1.750   3.356  18.003  0.00  0.00    +0.000 C 
ATOM     23  C   UNL     1       3.018   3.737  18.761  0.00  0.00    +0.000 C 
ENDBRANCH  21  23
BRANCH  21  24
ATOM     24  C   UNL     1       2.752   5.919  19.811  0.00  0.00    +0.000 C 
BRANCH  24  25
ATOM     25  C   UNL     1       2.210   7.289  19.455  0.00  0.00    +0.000 A 
ATOM     26  C   UNL     1       2.271   7.777  18.145  0.00  0.00    +0.000 A 
ATOM     27  C   UNL     1       1.731   9.029  17.877  0.00  0.00    +0.000 A 
ATOM     28  N   UNL     1       1.139   9.811  18.801  0.00  0.00    +0.000 NA
ATOM     29  C   UNL     1       1.089   9.325  20.058  0.00  0.00    +0.000 A 
ATOM     30  C   UNL     1       1.602   8.091  20.429  0.00  0.00    +0.000 A 
ENDBRANCH  24  25
ENDBRANCH  21  24
ENDBRANCH  20  21
ENDBRANCH   1  20
TORSDOF 8
ENDMDL
