MODEL 1
REMARK VINA RESULT:      -6.7      0.000      0.000
REMARK  Name = 
REMARK  12 active torsions:
REMARK  status: ('A' for Active; 'I' for Inactive)
REMARK    1  A    between atoms: C_1  and  C_2
REMARK    2  A    between atoms: C_2  and  N_3
REMARK    3  A    between atoms: N_3  and  C_4
REMARK    4  A    between atoms: C_4  and  C_5
REMARK    5  A    between atoms: C_8  and  C_9
REMARK    6  A    between atoms: C_12  and  S_13
REMARK    7  A    between atoms: S_13  and  C_14
REMARK    8  A    between atoms: C_14  and  C_15
REMARK    9  A    between atoms: N_17  and  C_18
REMARK   10  A    between atoms: C_18  and  C_19
REMARK   11  A    between atoms: C_19  and  C_20
REMARK   12  A    between atoms: C_20  and  N_21
REMARK                            x       y       z     vdW  Elec       q    Type
REMARK                         _______ _______ _______ _____ _____    ______ ____
ROOT
ATOM      1  N   UNL     1       1.200   8.564  20.051  0.00  0.00    +0.000 N 
ATOM      2  C   UNL     1       1.932   7.430  19.763  0.00  0.00    +0.000 A 
ATOM      3  N   UNL     1       1.789   6.371  20.594  0.00  0.00    +0.000 NA
ATOM      4  C   UNL     1       2.383   5.185  20.333  0.00  0.00    +0.000 A 
ATOM      5  C   UNL     1       2.086   4.023  21.223  0.00  0.00    +0.000 C 
ATOM      6  C   UNL     1       3.197   5.148  19.226  0.00  0.00    +0.000 A 
ATOM      7  N   UNL     1       3.970   4.191  18.632  0.00  0.00    +0.000 N 
ATOM      8  C   UNL     1       4.567   4.773  17.549  0.00  0.00    +0.000 A 
ATOM      9  N   UNL     1       4.219   6.027  17.398  0.00  0.00    +0.000 NA
ATOM     10  C   UNL     1       3.355   6.269  18.435  0.00  0.00    +0.000 A 
ATOM     11  N   UNL     1       2.719   7.427  18.677  0.00  0.00    +0.000 NA
ATOM     12  H   UNL     1       4.134   3.244  18.939  0.00  0.00    +0.000 HD
ENDROOT
BRANCH   1  14
ATOM     13  C   UNL     1       1.432   9.238  22.430  0.00  0.00    +0.000 C 
ATOM     14  C   UNL     1       0.526   8.688  21.337  0.00  0.00    +0.000 C 
ENDBRANCH   1  14
BRANCH   1  15
ATOM     15  C   UNL     1       1.157   9.643  19.074  0.00  0.00    +0.000 C 
ATOM     16  C   UNL     1       0.399  10.850  19.611  0.00  0.00    +0.000 C 
ENDBRANCH   1  15
BRANCH   8  17
ATOM     17  S   UNL     1       5.594   3.834  16.532  0.00  0.00    +0.000 S 
BRANCH  17  18
ATOM     18  C   UNL     1       6.742   5.095  15.910  0.00  0.00    +0.000 C 
BRANCH  18  19
ATOM     19  C   UNL     1       7.064   4.925  14.429  0.00  0.00    +0.000 C 
ATOM     20  O   UNL     1       8.006   5.490  13.871  0.00  0.00    +0.000 OA
ATOM     21  N   UNL     1       6.206   4.074  13.759  0.00  0.00    +0.000 N 
ATOM     22  H   UNL     1       5.435   3.642  14.254  0.00  0.00    +0.000 HD
BRANCH  21  23
ATOM     23  C   UNL     1       6.355   3.778  12.345  0.00  0.00    +0.000 C 
BRANCH  23  24
ATOM     24  C   UNL     1       5.299   2.802  11.829  0.00  0.00    +0.000 C 
BRANCH  24  25
ATOM     25  C   UNL     1       5.913   1.502  11.312  0.00  0.00    +0.000 C 
BRANCH  25  26
ATOM     26  N   UNL     1       7.368   1.603  11.284  0.00  0.00    +0.000 NA
ATOM     27  H   UNL     1       7.734   1.644  12.234  0.00  0.00    +0.000 HD
ATOM     28  H   UNL     1       7.631   2.486  10.843  0.00  0.00    +0.000 HD
ENDBRANCH  25  26
ENDBRANCH  24  25
ENDBRANCH  23  24
ENDBRANCH  21  23
ENDBRANCH  18  19
ENDBRANCH  17  18
ENDBRANCH   8  17
TORSDOF 9
ENDMDL
MODEL 2
REMARK VINA RESULT:      -6.4      3.569      4.607
REMARK  Name = 
REMARK  12 active torsions:
REMARK  status: ('A' for Active; 'I' for Inactive)
REMARK    1  A    between atoms: C_1  and  C_2
REMARK    2  A    between atoms: C_2  and  N_3
REMARK    3  A    between atoms: N_3  and  C_4
REMARK    4  A    between atoms: C_4  and  C_5
REMARK    5  A    between atoms: C_8  and  C_9
REMARK    6  A    between atoms: C_12  and  S_13
REMARK    7  A    between atoms: S_13  and  C_14
REMARK    8  A    between atoms: C_14  and  C_15
REMARK    9  A    between atoms: N_17  and  C_18
REMARK   10  A    between atoms: C_18  and  C_19
REMARK   11  A    between atoms: C_19  and  C_20
REMARK   12  A    between atoms: C_20  and  N_21
REMARK                            x       y       z     vdW  Elec       q    Type
REMARK                         _______ _______ _______ _____ _____    ______ ____
ROOT
ATOM      1  N   UNL     1       0.825   9.658  21.474  0.00  0.00    +0.000 N 
ATOM      2  C   UNL     1       1.248   8.573  20.733  0.00  0.00    +0.000 A 
ATOM      3  N   UNL     1       1.802   8.824  19.523  0.00  0.00    +0.000 NA
ATOM      4  C   UNL     1       2.340   7.835  18.775  0.00  0.00    +0.000 A 
ATOM      5  C   UNL     1       3.042   8.196  17.507  0.00  0.00    +0.000 C 
ATOM      6  C   UNL     1       2.218   6.562  19.278  0.00  0.00    +0.000 A 
ATOM      7  N   UNL     1       2.594   5.319  18.854  0.00  0.00    +0.000 N 
ATOM      8  C   UNL     1       2.170   4.428  19.799  0.00  0.00    +0.000 A 
ATOM      9  N   UNL     1       1.565   5.011  20.804  0.00  0.00    +0.000 NA
ATOM     10  C   UNL     1       1.598   6.346  20.494  0.00  0.00    +0.000 A 
ATOM     11  N   UNL     1       1.113   7.343  21.252  0.00  0.00    +0.000 NA
ATOM     12  H   UNL     1       3.049   5.068  17.989  0.00  0.00    +0.000 HD
ENDROOT
BRANCH   1  14
ATOM     13  C   UNL     1      -0.496  11.132  19.973  0.00  0.00    +0.000 C 
ATOM     14  C   UNL     1       0.738  10.973  20.852  0.00  0.00    +0.000 C 
ENDBRANCH   1  14
BRANCH   1  15
ATOM     15  C   UNL     1       0.425   9.454  22.858  0.00  0.00    +0.000 C 
ATOM     16  C   UNL     1      -0.780  10.312  23.221  0.00  0.00    +0.000 C 
ENDBRANCH   1  15
BRANCH   8  17
ATOM     17  S   UNL     1       2.513   2.750  19.604  0.00  0.00    +0.000 S 
BRANCH  17  18
ATOM     18  C   UNL     1       4.324   2.732  19.728  0.00  0.00    +0.000 C 
BRANCH  18  19
ATOM     19  C   UNL     1       5.005   3.453  18.569  0.00  0.00    +0.000 C 
ATOM     20  O   UNL     1       4.555   3.470  17.422  0.00  0.00    +0.000 OA
ATOM     21  N   UNL     1       6.178   4.094  18.916  0.00  0.00    +0.000 N 
ATOM     22  H   UNL     1       6.520   4.043  19.868  0.00  0.00    +0.000 HD
BRANCH  21  23
ATOM     23  C   UNL     1       6.967   4.843  17.952  0.00  0.00    +0.000 C 
BRANCH  23  24
ATOM     24  C   UNL     1       7.630   6.078  18.560  0.00  0.00    +0.000 C 
BRANCH  24  25
ATOM     25  C   UNL     1       7.558   7.291  17.633  0.00  0.00    +0.000 C 
BRANCH  25  26
ATOM     26  N   UNL     1       6.663   7.023  16.514  0.00  0.00    +0.000 NA
ATOM     27  H   UNL     1       5.787   6.627  16.853  0.00  0.00    +0.000 HD
ATOM     28  H   UNL     1       7.082   6.308  15.917  0.00  0.00    +0.000 HD
ENDBRANCH  25  26
ENDBRANCH  24  25
ENDBRANCH  23  24
ENDBRANCH  21  23
ENDBRANCH  18  19
ENDBRANCH  17  18
ENDBRANCH   8  17
TORSDOF 9
ENDMDL
MODEL 3
REMARK VINA RESULT:      -6.3      3.500      4.902
REMARK  Name = 
REMARK  12 active torsions:
REMARK  status: ('A' for Active; 'I' for Inactive)
REMARK    1  A    between atoms: C_1  and  C_2
REMARK    2  A    between atoms: C_2  and  N_3
REMARK    3  A    between atoms: N_3  and  C_4
REMARK    4  A    between atoms: C_4  and  C_5
REMARK    5  A    between atoms: C_8  and  C_9
REMARK    6  A    between atoms: C_12  and  S_13
REMARK    7  A    between atoms: S_13  and  C_14
REMARK    8  A    between atoms: C_14  and  C_15
REMARK    9  A    between atoms: N_17  and  C_18
REMARK   10  A    between atoms: C_18  and  C_19
REMARK   11  A    between atoms: C_19  and  C_20
REMARK   12  A    between atoms: C_20  and  N_21
REMARK                            x       y       z     vdW  Elec       q    Type
REMARK                         _______ _______ _______ _____ _____    ______ ____
ROOT
ATOM      1  N   UNL     1       0.725   8.469  20.763  0.00  0.00    +0.000 N 
ATOM      2  C   UNL     1       1.521   7.396  20.417  0.00  0.00    +0.000 A 
ATOM      3  N   UNL     1       1.235   6.201  20.986  0.00  0.00    +0.000 NA
ATOM      4  C   UNL     1       1.890   5.075  20.628  0.00  0.00    +0.000 A 
ATOM      5  C   UNL     1       1.444   3.772  21.204  0.00  0.00    +0.000 C 
ATOM      6  C   UNL     1       2.910   5.232  19.719  0.00  0.00    +0.000 A 
ATOM      7  N   UNL     1       3.803   4.390  19.120  0.00  0.00    +0.000 N 
ATOM      8  C   UNL     1       4.593   5.156  18.309  0.00  0.00    +0.000 A 
ATOM      9  N   UNL     1       4.260   6.422  18.333  0.00  0.00    +0.000 NA
ATOM     10  C   UNL     1       3.202   6.481  19.204  0.00  0.00    +0.000 A 
ATOM     11  N   UNL     1       2.509   7.584  19.530  0.00  0.00    +0.000 NA
ATOM     12  H   UNL     1       3.920   3.399  19.268  0.00  0.00    +0.000 HD
ENDROOT
BRANCH   1  14
ATOM     13  C   UNL     1       0.032   9.435  22.945  0.00  0.00    +0.000 C 
ATOM     14  C   UNL     1      -0.194   8.360  21.889  0.00  0.00    +0.000 C 
ENDBRANCH   1  14
BRANCH   1  15
ATOM     15  C   UNL     1       0.858   9.715  20.021  0.00  0.00    +0.000 C 
ATOM     16  C   UNL     1      -0.427  10.062  19.282  0.00  0.00    +0.000 C 
ENDBRANCH   1  15
BRANCH   8  17
ATOM     17  S   UNL     1       5.820   4.406  17.358  0.00  0.00    +0.000 S 
BRANCH  17  18
ATOM     18  C   UNL     1       7.305   5.289  17.917  0.00  0.00    +0.000 C 
BRANCH  18  19
ATOM     19  C   UNL     1       7.354   6.734  17.430  0.00  0.00    +0.000 C 
ATOM     20  O   UNL     1       6.798   7.122  16.401  0.00  0.00    +0.000 OA
ATOM     21  N   UNL     1       8.080   7.579  18.246  0.00  0.00    +0.000 N 
ATOM     22  H   UNL     1       8.535   7.215  19.075  0.00  0.00    +0.000 HD
BRANCH  21  23
ATOM     23  C   UNL     1       8.237   8.994  17.954  0.00  0.00    +0.000 C 
BRANCH  23  24
ATOM     24  C   UNL     1       9.004   9.743  19.043  0.00  0.00    +0.000 C 
BRANCH  24  25
ATOM     25  C   UNL     1       9.548  11.084  18.552  0.00  0.00    +0.000 C 
BRANCH  25  26
ATOM     26  N   UNL     1      10.901  11.297  19.053  0.00  0.00    +0.000 NA
ATOM     27  H   UNL     1      11.048  12.285  19.255  0.00  0.00    +0.000 HD
ATOM     28  H   UNL     1      11.568  11.058  18.317  0.00  0.00    +0.000 HD
ENDBRANCH  25  26
ENDBRANCH  24  25
ENDBRANCH  23  24
ENDBRANCH  21  23
ENDBRANCH  18  19
ENDBRANCH  17  18
ENDBRANCH   8  17
TORSDOF 9
ENDMDL
MODEL 4
REMARK VINA RESULT:      -6.2      3.095      4.545
REMARK  Name = 
REMARK  12 active torsions:
REMARK  status: ('A' for Active; 'I' for Inactive)
REMARK    1  A    between atoms: C_1  and  C_2
REMARK    2  A    between atoms: C_2  and  N_3
REMARK    3  A    between atoms: N_3  and  C_4
REMARK    4  A    between atoms: C_4  and  C_5
REMARK    5  A    between atoms: C_8  and  C_9
REMARK    6  A    between atoms: C_12  and  S_13
REMARK    7  A    between atoms: S_13  and  C_14
REMARK    8  A    between atoms: C_14  and  C_15
REMARK    9  A    between atoms: N_17  and  C_18
REMARK   10  A    between atoms: C_18  and  C_19
REMARK   11  A    between atoms: C_19  and  C_20
REMARK   12  A    between atoms: C_20  and  N_21
REMARK                            x       y       z     vdW  Elec       q    Type
REMARK                         _______ _______ _______ _____ _____    ______ ____
ROOT
ATOM      1  N   UNL     1       1.129   8.894  19.751  0.00  0.00    +0.000 N 
ATOM      2  C   UNL     1       1.925   7.809  19.445  0.00  0.00    +0.000 A 
ATOM      3  N   UNL     1       1.845   6.730  20.259  0.00  0.00    +0.000 NA
ATOM      4  C   UNL     1       2.506   5.585  19.980  0.00  0.00    +0.000 A 
ATOM      5  C   UNL     1       2.278   4.394  20.852  0.00  0.00    +0.000 C 
ATOM      6  C   UNL     1       3.318   5.611  18.871  0.00  0.00    +0.000 A 
ATOM      7  N   UNL     1       4.143   4.709  18.261  0.00  0.00    +0.000 N 
ATOM      8  C   UNL     1       4.704   5.341  17.187  0.00  0.00    +0.000 A 
ATOM      9  N   UNL     1       4.284   6.575  17.055  0.00  0.00    +0.000 NA
ATOM     10  C   UNL     1       3.410   6.752  18.097  0.00  0.00    +0.000 A 
ATOM     11  N   UNL     1       2.709   7.867  18.358  0.00  0.00    +0.000 NA
ATOM     12  H   UNL     1       4.362   3.769  18.554  0.00  0.00    +0.000 HD
ENDROOT
BRANCH   1  14
ATOM     13  C   UNL     1       1.388   9.328  22.183  0.00  0.00    +0.000 C 
ATOM     14  C   UNL     1       0.452   8.959  21.039  0.00  0.00    +0.000 C 
ENDBRANCH   1  14
BRANCH   1  15
ATOM     15  C   UNL     1       1.023   9.983  18.791  0.00  0.00    +0.000 C 
ATOM     16  C   UNL     1      -0.115  10.931  19.149  0.00  0.00    +0.000 C 
ENDBRANCH   1  15
BRANCH   8  17
ATOM     17  S   UNL     1       5.781   4.479  16.154  0.00  0.00    +0.000 S 
BRANCH  17  18
ATOM     18  C   UNL     1       7.370   4.729  16.996  0.00  0.00    +0.000 C 
BRANCH  18  19
ATOM     19  C   UNL     1       7.403   6.001  17.836  0.00  0.00    +0.000 C 
ATOM     20  O   UNL     1       7.348   6.003  19.067  0.00  0.00    +0.000 OA
ATOM     21  N   UNL     1       7.501   7.163  17.096  0.00  0.00    +0.000 N 
ATOM     22  H   UNL     1       7.528   7.117  16.084  0.00  0.00    +0.000 HD
BRANCH  21  23
ATOM     23  C   UNL     1       7.554   8.476  17.715  0.00  0.00    +0.000 C 
BRANCH  23  24
ATOM     24  C   UNL     1       8.849   8.715  18.491  0.00  0.00    +0.000 C 
BRANCH  24  25
ATOM     25  C   UNL     1       8.935  10.132  19.055  0.00  0.00    +0.000 C 
BRANCH  25  26
ATOM     26  N   UNL     1       9.120  11.097  17.978  0.00  0.00    +0.000 NA
ATOM     27  H   UNL     1      10.018  10.946  17.522  0.00  0.00    +0.000 HD
ATOM     28  H   UNL     1       9.162  12.037  18.378  0.00  0.00    +0.000 HD
ENDBRANCH  25  26
ENDBRANCH  24  25
ENDBRANCH  23  24
ENDBRANCH  21  23
ENDBRANCH  18  19
ENDBRANCH  17  18
ENDBRANCH   8  17
TORSDOF 9
ENDMDL
MODEL 5
REMARK VINA RESULT:      -6.2      3.118      4.226
REMARK  Name = 
REMARK  12 active torsions:
REMARK  status: ('A' for Active; 'I' for Inactive)
REMARK    1  A    between atoms: C_1  and  C_2
REMARK    2  A    between atoms: C_2  and  N_3
REMARK    3  A    between atoms: N_3  and  C_4
REMARK    4  A    between atoms: C_4  and  C_5
REMARK    5  A    between atoms: C_8  and  C_9
REMARK    6  A    between atoms: C_12  and  S_13
REMARK    7  A    between atoms: S_13  and  C_14
REMARK    8  A    between atoms: C_14  and  C_15
REMARK    9  A    between atoms: N_17  and  C_18
REMARK   10  A    between atoms: C_18  and  C_19
REMARK   11  A    between atoms: C_19  and  C_20
REMARK   12  A    between atoms: C_20  and  N_21
REMARK                            x       y       z     vdW  Elec       q    Type
REMARK                         _______ _______ _______ _____ _____    ______ ____
ROOT
ATOM      1  N   UNL     1       0.845   9.685  21.476  0.00  0.00    +0.000 N 
ATOM      2  C   UNL     1       1.237   8.600  20.718  0.00  0.00    +0.000 A 
ATOM      3  N   UNL     1       1.756   8.852  19.493  0.00  0.00    +0.000 NA
ATOM      4  C   UNL     1       2.263   7.862  18.725  0.00  0.00    +0.000 A 
ATOM      5  C   UNL     1       2.930   8.223  17.439  0.00  0.00    +0.000 C 
ATOM      6  C   UNL     1       2.145   6.588  19.227  0.00  0.00    +0.000 A 
ATOM      7  N   UNL     1       2.498   5.344  18.786  0.00  0.00    +0.000 N 
ATOM      8  C   UNL     1       2.094   4.452  19.739  0.00  0.00    +0.000 A 
ATOM      9  N   UNL     1       1.525   5.035  20.764  0.00  0.00    +0.000 NA
ATOM     10  C   UNL     1       1.560   6.372  20.459  0.00  0.00    +0.000 A 
ATOM     11  N   UNL     1       1.106   7.369  21.235  0.00  0.00    +0.000 NA
ATOM     12  H   UNL     1       2.924   5.093  17.906  0.00  0.00    +0.000 HD
ENDROOT
BRANCH   1  14
ATOM     13  C   UNL     1      -0.482  11.160  19.982  0.00  0.00    +0.000 C 
ATOM     14  C   UNL     1       0.750  11.004  20.863  0.00  0.00    +0.000 C 
ENDBRANCH   1  14
BRANCH   1  15
ATOM     15  C   UNL     1       0.484   9.478  22.871  0.00  0.00    +0.000 C 
ATOM     16  C   UNL     1      -0.835  10.158  23.211  0.00  0.00    +0.000 C 
ENDBRANCH   1  15
BRANCH   8  17
ATOM     17  S   UNL     1       2.417   2.771  19.527  0.00  0.00    +0.000 S 
BRANCH  17  18
ATOM     18  C   UNL     1       4.188   2.689  19.919  0.00  0.00    +0.000 C 
BRANCH  18  19
ATOM     19  C   UNL     1       5.049   3.482  18.942  0.00  0.00    +0.000 C 
ATOM     20  O   UNL     1       5.899   4.300  19.297  0.00  0.00    +0.000 OA
ATOM     21  N   UNL     1       4.797   3.203  17.613  0.00  0.00    +0.000 N 
ATOM     22  H   UNL     1       4.078   2.533  17.365  0.00  0.00    +0.000 HD
BRANCH  21  23
ATOM     23  C   UNL     1       5.522   3.851  16.533  0.00  0.00    +0.000 C 
BRANCH  23  24
ATOM     24  C   UNL     1       5.050   5.281  16.277  0.00  0.00    +0.000 C 
BRANCH  24  25
ATOM     25  C   UNL     1       6.186   6.296  16.391  0.00  0.00    +0.000 C 
BRANCH  25  26
ATOM     26  N   UNL     1       7.370   5.671  16.970  0.00  0.00    +0.000 NA
ATOM     27  H   UNL     1       8.170   6.297  16.892  0.00  0.00    +0.000 HD
ATOM     28  H   UNL     1       7.607   4.841  16.423  0.00  0.00    +0.000 HD
ENDBRANCH  25  26
ENDBRANCH  24  25
ENDBRANCH  23  24
ENDBRANCH  21  23
ENDBRANCH  18  19
ENDBRANCH  17  18
ENDBRANCH   8  17
TORSDOF 9
ENDMDL
MODEL 6
REMARK VINA RESULT:      -6.2      4.233      8.487
REMARK  Name = 
REMARK  12 active torsions:
REMARK  status: ('A' for Active; 'I' for Inactive)
REMARK    1  A    between atoms: C_1  and  C_2
REMARK    2  A    between atoms: C_2  and  N_3
REMARK    3  A    between atoms: N_3  and  C_4
REMARK    4  A    between atoms: C_4  and  C_5
REMARK    5  A    between atoms: C_8  and  C_9
REMARK    6  A    between atoms: C_12  and  S_13
REMARK    7  A    between atoms: S_13  and  C_14
REMARK    8  A    between atoms: C_14  and  C_15
REMARK    9  A    between atoms: N_17  and  C_18
REMARK   10  A    between atoms: C_18  and  C_19
REMARK   11  A    between atoms: C_19  and  C_20
REMARK   12  A    between atoms: C_20  and  N_21
REMARK                            x       y       z     vdW  Elec       q    Type
REMARK                         _______ _______ _______ _____ _____    ______ ____
ROOT
ATOM      1  N   UNL     1       2.773   2.997  19.433  0.00  0.00    +0.000 N 
ATOM      2  C   UNL     1       2.984   4.270  18.946  0.00  0.00    +0.000 A 
ATOM      3  N   UNL     1       3.976   4.432  18.038  0.00  0.00    +0.000 NA
ATOM      4  C   UNL     1       4.187   5.619  17.427  0.00  0.00    +0.000 A 
ATOM      5  C   UNL     1       5.216   5.697  16.348  0.00  0.00    +0.000 C 
ATOM      6  C   UNL     1       3.392   6.661  17.841  0.00  0.00    +0.000 A 
ATOM      7  N   UNL     1       3.286   7.982  17.509  0.00  0.00    +0.000 N 
ATOM      8  C   UNL     1       2.303   8.515  18.294  0.00  0.00    +0.000 A 
ATOM      9  N   UNL     1       1.760   7.629  19.091  0.00  0.00    +0.000 NA
ATOM     10  C   UNL     1       2.427   6.463  18.810  0.00  0.00    +0.000 A 
ATOM     11  N   UNL     1       2.194   5.267  19.372  0.00  0.00    +0.000 NA
ATOM     12  H   UNL     1       3.848   8.506  16.856  0.00  0.00    +0.000 HD
ENDROOT
BRANCH   1  14
ATOM     13  C   UNL     1       4.772   1.804  20.300  0.00  0.00    +0.000 C 
ATOM     14  C   UNL     1       3.752   1.948  19.178  0.00  0.00    +0.000 C 
ENDBRANCH   1  14
BRANCH   1  15
ATOM     15  C   UNL     1       1.590   2.739  20.242  0.00  0.00    +0.000 C 
ATOM     16  C   UNL     1       1.884   2.905  21.727  0.00  0.00    +0.000 C 
ENDBRANCH   1  15
BRANCH   8  17
ATOM     17  S   UNL     1       1.871  10.174  18.113  0.00  0.00    +0.000 S 
BRANCH  17  18
ATOM     18  C   UNL     1       0.070  10.061  17.913  0.00  0.00    +0.000 C 
BRANCH  18  19
ATOM     19  C   UNL     1      -0.694  10.536  19.145  0.00  0.00    +0.000 C 
ATOM     20  O   UNL     1      -1.799  11.079  19.090  0.00  0.00    +0.000 OA
ATOM     21  N   UNL     1      -0.040  10.305  20.339  0.00  0.00    +0.000 N 
ATOM     22  H   UNL     1       0.875   9.869  20.337  0.00  0.00    +0.000 HD
BRANCH  21  23
ATOM     23  C   UNL     1      -0.610  10.679  21.622  0.00  0.00    +0.000 C 
BRANCH  23  24
ATOM     24  C   UNL     1      -0.394   9.617  22.699  0.00  0.00    +0.000 C 
BRANCH  24  25
ATOM     25  C   UNL     1       1.086   9.327  22.941  0.00  0.00    +0.000 C 
BRANCH  25  26
ATOM     26  N   UNL     1       1.601   8.428  21.914  0.00  0.00    +0.000 NA
ATOM     27  H   UNL     1       1.744   7.497  22.303  0.00  0.00    +0.000 HD
ATOM     28  H   UNL     1       2.524   8.754  21.620  0.00  0.00    +0.000 HD
ENDBRANCH  25  26
ENDBRANCH  24  25
ENDBRANCH  23  24
ENDBRANCH  21  23
ENDBRANCH  18  19
ENDBRANCH  17  18
ENDBRANCH   8  17
TORSDOF 9
ENDMDL
MODEL 7
REMARK VINA RESULT:      -6.1      5.125      8.983
REMARK  Name = 
REMARK  12 active torsions:
REMARK  status: ('A' for Active; 'I' for Inactive)
REMARK    1  A    between atoms: C_1  and  C_2
REMARK    2  A    between atoms: C_2  and  N_3
REMARK    3  A    between atoms: N_3  and  C_4
REMARK    4  A    between atoms: C_4  and  C_5
REMARK    5  A    between atoms: C_8  and  C_9
REMARK    6  A    between atoms: C_12  and  S_13
REMARK    7  A    between atoms: S_13  and  C_14
REMARK    8  A    between atoms: C_14  and  C_15
REMARK    9  A    between atoms: N_17  and  C_18
REMARK   10  A    between atoms: C_18  and  C_19
REMARK   11  A    between atoms: C_19  and  C_20
REMARK   12  A    between atoms: C_20  and  N_21
REMARK                            x       y       z     vdW  Elec       q    Type
REMARK                         _______ _______ _______ _____ _____    ______ ____
ROOT
ATOM      1  N   UNL     1       5.939   3.611  12.821  0.00  0.00    +0.000 N 
ATOM      2  C   UNL     1       5.936   4.196  14.071  0.00  0.00    +0.000 A 
ATOM      3  N   UNL     1       4.932   3.859  14.914  0.00  0.00    +0.000 NA
ATOM      4  C   UNL     1       4.905   4.299  16.191  0.00  0.00    +0.000 A 
ATOM      5  C   UNL     1       3.836   3.792  17.102  0.00  0.00    +0.000 C 
ATOM      6  C   UNL     1       5.909   5.166  16.553  0.00  0.00    +0.000 A 
ATOM      7  N   UNL     1       6.237   5.835  17.698  0.00  0.00    +0.000 N 
ATOM      8  C   UNL     1       7.355   6.571  17.425  0.00  0.00    +0.000 A 
ATOM      9  N   UNL     1       7.777   6.409  16.196  0.00  0.00    +0.000 NA
ATOM     10  C   UNL     1       6.885   5.525  15.643  0.00  0.00    +0.000 A 
ATOM     11  N   UNL     1       6.928   5.041  14.392  0.00  0.00    +0.000 NA
ATOM     12  H   UNL     1       5.739   5.848  18.575  0.00  0.00    +0.000 HD
ENDROOT
BRANCH   1  14
ATOM     13  C   UNL     1       4.059   3.576  11.198  0.00  0.00    +0.000 C 
ATOM     14  C   UNL     1       4.765   2.883  12.357  0.00  0.00    +0.000 C 
ENDBRANCH   1  14
BRANCH   1  15
ATOM     15  C   UNL     1       7.106   3.776  11.967  0.00  0.00    +0.000 C 
ATOM     16  C   UNL     1       7.447   2.484  11.236  0.00  0.00    +0.000 C 
ENDBRANCH   1  15
BRANCH   8  17
ATOM     17  S   UNL     1       8.078   7.519  18.671  0.00  0.00    +0.000 S 
BRANCH  17  18
ATOM     18  C   UNL     1       8.134   9.159  17.893  0.00  0.00    +0.000 C 
BRANCH  18  19
ATOM     19  C   UNL     1       9.064  10.127  18.617  0.00  0.00    +0.000 C 
ATOM     20  O   UNL     1       9.227  10.126  19.838  0.00  0.00    +0.000 OA
ATOM     21  N   UNL     1       9.717  11.013  17.782  0.00  0.00    +0.000 N 
ATOM     22  H   UNL     1       9.542  10.989  16.783  0.00  0.00    +0.000 HD
BRANCH  21  23
ATOM     23  C   UNL     1      10.651  12.007  18.282  0.00  0.00    +0.000 C 
BRANCH  23  24
ATOM     24  C   UNL     1      11.210  12.904  17.179  0.00  0.00    +0.000 C 
BRANCH  24  25
ATOM     25  C   UNL     1      10.927  14.384  17.435  0.00  0.00    +0.000 C 
BRANCH  25  26
ATOM     26  N   UNL     1      11.041  15.144  16.196  0.00  0.00    +0.000 NA
ATOM     27  H   UNL     1      11.914  15.670  16.187  0.00  0.00    +0.000 HD
ATOM     28  H   UNL     1      10.293  15.840  16.164  0.00  0.00    +0.000 HD
ENDBRANCH  25  26
ENDBRANCH  24  25
ENDBRANCH  23  24
ENDBRANCH  21  23
ENDBRANCH  18  19
ENDBRANCH  17  18
ENDBRANCH   8  17
TORSDOF 9
ENDMDL
MODEL 8
REMARK VINA RESULT:      -6.1      3.690      8.399
REMARK  Name = 
REMARK  12 active torsions:
REMARK  status: ('A' for Active; 'I' for Inactive)
REMARK    1  A    between atoms: C_1  and  C_2
REMARK    2  A    between atoms: C_2  and  N_3
REMARK    3  A    between atoms: N_3  and  C_4
REMARK    4  A    between atoms: C_4  and  C_5
REMARK    5  A    between atoms: C_8  and  C_9
REMARK    6  A    between atoms: C_12  and  S_13
REMARK    7  A    between atoms: S_13  and  C_14
REMARK    8  A    between atoms: C_14  and  C_15
REMARK    9  A    between atoms: N_17  and  C_18
REMARK   10  A    between atoms: C_18  and  C_19
REMARK   11  A    between atoms: C_19  and  C_20
REMARK   12  A    between atoms: C_20  and  N_21
REMARK                            x       y       z     vdW  Elec       q    Type
REMARK                         _______ _______ _______ _____ _____    ______ ____
ROOT
ATOM      1  N   UNL     1       4.894   5.322  17.122  0.00  0.00    +0.000 N 
ATOM      2  C   UNL     1       3.955   5.546  18.108  0.00  0.00    +0.000 A 
ATOM      3  N   UNL     1       3.562   4.481  18.845  0.00  0.00    +0.000 NA
ATOM      4  C   UNL     1       2.728   4.622  19.899  0.00  0.00    +0.000 A 
ATOM      5  C   UNL     1       2.431   3.426  20.744  0.00  0.00    +0.000 C 
ATOM      6  C   UNL     1       2.247   5.890  20.124  0.00  0.00    +0.000 A 
ATOM      7  N   UNL     1       1.401   6.450  21.038  0.00  0.00    +0.000 N 
ATOM      8  C   UNL     1       1.297   7.777  20.728  0.00  0.00    +0.000 A 
ATOM      9  N   UNL     1       2.028   8.109  19.693  0.00  0.00    +0.000 NA
ATOM     10  C   UNL     1       2.634   6.939  19.313  0.00  0.00    +0.000 A 
ATOM     11  N   UNL     1       3.503   6.794  18.299  0.00  0.00    +0.000 NA
ATOM     12  H   UNL     1       0.890   5.990  21.777  0.00  0.00    +0.000 HD
ENDROOT
BRANCH   1  14
ATOM     13  C   UNL     1       5.835   3.874  15.336  0.00  0.00    +0.000 C 
ATOM     14  C   UNL     1       5.227   3.959  16.730  0.00  0.00    +0.000 C 
ENDBRANCH   1  14
BRANCH   1  15
ATOM     15  C   UNL     1       5.501   6.464  16.453  0.00  0.00    +0.000 C 
ATOM     16  C   UNL     1       6.776   6.909  17.158  0.00  0.00    +0.000 C 
ENDBRANCH   1  15
BRANCH   8  17
ATOM     17  S   UNL     1       0.328   8.810  21.710  0.00  0.00    +0.000 S 
BRANCH  17  18
ATOM     18  C   UNL     1       0.887  10.452  21.173  0.00  0.00    +0.000 C 
BRANCH  18  19
ATOM     19  C   UNL     1       0.481  10.777  19.739  0.00  0.00    +0.000 C 
ATOM     20  O   UNL     1       1.092  11.574  19.025  0.00  0.00    +0.000 OA
ATOM     21  N   UNL     1      -0.638  10.095  19.302  0.00  0.00    +0.000 N 
ATOM     22  H   UNL     1      -1.119   9.459  19.927  0.00  0.00    +0.000 HD
BRANCH  21  23
ATOM     23  C   UNL     1      -1.175  10.264  17.962  0.00  0.00    +0.000 C 
BRANCH  23  24
ATOM     24  C   UNL     1      -2.595  10.827  17.959  0.00  0.00    +0.000 C 
BRANCH  24  25
ATOM     25  C   UNL     1      -2.791  11.915  19.014  0.00  0.00    +0.000 C 
BRANCH  25  26
ATOM     26  N   UNL     1      -1.808  12.978  18.836  0.00  0.00    +0.000 NA
ATOM     27  H   UNL     1      -2.079  13.579  18.059  0.00  0.00    +0.000 HD
ATOM     28  H   UNL     1      -0.913  12.562  18.571  0.00  0.00    +0.000 HD
ENDBRANCH  25  26
ENDBRANCH  24  25
ENDBRANCH  23  24
ENDBRANCH  21  23
ENDBRANCH  18  19
ENDBRANCH  17  18
ENDBRANCH   8  17
TORSDOF 9
ENDMDL
MODEL 9
REMARK VINA RESULT:      -6.1      2.393      8.875
REMARK  Name = 
REMARK  12 active torsions:
REMARK  status: ('A' for Active; 'I' for Inactive)
REMARK    1  A    between atoms: C_1  and  C_2
REMARK    2  A    between atoms: C_2  and  N_3
REMARK    3  A    between atoms: N_3  and  C_4
REMARK    4  A    between atoms: C_4  and  C_5
REMARK    5  A    between atoms: C_8  and  C_9
REMARK    6  A    between atoms: C_12  and  S_13
REMARK    7  A    between atoms: S_13  and  C_14
REMARK    8  A    between atoms: C_14  and  C_15
REMARK    9  A    between atoms: N_17  and  C_18
REMARK   10  A    between atoms: C_18  and  C_19
REMARK   11  A    between atoms: C_19  and  C_20
REMARK   12  A    between atoms: C_20  and  N_21
REMARK                            x       y       z     vdW  Elec       q    Type
REMARK                         _______ _______ _______ _____ _____    ______ ____
ROOT
ATOM      1  N   UNL     1       6.714   4.540  13.903  0.00  0.00    +0.000 N 
ATOM      2  C   UNL     1       6.439   4.709  15.245  0.00  0.00    +0.000 A 
ATOM      3  N   UNL     1       7.209   5.585  15.932  0.00  0.00    +0.000 NA
ATOM      4  C   UNL     1       6.947   5.893  17.221  0.00  0.00    +0.000 A 
ATOM      5  C   UNL     1       7.759   6.958  17.883  0.00  0.00    +0.000 C 
ATOM      6  C   UNL     1       5.911   5.207  17.808  0.00  0.00    +0.000 A 
ATOM      7  N   UNL     1       5.341   5.202  19.050  0.00  0.00    +0.000 N 
ATOM      8  C   UNL     1       4.338   4.274  19.026  0.00  0.00    +0.000 A 
ATOM      9  N   UNL     1       4.213   3.699  17.856  0.00  0.00    +0.000 NA
ATOM     10  C   UNL     1       5.185   4.282  17.084  0.00  0.00    +0.000 A 
ATOM     11  N   UNL     1       5.423   4.022  15.788  0.00  0.00    +0.000 NA
ATOM     12  H   UNL     1       5.620   5.727  19.865  0.00  0.00    +0.000 HD
ENDROOT
BRANCH   1  14
ATOM     13  C   UNL     1       7.726   5.783  12.005  0.00  0.00    +0.000 C 
ATOM     14  C   UNL     1       7.944   5.081  13.339  0.00  0.00    +0.000 C 
ENDBRANCH   1  14
BRANCH   1  15
ATOM     15  C   UNL     1       5.784   3.777  13.083  0.00  0.00    +0.000 C 
ATOM     16  C   UNL     1       6.520   2.838  12.135  0.00  0.00    +0.000 C 
ENDBRANCH   1  15
BRANCH   8  17
ATOM     17  S   UNL     1       3.370   4.028  20.431  0.00  0.00    +0.000 S 
BRANCH  17  18
ATOM     18  C   UNL     1       1.874   4.968  20.012  0.00  0.00    +0.000 C 
BRANCH  18  19
ATOM     19  C   UNL     1       2.126   6.468  19.907  0.00  0.00    +0.000 C 
ATOM     20  O   UNL     1       2.950   6.966  19.137  0.00  0.00    +0.000 OA
ATOM     21  N   UNL     1       1.346   7.231  20.754  0.00  0.00    +0.000 N 
ATOM     22  H   UNL     1       0.691   6.780  21.382  0.00  0.00    +0.000 HD
BRANCH  21  23
ATOM     23  C   UNL     1       1.435   8.681  20.795  0.00  0.00    +0.000 C 
BRANCH  23  24
ATOM     24  C   UNL     1       1.469   9.233  22.219  0.00  0.00    +0.000 C 
BRANCH  24  25
ATOM     25  C   UNL     1       0.120   9.806  22.652  0.00  0.00    +0.000 C 
BRANCH  25  26
ATOM     26  N   UNL     1      -0.808   8.730  22.979  0.00  0.00    +0.000 NA
ATOM     27  H   UNL     1      -1.382   8.504  22.169  0.00  0.00    +0.000 HD
ATOM     28  H   UNL     1      -1.454   9.056  23.700  0.00  0.00    +0.000 HD
ENDBRANCH  25  26
ENDBRANCH  24  25
ENDBRANCH  23  24
ENDBRANCH  21  23
ENDBRANCH  18  19
ENDBRANCH  17  18
ENDBRANCH   8  17
TORSDOF 9
ENDMDL
