MODEL 1
REMARK VINA RESULT:      -6.0      0.000      0.000
REMARK  Name = 
REMARK  9 active torsions:
REMARK  status: ('A' for Active; 'I' for Inactive)
REMARK    1  A    between atoms: C_1  and  C_2
REMARK    2  A    between atoms: C_2  and  C_3
REMARK    3  A    between atoms: N_8  and  C_9
REMARK    4  A    between atoms: C_9  and  C_10
REMARK    5  A    between atoms: C_9  and  C_13
REMARK    6  A    between atoms: C_10  and  O_12
REMARK    7  A    between atoms: C_13  and  C_14
REMARK    8  A    between atoms: C_13  and  C_15
REMARK    9  A    between atoms: C_18  and  C_19
REMARK                            x       y       z     vdW  Elec       q    Type
REMARK                         _______ _______ _______ _____ _____    ______ ____
ROOT
ATOM      1  C   UNL     1       2.444   8.111  18.026  0.00  0.00    +0.000 C 
ATOM      2  C   UNL     1       1.952   9.039  18.861  0.00  0.00    +0.000 C 
ATOM      3  S   UNL     1       1.507   8.794  20.501  0.00  0.00    +0.000 S 
ATOM      4  C   UNL     1       0.526  10.249  20.530  0.00  0.00    +0.000 C 
ATOM      5  S   UNL     1      -0.635  10.422  21.714  0.00  0.00    +0.000 S 
ATOM      6  N   UNL     1       0.893  11.072  19.483  0.00  0.00    +0.000 N 
ATOM      7  C   UNL     1       1.613  10.437  18.471  0.00  0.00    +0.000 C 
ATOM      8  O   UNL     1       1.838  10.928  17.369  0.00  0.00    +0.000 OA
ENDROOT
BRANCH   1  10
ATOM      9  C   UNL     1       3.954   6.328  18.992  0.00  0.00    +0.000 C 
ATOM     10  C   UNL     1       2.644   6.694  18.347  0.00  0.00    +0.000 C 
ATOM     11  C   UNL     1       1.702   5.783  18.028  0.00  0.00    +0.000 C 
BRANCH  11  12
ATOM     12  C   UNL     1       1.762   4.348  18.300  0.00  0.00    +0.000 A 
ATOM     13  C   UNL     1       2.395   3.476  17.405  0.00  0.00    +0.000 A 
ATOM     14  C   UNL     1       2.507   2.118  17.712  0.00  0.00    +0.000 A 
ATOM     15  C   UNL     1       1.986   1.626  18.908  0.00  0.00    +0.000 A 
ATOM     16  C   UNL     1       1.348   2.491  19.797  0.00  0.00    +0.000 A 
ATOM     17  C   UNL     1       1.233   3.847  19.495  0.00  0.00    +0.000 A 
ENDBRANCH  11  12
ENDBRANCH   1  10
BRANCH   6  18
ATOM     18  C   UNL     1       0.420  12.448  19.194  0.00  0.00    +0.000 C 
BRANCH  18  19
ATOM     19  C   UNL     1       0.537  13.484  20.342  0.00  0.00    +0.000 C 
ATOM     20  C   UNL     1       1.977  13.561  20.860  0.00  0.00    +0.000 C 
ATOM     21  C   UNL     1       0.079  14.890  19.934  0.00  0.00    +0.000 C 
ENDBRANCH  18  19
BRANCH  18  22
ATOM     22  C   UNL     1      -1.001  12.326  18.628  0.00  0.00    +0.000 C 
ATOM     23  O   UNL     1      -2.005  12.147  19.299  0.00  0.00    +0.000 OA
BRANCH  22  24
ATOM     24  O   UNL     1      -1.047  12.359  17.271  0.00  0.00    +0.000 OA
ATOM     25  H   UNL     1      -0.195  12.597  16.837  0.00  0.00    +0.000 HD
ENDBRANCH  22  24
ENDBRANCH  18  22
ENDBRANCH   6  18
TORSDOF 6
ENDMDL
MODEL 2
REMARK VINA RESULT:      -5.9      4.003      8.286
REMARK  Name = 
REMARK  9 active torsions:
REMARK  status: ('A' for Active; 'I' for Inactive)
REMARK    1  A    between atoms: C_1  and  C_2
REMARK    2  A    between atoms: C_2  and  C_3
REMARK    3  A    between atoms: N_8  and  C_9
REMARK    4  A    between atoms: C_9  and  C_10
REMARK    5  A    between atoms: C_9  and  C_13
REMARK    6  A    between atoms: C_10  and  O_12
REMARK    7  A    between atoms: C_13  and  C_14
REMARK    8  A    between atoms: C_13  and  C_15
REMARK    9  A    between atoms: C_18  and  C_19
REMARK                            x       y       z     vdW  Elec       q    Type
REMARK                         _______ _______ _______ _____ _____    ______ ____
ROOT
ATOM      1  C   UNL     1       2.646   8.585  17.723  0.00  0.00    +0.000 C 
ATOM      2  C   UNL     1       3.199   7.361  17.761  0.00  0.00    +0.000 C 
ATOM      3  S   UNL     1       2.742   6.075  18.802  0.00  0.00    +0.000 S 
ATOM      4  C   UNL     1       4.262   5.234  18.551  0.00  0.00    +0.000 C 
ATOM      5  S   UNL     1       4.741   4.077  19.651  0.00  0.00    +0.000 S 
ATOM      6  N   UNL     1       4.867   5.709  17.403  0.00  0.00    +0.000 N 
ATOM      7  C   UNL     1       4.382   6.940  16.959  0.00  0.00    +0.000 C 
ATOM      8  O   UNL     1       4.926   7.629  16.102  0.00  0.00    +0.000 OA
ENDROOT
BRANCH   1  10
ATOM      9  C   UNL     1       0.268   9.408  17.954  0.00  0.00    +0.000 C 
ATOM     10  C   UNL     1       1.581   9.067  18.606  0.00  0.00    +0.000 C 
ATOM     11  C   UNL     1       1.810   9.230  19.925  0.00  0.00    +0.000 C 
BRANCH  11  12
ATOM     12  C   UNL     1       0.840   9.687  20.920  0.00  0.00    +0.000 A 
ATOM     13  C   UNL     1       0.276   8.789  21.834  0.00  0.00    +0.000 A 
ATOM     14  C   UNL     1      -0.595   9.252  22.823  0.00  0.00    +0.000 A 
ATOM     15  C   UNL     1      -0.907  10.610  22.900  0.00  0.00    +0.000 A 
ATOM     16  C   UNL     1      -0.353  11.505  21.986  0.00  0.00    +0.000 A 
ATOM     17  C   UNL     1       0.516  11.047  20.996  0.00  0.00    +0.000 A 
ENDBRANCH  11  12
ENDBRANCH   1  10
BRANCH   6  18
ATOM     18  C   UNL     1       6.096   5.206  16.743  0.00  0.00    +0.000 C 
BRANCH  18  19
ATOM     19  C   UNL     1       5.979   3.863  15.977  0.00  0.00    +0.000 C 
ATOM     20  C   UNL     1       4.547   3.322  16.044  0.00  0.00    +0.000 C 
ATOM     21  C   UNL     1       6.402   3.969  14.506  0.00  0.00    +0.000 C 
ENDBRANCH  18  19
BRANCH  18  22
ATOM     22  C   UNL     1       7.207   5.208  17.801  0.00  0.00    +0.000 C 
ATOM     23  O   UNL     1       7.509   6.168  18.492  0.00  0.00    +0.000 OA
BRANCH  22  24
ATOM     24  O   UNL     1       7.899   4.041  17.859  0.00  0.00    +0.000 OA
ATOM     25  H   UNL     1       8.591   3.939  17.166  0.00  0.00    +0.000 HD
ENDBRANCH  22  24
ENDBRANCH  18  22
ENDBRANCH   6  18
TORSDOF 6
ENDMDL
MODEL 3
REMARK VINA RESULT:      -5.9      2.984      3.838
REMARK  Name = 
REMARK  9 active torsions:
REMARK  status: ('A' for Active; 'I' for Inactive)
REMARK    1  A    between atoms: C_1  and  C_2
REMARK    2  A    between atoms: C_2  and  C_3
REMARK    3  A    between atoms: N_8  and  C_9
REMARK    4  A    between atoms: C_9  and  C_10
REMARK    5  A    between atoms: C_9  and  C_13
REMARK    6  A    between atoms: C_10  and  O_12
REMARK    7  A    between atoms: C_13  and  C_14
REMARK    8  A    between atoms: C_13  and  C_15
REMARK    9  A    between atoms: C_18  and  C_19
REMARK                            x       y       z     vdW  Elec       q    Type
REMARK                         _______ _______ _______ _____ _____    ______ ____
ROOT
ATOM      1  C   UNL     1       1.200   8.415  21.283  0.00  0.00    +0.000 C 
ATOM      2  C   UNL     1       0.229   9.337  21.178  0.00  0.00    +0.000 C 
ATOM      3  S   UNL     1      -0.557   9.820  19.730  0.00  0.00    +0.000 S 
ATOM      4  C   UNL     1      -1.134  11.311  20.454  0.00  0.00    +0.000 C 
ATOM      5  S   UNL     1      -1.610  12.564  19.462  0.00  0.00    +0.000 S 
ATOM      6  N   UNL     1      -1.087  11.202  21.830  0.00  0.00    +0.000 N 
ATOM      7  C   UNL     1      -0.269  10.177  22.303  0.00  0.00    +0.000 C 
ATOM      8  O   UNL     1       0.079  10.053  23.474  0.00  0.00    +0.000 OA
ENDROOT
BRANCH   1  10
ATOM      9  C   UNL     1       2.087   8.476  18.918  0.00  0.00    +0.000 C 
ATOM     10  C   UNL     1       1.808   7.685  20.167  0.00  0.00    +0.000 C 
ATOM     11  C   UNL     1       2.054   6.363  20.270  0.00  0.00    +0.000 C 
BRANCH  11  12
ATOM     12  C   UNL     1       2.666   5.517  19.246  0.00  0.00    +0.000 A 
ATOM     13  C   UNL     1       4.059   5.410  19.146  0.00  0.00    +0.000 A 
ATOM     14  C   UNL     1       4.629   4.543  18.211  0.00  0.00    +0.000 A 
ATOM     15  C   UNL     1       3.812   3.787  17.370  0.00  0.00    +0.000 A 
ATOM     16  C   UNL     1       2.425   3.898  17.462  0.00  0.00    +0.000 A 
ATOM     17  C   UNL     1       1.852   4.762  18.394  0.00  0.00    +0.000 A 
ENDBRANCH  11  12
ENDBRANCH   1  10
BRANCH   6  18
ATOM     18  C   UNL     1      -1.590  12.166  22.840  0.00  0.00    +0.000 C 
BRANCH  18  19
ATOM     19  C   UNL     1      -3.069  12.613  22.705  0.00  0.00    +0.000 C 
ATOM     20  C   UNL     1      -3.807  12.459  24.039  0.00  0.00    +0.000 C 
ATOM     21  C   UNL     1      -3.218  14.060  22.218  0.00  0.00    +0.000 C 
ENDBRANCH  18  19
BRANCH  18  22
ATOM     22  C   UNL     1      -0.601  13.338  22.874  0.00  0.00    +0.000 C 
ATOM     23  O   UNL     1       0.281  13.529  22.052  0.00  0.00    +0.000 OA
BRANCH  22  24
ATOM     24  O   UNL     1      -0.741  14.132  23.967  0.00  0.00    +0.000 OA
ATOM     25  H   UNL     1      -0.386  15.044  23.862  0.00  0.00    +0.000 HD
ENDBRANCH  22  24
ENDBRANCH  18  22
ENDBRANCH   6  18
TORSDOF 6
ENDMDL
MODEL 4
REMARK VINA RESULT:      -5.8      3.865      8.227
REMARK  Name = 
REMARK  9 active torsions:
REMARK  status: ('A' for Active; 'I' for Inactive)
REMARK    1  A    between atoms: C_1  and  C_2
REMARK    2  A    between atoms: C_2  and  C_3
REMARK    3  A    between atoms: N_8  and  C_9
REMARK    4  A    between atoms: C_9  and  C_10
REMARK    5  A    between atoms: C_9  and  C_13
REMARK    6  A    between atoms: C_10  and  O_12
REMARK    7  A    between atoms: C_13  and  C_14
REMARK    8  A    between atoms: C_13  and  C_15
REMARK    9  A    between atoms: C_18  and  C_19
REMARK                            x       y       z     vdW  Elec       q    Type
REMARK                         _______ _______ _______ _____ _____    ______ ____
ROOT
ATOM      1  C   UNL     1       2.470   8.660  17.827  0.00  0.00    +0.000 C 
ATOM      2  C   UNL     1       3.029   7.441  17.891  0.00  0.00    +0.000 C 
ATOM      3  S   UNL     1       2.637   6.203  19.014  0.00  0.00    +0.000 S 
ATOM      4  C   UNL     1       4.144   5.354  18.718  0.00  0.00    +0.000 C 
ATOM      5  S   UNL     1       4.688   4.251  19.843  0.00  0.00    +0.000 S 
ATOM      6  N   UNL     1       4.681   5.777  17.518  0.00  0.00    +0.000 N 
ATOM      7  C   UNL     1       4.168   6.984  17.045  0.00  0.00    +0.000 C 
ATOM      8  O   UNL     1       4.660   7.634  16.127  0.00  0.00    +0.000 OA
ENDROOT
BRANCH   1  10
ATOM      9  C   UNL     1       0.126   9.554  18.140  0.00  0.00    +0.000 C 
ATOM     10  C   UNL     1       1.453   9.181  18.745  0.00  0.00    +0.000 C 
ATOM     11  C   UNL     1       1.736   9.349  20.053  0.00  0.00    +0.000 C 
BRANCH  11  12
ATOM     12  C   UNL     1       0.819   9.843  21.078  0.00  0.00    +0.000 A 
ATOM     13  C   UNL     1       0.434  11.189  21.105  0.00  0.00    +0.000 A 
ATOM     14  C   UNL     1      -0.498  11.632  22.047  0.00  0.00    +0.000 A 
ATOM     15  C   UNL     1      -1.044  10.735  22.965  0.00  0.00    +0.000 A 
ATOM     16  C   UNL     1      -0.656   9.396  22.946  0.00  0.00    +0.000 A 
ATOM     17  C   UNL     1       0.274   8.950  22.009  0.00  0.00    +0.000 A 
ENDBRANCH  11  12
ENDBRANCH   1  10
BRANCH   6  18
ATOM     18  C   UNL     1       5.875   5.246  16.814  0.00  0.00    +0.000 C 
BRANCH  18  19
ATOM     19  C   UNL     1       5.733   3.851  16.151  0.00  0.00    +0.000 C 
ATOM     20  C   UNL     1       4.303   3.320  16.304  0.00  0.00    +0.000 C 
ATOM     21  C   UNL     1       6.107   3.850  14.663  0.00  0.00    +0.000 C 
ENDBRANCH  18  19
BRANCH  18  22
ATOM     22  C   UNL     1       7.052   5.336  17.794  0.00  0.00    +0.000 C 
ATOM     23  O   UNL     1       7.413   6.358  18.356  0.00  0.00    +0.000 OA
BRANCH  22  24
ATOM     24  O   UNL     1       7.727   4.167  17.936  0.00  0.00    +0.000 OA
ATOM     25  H   UNL     1       8.611   4.147  17.501  0.00  0.00    +0.000 HD
ENDBRANCH  22  24
ENDBRANCH  18  22
ENDBRANCH   6  18
TORSDOF 6
ENDMDL
MODEL 5
REMARK VINA RESULT:      -5.7      1.034      1.312
REMARK  Name = 
REMARK  9 active torsions:
REMARK  status: ('A' for Active; 'I' for Inactive)
REMARK    1  A    between atoms: C_1  and  C_2
REMARK    2  A    between atoms: C_2  and  C_3
REMARK    3  A    between atoms: N_8  and  C_9
REMARK    4  A    between atoms: C_9  and  C_10
REMARK    5  A    between atoms: C_9  and  C_13
REMARK    6  A    between atoms: C_10  and  O_12
REMARK    7  A    between atoms: C_13  and  C_14
REMARK    8  A    between atoms: C_13  and  C_15
REMARK    9  A    between atoms: C_18  and  C_19
REMARK                            x       y       z     vdW  Elec       q    Type
REMARK                         _______ _______ _______ _____ _____    ______ ____
ROOT
ATOM      1  C   UNL     1       2.970   7.968  17.687  0.00  0.00    +0.000 C 
ATOM      2  C   UNL     1       2.296   8.705  18.585  0.00  0.00    +0.000 C 
ATOM      3  S   UNL     1       1.855   8.217  20.171  0.00  0.00    +0.000 S 
ATOM      4  C   UNL     1       0.631   9.468  20.296  0.00  0.00    +0.000 C 
ATOM      5  S   UNL     1      -0.575   9.313  21.435  0.00  0.00    +0.000 S 
ATOM      6  N   UNL     1       0.876  10.447  19.352  0.00  0.00    +0.000 N 
ATOM      7  C   UNL     1       1.726  10.055  18.318  0.00  0.00    +0.000 C 
ATOM      8  O   UNL     1       1.892  10.690  17.280  0.00  0.00    +0.000 OA
ENDROOT
BRANCH   1  10
ATOM      9  C   UNL     1       4.874   6.306  17.676  0.00  0.00    +0.000 C 
ATOM     10  C   UNL     1       3.408   6.582  17.877  0.00  0.00    +0.000 C 
ATOM     11  C   UNL     1       2.513   5.618  18.174  0.00  0.00    +0.000 C 
BRANCH  11  12
ATOM     12  C   UNL     1       2.810   4.205  18.404  0.00  0.00    +0.000 A 
ATOM     13  C   UNL     1       3.383   3.782  19.610  0.00  0.00    +0.000 A 
ATOM     14  C   UNL     1       3.597   2.421  19.844  0.00  0.00    +0.000 A 
ATOM     15  C   UNL     1       3.244   1.482  18.875  0.00  0.00    +0.000 A 
ATOM     16  C   UNL     1       2.681   1.901  17.670  0.00  0.00    +0.000 A 
ATOM     17  C   UNL     1       2.467   3.258  17.432  0.00  0.00    +0.000 A 
ENDBRANCH  11  12
ENDBRANCH   1  10
BRANCH   6  18
ATOM     18  C   UNL     1       0.175  11.742  19.176  0.00  0.00    +0.000 C 
BRANCH  18  19
ATOM     19  C   UNL     1       0.189  12.715  20.384  0.00  0.00    +0.000 C 
ATOM     20  C   UNL     1       1.624  12.969  20.860  0.00  0.00    +0.000 C 
ATOM     21  C   UNL     1      -0.481  14.061  20.082  0.00  0.00    +0.000 C 
ENDBRANCH  18  19
BRANCH  18  22
ATOM     22  C   UNL     1      -1.238  11.424  18.669  0.00  0.00    +0.000 C 
ATOM     23  O   UNL     1      -2.246  11.448  19.356  0.00  0.00    +0.000 OA
BRANCH  22  24
ATOM     24  O   UNL     1      -1.268  11.028  17.370  0.00  0.00    +0.000 OA
ATOM     25  H   UNL     1      -2.087  11.278  16.883  0.00  0.00    +0.000 HD
ENDBRANCH  22  24
ENDBRANCH  18  22
ENDBRANCH   6  18
TORSDOF 6
ENDMDL
MODEL 6
REMARK VINA RESULT:      -5.7      1.556      2.139
REMARK  Name = 
REMARK  9 active torsions:
REMARK  status: ('A' for Active; 'I' for Inactive)
REMARK    1  A    between atoms: C_1  and  C_2
REMARK    2  A    between atoms: C_2  and  C_3
REMARK    3  A    between atoms: N_8  and  C_9
REMARK    4  A    between atoms: C_9  and  C_10
REMARK    5  A    between atoms: C_9  and  C_13
REMARK    6  A    between atoms: C_10  and  O_12
REMARK    7  A    between atoms: C_13  and  C_14
REMARK    8  A    between atoms: C_13  and  C_15
REMARK    9  A    between atoms: C_18  and  C_19
REMARK                            x       y       z     vdW  Elec       q    Type
REMARK                         _______ _______ _______ _____ _____    ______ ____
ROOT
ATOM      1  C   UNL     1       2.339   8.051  18.038  0.00  0.00    +0.000 C 
ATOM      2  C   UNL     1       1.817   8.695  19.095  0.00  0.00    +0.000 C 
ATOM      3  S   UNL     1       1.729   8.101  20.703  0.00  0.00    +0.000 S 
ATOM      4  C   UNL     1       0.485   9.258  21.142  0.00  0.00    +0.000 C 
ATOM      5  S   UNL     1      -0.460   8.965  22.484  0.00  0.00    +0.000 S 
ATOM      6  N   UNL     1       0.481  10.296  20.231  0.00  0.00    +0.000 N 
ATOM      7  C   UNL     1       1.129  10.016  19.028  0.00  0.00    +0.000 C 
ATOM      8  O   UNL     1       1.048  10.710  18.020  0.00  0.00    +0.000 OA
ENDROOT
BRANCH   1  10
ATOM      9  C   UNL     1       4.301   6.528  17.569  0.00  0.00    +0.000 C 
ATOM     10  C   UNL     1       2.886   6.691  18.054  0.00  0.00    +0.000 C 
ATOM     11  C   UNL     1       2.119   5.653  18.446  0.00  0.00    +0.000 C 
BRANCH  11  12
ATOM     12  C   UNL     1       2.536   4.253  18.523  0.00  0.00    +0.000 A 
ATOM     13  C   UNL     1       2.322   3.383  17.448  0.00  0.00    +0.000 A 
ATOM     14  C   UNL     1       2.789   2.068  17.508  0.00  0.00    +0.000 A 
ATOM     15  C   UNL     1       3.466   1.617  18.642  0.00  0.00    +0.000 A 
ATOM     16  C   UNL     1       3.673   2.480  19.718  0.00  0.00    +0.000 A 
ATOM     17  C   UNL     1       3.208   3.793  19.662  0.00  0.00    +0.000 A 
ENDBRANCH  11  12
ENDBRANCH   1  10
BRANCH   6  18
ATOM     18  C   UNL     1      -0.314  11.548  20.276  0.00  0.00    +0.000 C 
BRANCH  18  19
ATOM     19  C   UNL     1      -0.781  12.130  18.916  0.00  0.00    +0.000 C 
ATOM     20  C   UNL     1      -2.268  11.841  18.683  0.00  0.00    +0.000 C 
ATOM     21  C   UNL     1      -0.543  13.641  18.794  0.00  0.00    +0.000 C 
ENDBRANCH  18  19
BRANCH  18  22
ATOM     22  C   UNL     1       0.475  12.551  21.128  0.00  0.00    +0.000 C 
ATOM     23  O   UNL     1       1.679  12.736  21.048  0.00  0.00    +0.000 OA
BRANCH  22  24
ATOM     24  O   UNL     1      -0.284  13.185  22.058  0.00  0.00    +0.000 OA
ATOM     25  H   UNL     1       0.228  13.675  22.742  0.00  0.00    +0.000 HD
ENDBRANCH  22  24
ENDBRANCH  18  22
ENDBRANCH   6  18
TORSDOF 6
ENDMDL
MODEL 7
REMARK VINA RESULT:      -5.7      2.571      3.370
REMARK  Name = 
REMARK  9 active torsions:
REMARK  status: ('A' for Active; 'I' for Inactive)
REMARK    1  A    between atoms: C_1  and  C_2
REMARK    2  A    between atoms: C_2  and  C_3
REMARK    3  A    between atoms: N_8  and  C_9
REMARK    4  A    between atoms: C_9  and  C_10
REMARK    5  A    between atoms: C_9  and  C_13
REMARK    6  A    between atoms: C_10  and  O_12
REMARK    7  A    between atoms: C_13  and  C_14
REMARK    8  A    between atoms: C_13  and  C_15
REMARK    9  A    between atoms: C_18  and  C_19
REMARK                            x       y       z     vdW  Elec       q    Type
REMARK                         _______ _______ _______ _____ _____    ______ ____
ROOT
ATOM      1  C   UNL     1       1.350   8.526  20.875  0.00  0.00    +0.000 C 
ATOM      2  C   UNL     1       0.641   9.636  20.611  0.00  0.00    +0.000 C 
ATOM      3  S   UNL     1       0.180  10.199  19.056  0.00  0.00    +0.000 S 
ATOM      4  C   UNL     1      -0.123  11.821  19.652  0.00  0.00    +0.000 C 
ATOM      5  S   UNL     1      -0.165  13.089  18.570  0.00  0.00    +0.000 S 
ATOM      6  N   UNL     1      -0.278  11.786  21.024  0.00  0.00    +0.000 N 
ATOM      7  C   UNL     1       0.212  10.631  21.634  0.00  0.00    +0.000 C 
ATOM      8  O   UNL     1       0.370  10.501  22.844  0.00  0.00    +0.000 OA
ENDROOT
BRANCH   1  10
ATOM      9  C   UNL     1       2.280   8.215  18.546  0.00  0.00    +0.000 C 
ATOM     10  C   UNL     1       1.910   7.613  19.874  0.00  0.00    +0.000 C 
ATOM     11  C   UNL     1       2.034   6.298  20.144  0.00  0.00    +0.000 C 
BRANCH  11  12
ATOM     12  C   UNL     1       2.585   5.281  19.250  0.00  0.00    +0.000 A 
ATOM     13  C   UNL     1       1.757   4.585  18.361  0.00  0.00    +0.000 A 
ATOM     14  C   UNL     1       2.308   3.668  17.463  0.00  0.00    +0.000 A 
ATOM     15  C   UNL     1       3.684   3.440  17.453  0.00  0.00    +0.000 A 
ATOM     16  C   UNL     1       4.510   4.126  18.342  0.00  0.00    +0.000 A 
ATOM     17  C   UNL     1       3.964   5.041  19.241  0.00  0.00    +0.000 A 
ENDBRANCH  11  12
ENDBRANCH   1  10
BRANCH   6  18
ATOM     18  C   UNL     1      -0.668  12.895  21.928  0.00  0.00    +0.000 C 
BRANCH  18  19
ATOM     19  C   UNL     1      -2.122  13.422  21.803  0.00  0.00    +0.000 C 
ATOM     20  C   UNL     1      -3.008  12.402  21.079  0.00  0.00    +0.000 C 
ATOM     21  C   UNL     1      -2.758  13.761  23.157  0.00  0.00    +0.000 C 
ENDBRANCH  18  19
BRANCH  18  22
ATOM     22  C   UNL     1       0.391  13.994  21.774  0.00  0.00    +0.000 C 
ATOM     23  O   UNL     1       1.586  13.843  21.976  0.00  0.00    +0.000 OA
BRANCH  22  24
ATOM     24  O   UNL     1      -0.131  15.207  21.456  0.00  0.00    +0.000 OA
ATOM     25  H   UNL     1      -0.237  15.368  20.490  0.00  0.00    +0.000 HD
ENDBRANCH  22  24
ENDBRANCH  18  22
ENDBRANCH   6  18
TORSDOF 6
ENDMDL
MODEL 8
REMARK VINA RESULT:      -5.7      2.810      3.855
REMARK  Name = 
REMARK  9 active torsions:
REMARK  status: ('A' for Active; 'I' for Inactive)
REMARK    1  A    between atoms: C_1  and  C_2
REMARK    2  A    between atoms: C_2  and  C_3
REMARK    3  A    between atoms: N_8  and  C_9
REMARK    4  A    between atoms: C_9  and  C_10
REMARK    5  A    between atoms: C_9  and  C_13
REMARK    6  A    between atoms: C_10  and  O_12
REMARK    7  A    between atoms: C_13  and  C_14
REMARK    8  A    between atoms: C_13  and  C_15
REMARK    9  A    between atoms: C_18  and  C_19
REMARK                            x       y       z     vdW  Elec       q    Type
REMARK                         _______ _______ _______ _____ _____    ______ ____
ROOT
ATOM      1  C   UNL     1       2.039   6.999  19.783  0.00  0.00    +0.000 C 
ATOM      2  C   UNL     1       1.557   8.202  19.429  0.00  0.00    +0.000 C 
ATOM      3  S   UNL     1       2.111   9.173  18.127  0.00  0.00    +0.000 S 
ATOM      4  C   UNL     1       1.374  10.619  18.794  0.00  0.00    +0.000 C 
ATOM      5  S   UNL     1       1.906  12.113  18.281  0.00  0.00    +0.000 S 
ATOM      6  N   UNL     1       0.407  10.260  19.714  0.00  0.00    +0.000 N 
ATOM      7  C   UNL     1       0.508   8.949  20.179  0.00  0.00    +0.000 C 
ATOM      8  O   UNL     1      -0.105   8.509  21.147  0.00  0.00    +0.000 OA
ENDROOT
BRANCH   1  10
ATOM      9  C   UNL     1       3.784   5.176  19.920  0.00  0.00    +0.000 C 
ATOM     10  C   UNL     1       3.170   6.314  19.150  0.00  0.00    +0.000 C 
ATOM     11  C   UNL     1       3.641   6.734  17.958  0.00  0.00    +0.000 C 
BRANCH  11  12
ATOM     12  C   UNL     1       4.748   6.139  17.210  0.00  0.00    +0.000 A 
ATOM     13  C   UNL     1       6.035   6.683  17.282  0.00  0.00    +0.000 A 
ATOM     14  C   UNL     1       7.096   6.063  16.619  0.00  0.00    +0.000 A 
ATOM     15  C   UNL     1       6.875   4.902  15.878  0.00  0.00    +0.000 A 
ATOM     16  C   UNL     1       5.591   4.362  15.797  0.00  0.00    +0.000 A 
ATOM     17  C   UNL     1       4.530   4.979  16.457  0.00  0.00    +0.000 A 
ENDBRANCH  11  12
ENDBRANCH   1  10
BRANCH   6  18
ATOM     18  C   UNL     1      -0.547  11.143  20.428  0.00  0.00    +0.000 C 
BRANCH  18  19
ATOM     19  C   UNL     1      -1.288  12.206  19.577  0.00  0.00    +0.000 C 
ATOM     20  C   UNL     1      -2.043  11.544  18.419  0.00  0.00    +0.000 C 
ATOM     21  C   UNL     1      -2.274  13.052  20.394  0.00  0.00    +0.000 C 
ENDBRANCH  18  19
BRANCH  18  22
ATOM     22  C   UNL     1       0.204  11.740  21.626  0.00  0.00    +0.000 C 
ATOM     23  O   UNL     1       1.010  12.654  21.557  0.00  0.00    +0.000 OA
BRANCH  22  24
ATOM     24  O   UNL     1      -0.052  11.101  22.797  0.00  0.00    +0.000 OA
ATOM     25  H   UNL     1       0.178  10.144  22.802  0.00  0.00    +0.000 HD
ENDBRANCH  22  24
ENDBRANCH  18  22
ENDBRANCH   6  18
TORSDOF 6
ENDMDL
MODEL 9
REMARK VINA RESULT:      -5.7      1.499      2.083
REMARK  Name = 
REMARK  9 active torsions:
REMARK  status: ('A' for Active; 'I' for Inactive)
REMARK    1  A    between atoms: C_1  and  C_2
REMARK    2  A    between atoms: C_2  and  C_3
REMARK    3  A    between atoms: N_8  and  C_9
REMARK    4  A    between atoms: C_9  and  C_10
REMARK    5  A    between atoms: C_9  and  C_13
REMARK    6  A    between atoms: C_10  and  O_12
REMARK    7  A    between atoms: C_13  and  C_14
REMARK    8  A    between atoms: C_13  and  C_15
REMARK    9  A    between atoms: C_18  and  C_19
REMARK                            x       y       z     vdW  Elec       q    Type
REMARK                         _______ _______ _______ _____ _____    ______ ____
ROOT
ATOM      1  C   UNL     1       2.507   8.030  17.927  0.00  0.00    +0.000 C 
ATOM      2  C   UNL     1       1.939   8.683  18.954  0.00  0.00    +0.000 C 
ATOM      3  S   UNL     1       1.751   8.089  20.553  0.00  0.00    +0.000 S 
ATOM      4  C   UNL     1       0.505   9.268  20.925  0.00  0.00    +0.000 C 
ATOM      5  S   UNL     1      -0.517   8.991  22.211  0.00  0.00    +0.000 S 
ATOM      6  N   UNL     1       0.571  10.307  20.016  0.00  0.00    +0.000 N 
ATOM      7  C   UNL     1       1.280  10.016  18.851  0.00  0.00    +0.000 C 
ATOM      8  O   UNL     1       1.268  10.713  17.841  0.00  0.00    +0.000 OA
ENDROOT
BRANCH   1  10
ATOM      9  C   UNL     1       4.446   6.463  17.508  0.00  0.00    +0.000 C 
ATOM     10  C   UNL     1       3.027   6.661  17.970  0.00  0.00    +0.000 C 
ATOM     11  C   UNL     1       2.235   5.643  18.366  0.00  0.00    +0.000 C 
BRANCH  11  12
ATOM     12  C   UNL     1       2.624   4.237  18.470  0.00  0.00    +0.000 A 
ATOM     13  C   UNL     1       2.400   3.352  17.408  0.00  0.00    +0.000 A 
ATOM     14  C   UNL     1       2.841   2.030  17.494  0.00  0.00    +0.000 A 
ATOM     15  C   UNL     1       3.501   1.586  18.640  0.00  0.00    +0.000 A 
ATOM     16  C   UNL     1       3.718   2.463  19.702  0.00  0.00    +0.000 A 
ATOM     17  C   UNL     1       3.279   3.783  19.621  0.00  0.00    +0.000 A 
ENDBRANCH  11  12
ENDBRANCH   1  10
BRANCH   6  18
ATOM     18  C   UNL     1      -0.202  11.574  20.020  0.00  0.00    +0.000 C 
BRANCH  18  19
ATOM     19  C   UNL     1      -1.408  11.659  19.048  0.00  0.00    +0.000 C 
ATOM     20  C   UNL     1      -1.864  10.259  18.623  0.00  0.00    +0.000 C 
ATOM     21  C   UNL     1      -2.606  12.414  19.640  0.00  0.00    +0.000 C 
ENDBRANCH  18  19
BRANCH  18  22
ATOM     22  C   UNL     1       0.806  12.716  19.839  0.00  0.00    +0.000 C 
ATOM     23  O   UNL     1       1.673  13.013  20.645  0.00  0.00    +0.000 OA
BRANCH  22  24
ATOM     24  O   UNL     1       0.604  13.441  18.710  0.00  0.00    +0.000 OA
ATOM     25  H   UNL     1       0.030  13.005  18.038  0.00  0.00    +0.000 HD
ENDBRANCH  22  24
ENDBRANCH  18  22
ENDBRANCH   6  18
TORSDOF 6
ENDMDL
