MODEL 1
REMARK VINA RESULT:      -8.6      0.000      0.000
REMARK  Name = 
REMARK  10 active torsions:
REMARK  status: ('A' for Active; 'I' for Inactive)
REMARK    1  A    between atoms: C_1  and  C_2
REMARK    2  A    between atoms: C_2  and  C_3
REMARK    3  A    between atoms: C_3  and  C_4
REMARK    4  A    between atoms: C_4  and  N_5
REMARK    5  A    between atoms: C_8  and  O_9
REMARK    6  A    between atoms: C_8  and  C_10
REMARK    7  A    between atoms: CA_12  and  C_13
REMARK    8  A    between atoms: C_13  and  OXT_15
REMARK    9  A    between atoms: C_17  and  C_18
REMARK   10  A    between atoms: C_20  and  C_21
REMARK                            x       y       z     vdW  Elec       q    Type
REMARK                         _______ _______ _______ _____ _____    ______ ____
ROOT
ATOM      1  C   UNL     1       5.867   4.651  16.788  0.00  0.00    +0.000 A 
ATOM      2  C   UNL     1       5.744   3.879  15.581  0.00  0.00    +0.000 A 
ATOM      3  CA  UNL     1       6.547   4.432  14.600  0.00  0.00    +0.000 A 
ATOM      4  N   UNL     1       7.159   5.517  15.184  0.00  0.00    +0.000 N 
ATOM      5  C   UNL     1       6.807   5.641  16.506  0.00  0.00    +0.000 A 
ATOM      6  H   UNL     1       7.806   6.113  14.684  0.00  0.00    +0.000 HD
ENDROOT
BRANCH   1  10
ATOM      7  N   UNL     1       2.740   4.156  18.329  0.00  0.00    +0.000 N 
ATOM      8  C   UNL     1       3.114   5.243  19.186  0.00  0.00    +0.000 C 
ATOM      9  C   UNL     1       4.418   5.714  18.580  0.00  0.00    +0.000 C 
ATOM     10  C   UNL     1       5.102   4.418  18.086  0.00  0.00    +0.000 C 
ATOM     11  C   UNL     1       3.867   3.483  17.867  0.00  0.00    +0.000 C 
ATOM     12  O   UNL     1       3.862   2.371  17.357  0.00  0.00    +0.000 OA
BRANCH  10  13
ATOM     13  O   UNL     1       5.939   3.900  19.113  0.00  0.00    +0.000 OA
ATOM     14  H   UNL     1       6.559   4.610  19.365  0.00  0.00    +0.000 HD
ENDBRANCH  10  13
BRANCH   7  15
ATOM     15  C   UNL     1       1.380   3.673  18.189  0.00  0.00    +0.000 C 
BRANCH  15  16
ATOM     16  C   UNL     1       1.007   2.669  19.286  0.00  0.00    +0.000 C 
BRANCH  16  18
ATOM     17  C   UNL     1       1.909   2.636  21.640  0.00  0.00    +0.000 C 
ATOM     18  C   UNL     1       0.935   3.302  20.680  0.00  0.00    +0.000 C 
ENDBRANCH  16  18
ENDBRANCH  15  16
ENDBRANCH   7  15
ENDBRANCH   1  10
BRANCH   5  19
ATOM     19  C   UNL     1       7.395   6.638  17.350  0.00  0.00    +0.000 A 
ATOM     20  C   UNL     1       7.525   7.998  17.155  0.00  0.00    +0.000 A 
ATOM     21  C   UNL     1       8.293   8.457  18.248  0.00  0.00    +0.000 A 
ATOM     22  C   UNL     1       8.813   9.818  18.501  0.00  0.00    +0.000 C 
ATOM     23  N   UNL     1       8.563   7.463  19.097  0.00  0.00    +0.000 NA
ATOM     24  O   UNL     1       8.008   6.335  18.535  0.00  0.00    +0.000 OA
ENDBRANCH   5  19
BRANCH   3  25
ATOM     25  C   UNL     1       6.813   4.084  13.226  0.00  0.00    +0.000 C 
ATOM     26  O   UNL     1       7.475   4.776  12.465  0.00  0.00    +0.000 OA
BRANCH  25  27
ATOM     27  OXT UNL     1       6.256   2.913  12.848  0.00  0.00    +0.000 OA
ATOM     28  HXT UNL     1       6.296   2.216  13.527  0.00  0.00    +0.000 HD
ENDBRANCH  25  27
ENDBRANCH   3  25
TORSDOF 8
ENDMDL
MODEL 2
REMARK VINA RESULT:      -7.9      1.166      1.664
REMARK  Name = 
REMARK  10 active torsions:
REMARK  status: ('A' for Active; 'I' for Inactive)
REMARK    1  A    between atoms: C_1  and  C_2
REMARK    2  A    between atoms: C_2  and  C_3
REMARK    3  A    between atoms: C_3  and  C_4
REMARK    4  A    between atoms: C_4  and  N_5
REMARK    5  A    between atoms: C_8  and  O_9
REMARK    6  A    between atoms: C_8  and  C_10
REMARK    7  A    between atoms: CA_12  and  C_13
REMARK    8  A    between atoms: C_13  and  OXT_15
REMARK    9  A    between atoms: C_17  and  C_18
REMARK   10  A    between atoms: C_20  and  C_21
REMARK                            x       y       z     vdW  Elec       q    Type
REMARK                         _______ _______ _______ _____ _____    ______ ____
ROOT
ATOM      1  C   UNL     1       5.416   4.861  16.155  0.00  0.00    +0.000 A 
ATOM      2  C   UNL     1       5.372   4.117  14.925  0.00  0.00    +0.000 A 
ATOM      3  CA  UNL     1       6.463   4.457  14.145  0.00  0.00    +0.000 A 
ATOM      4  N   UNL     1       7.171   5.385  14.875  0.00  0.00    +0.000 N 
ATOM      5  C   UNL     1       6.593   5.606  16.101  0.00  0.00    +0.000 A 
ATOM      6  H   UNL     1       8.025   5.809  14.536  0.00  0.00    +0.000 HD
ENDROOT
BRANCH   1  10
ATOM      7  N   UNL     1       3.824   2.973  18.664  0.00  0.00    +0.000 N 
ATOM      8  C   UNL     1       2.599   3.374  18.034  0.00  0.00    +0.000 C 
ATOM      9  C   UNL     1       3.082   4.105  16.801  0.00  0.00    +0.000 C 
ATOM     10  C   UNL     1       4.368   4.829  17.263  0.00  0.00    +0.000 C 
ATOM     11  C   UNL     1       4.819   3.923  18.456  0.00  0.00    +0.000 C 
ATOM     12  O   UNL     1       5.864   3.997  19.087  0.00  0.00    +0.000 OA
BRANCH  10  13
ATOM     13  O   UNL     1       4.041   6.133  17.726  0.00  0.00    +0.000 OA
ATOM     14  H   UNL     1       4.623   6.325  18.484  0.00  0.00    +0.000 HD
ENDBRANCH  10  13
BRANCH   7  15
ATOM     15  C   UNL     1       3.923   1.872  19.603  0.00  0.00    +0.000 C 
BRANCH  15  16
ATOM     16  C   UNL     1       3.749   2.333  21.055  0.00  0.00    +0.000 C 
BRANCH  16  18
ATOM     17  C   UNL     1       1.980   4.087  21.446  0.00  0.00    +0.000 C 
ATOM     18  C   UNL     1       2.287   2.597  21.431  0.00  0.00    +0.000 C 
ENDBRANCH  16  18
ENDBRANCH  15  16
ENDBRANCH   7  15
ENDBRANCH   1  10
BRANCH   5  19
ATOM     19  C   UNL     1       7.205   6.457  17.078  0.00  0.00    +0.000 A 
ATOM     20  C   UNL     1       7.386   7.825  17.071  0.00  0.00    +0.000 A 
ATOM     21  C   UNL     1       8.155   8.103  18.222  0.00  0.00    +0.000 A 
ATOM     22  C   UNL     1       8.721   9.396  18.662  0.00  0.00    +0.000 C 
ATOM     23  N   UNL     1       8.378   6.993  18.931  0.00  0.00    +0.000 NA
ATOM     24  O   UNL     1       7.790   5.974  18.216  0.00  0.00    +0.000 OA
ENDBRANCH   5  19
BRANCH   3  25
ATOM     25  C   UNL     1       6.920   4.036  12.844  0.00  0.00    +0.000 C 
ATOM     26  O   UNL     1       7.626   4.720  12.116  0.00  0.00    +0.000 OA
BRANCH  25  27
ATOM     27  OXT UNL     1       6.490   2.804  12.494  0.00  0.00    +0.000 OA
ATOM     28  HXT UNL     1       6.121   2.751  11.595  0.00  0.00    +0.000 HD
ENDBRANCH  25  27
ENDBRANCH   3  25
TORSDOF 8
ENDMDL
MODEL 3
REMARK VINA RESULT:      -7.7      3.003      7.101
REMARK  Name = 
REMARK  10 active torsions:
REMARK  status: ('A' for Active; 'I' for Inactive)
REMARK    1  A    between atoms: C_1  and  C_2
REMARK    2  A    between atoms: C_2  and  C_3
REMARK    3  A    between atoms: C_3  and  C_4
REMARK    4  A    between atoms: C_4  and  N_5
REMARK    5  A    between atoms: C_8  and  O_9
REMARK    6  A    between atoms: C_8  and  C_10
REMARK    7  A    between atoms: CA_12  and  C_13
REMARK    8  A    between atoms: C_13  and  OXT_15
REMARK    9  A    between atoms: C_17  and  C_18
REMARK   10  A    between atoms: C_20  and  C_21
REMARK                            x       y       z     vdW  Elec       q    Type
REMARK                         _______ _______ _______ _____ _____    ______ ____
ROOT
ATOM      1  C   UNL     1       3.355   6.496  17.853  0.00  0.00    +0.000 A 
ATOM      2  C   UNL     1       3.273   7.890  17.506  0.00  0.00    +0.000 A 
ATOM      3  CA  UNL     1       2.121   8.430  18.050  0.00  0.00    +0.000 A 
ATOM      4  N   UNL     1       1.505   7.400  18.723  0.00  0.00    +0.000 N 
ATOM      5  C   UNL     1       2.248   6.246  18.662  0.00  0.00    +0.000 A 
ATOM      6  H   UNL     1       0.631   7.517  19.218  0.00  0.00    +0.000 HD
ENDROOT
BRANCH   1  10
ATOM      7  N   UNL     1       6.790   5.736  17.733  0.00  0.00    +0.000 N 
ATOM      8  C   UNL     1       6.595   5.589  16.319  0.00  0.00    +0.000 C 
ATOM      9  C   UNL     1       5.160   6.028  16.132  0.00  0.00    +0.000 C 
ATOM     10  C   UNL     1       4.435   5.520  17.400  0.00  0.00    +0.000 C 
ATOM     11  C   UNL     1       5.616   5.451  18.423  0.00  0.00    +0.000 C 
ATOM     12  O   UNL     1       5.543   5.223  19.623  0.00  0.00    +0.000 OA
BRANCH  10  13
ATOM     13  O   UNL     1       3.911   4.219  17.159  0.00  0.00    +0.000 OA
ATOM     14  H   UNL     1       3.201   4.069  17.810  0.00  0.00    +0.000 HD
ENDBRANCH  10  13
BRANCH   7  15
ATOM     15  C   UNL     1       8.091   5.891  18.353  0.00  0.00    +0.000 C 
BRANCH  15  16
ATOM     16  C   UNL     1       8.323   7.318  18.863  0.00  0.00    +0.000 C 
BRANCH  16  18
ATOM     17  C   UNL     1       8.603   9.739  18.216  0.00  0.00    +0.000 C 
ATOM     18  C   UNL     1       8.040   8.388  17.802  0.00  0.00    +0.000 C 
ENDBRANCH  16  18
ENDBRANCH  15  16
ENDBRANCH   7  15
ENDBRANCH   1  10
BRANCH   5  19
ATOM     19  C   UNL     1       1.860   5.064  19.373  0.00  0.00    +0.000 A 
ATOM     20  C   UNL     1       2.011   4.744  20.707  0.00  0.00    +0.000 A 
ATOM     21  C   UNL     1       1.563   3.410  20.821  0.00  0.00    +0.000 A 
ATOM     22  C   UNL     1       1.586   2.528  22.008  0.00  0.00    +0.000 C 
ATOM     23  N   UNL     1       1.102   2.955  19.653  0.00  0.00    +0.000 NA
ATOM     24  O   UNL     1       1.291   3.984  18.756  0.00  0.00    +0.000 OA
ENDBRANCH   5  19
BRANCH   3  25
ATOM     25  C   UNL     1       1.539   9.749  18.027  0.00  0.00    +0.000 C 
ATOM     26  O   UNL     1       0.434  10.013  18.478  0.00  0.00    +0.000 OA
BRANCH  25  27
ATOM     27  OXT UNL     1       2.333  10.678  17.451  0.00  0.00    +0.000 OA
ATOM     28  HXT UNL     1       2.784  10.373  16.644  0.00  0.00    +0.000 HD
ENDBRANCH  25  27
ENDBRANCH   3  25
TORSDOF 8
ENDMDL
MODEL 4
REMARK VINA RESULT:      -7.5      2.757      6.301
REMARK  Name = 
REMARK  10 active torsions:
REMARK  status: ('A' for Active; 'I' for Inactive)
REMARK    1  A    between atoms: C_1  and  C_2
REMARK    2  A    between atoms: C_2  and  C_3
REMARK    3  A    between atoms: C_3  and  C_4
REMARK    4  A    between atoms: C_4  and  N_5
REMARK    5  A    between atoms: C_8  and  O_9
REMARK    6  A    between atoms: C_8  and  C_10
REMARK    7  A    between atoms: CA_12  and  C_13
REMARK    8  A    between atoms: C_13  and  OXT_15
REMARK    9  A    between atoms: C_17  and  C_18
REMARK   10  A    between atoms: C_20  and  C_21
REMARK                            x       y       z     vdW  Elec       q    Type
REMARK                         _______ _______ _______ _____ _____    ______ ____
ROOT
ATOM      1  C   UNL     1       3.947   5.086  17.943  0.00  0.00    +0.000 A 
ATOM      2  C   UNL     1       3.584   3.698  18.053  0.00  0.00    +0.000 A 
ATOM      3  CA  UNL     1       2.270   3.602  18.474  0.00  0.00    +0.000 A 
ATOM      4  N   UNL     1       1.825   4.897  18.617  0.00  0.00    +0.000 N 
ATOM      5  C   UNL     1       2.794   5.802  18.258  0.00  0.00    +0.000 A 
ATOM      6  H   UNL     1       0.887   5.121  18.920  0.00  0.00    +0.000 HD
ENDROOT
BRANCH   1  10
ATOM      7  N   UNL     1       6.651   4.992  15.688  0.00  0.00    +0.000 N 
ATOM      8  C   UNL     1       7.467   4.773  16.848  0.00  0.00    +0.000 C 
ATOM      9  C   UNL     1       6.444   4.632  17.954  0.00  0.00    +0.000 C 
ATOM     10  C   UNL     1       5.324   5.627  17.571  0.00  0.00    +0.000 C 
ATOM     11  C   UNL     1       5.509   5.715  16.020  0.00  0.00    +0.000 C 
ATOM     12  O   UNL     1       4.779   6.283  15.219  0.00  0.00    +0.000 OA
BRANCH  10  13
ATOM     13  O   UNL     1       5.582   6.889  18.173  0.00  0.00    +0.000 OA
ATOM     14  H   UNL     1       5.430   6.788  19.131  0.00  0.00    +0.000 HD
ENDBRANCH  10  13
BRANCH   7  15
ATOM     15  C   UNL     1       7.093   4.730  14.333  0.00  0.00    +0.000 C 
BRANCH  15  16
ATOM     16  C   UNL     1       6.113   3.835  13.566  0.00  0.00    +0.000 C 
BRANCH  16  18
ATOM     17  C   UNL     1       5.779   2.352  11.554  0.00  0.00    +0.000 C 
ATOM     18  C   UNL     1       6.596   3.486  12.154  0.00  0.00    +0.000 C 
ENDBRANCH  16  18
ENDBRANCH  15  16
ENDBRANCH   7  15
ENDBRANCH   1  10
BRANCH   5  19
ATOM     19  C   UNL     1       2.532   7.210  18.227  0.00  0.00    +0.000 A 
ATOM     20  C   UNL     1       1.915   8.016  19.162  0.00  0.00    +0.000 A 
ATOM     21  C   UNL     1       1.819   9.286  18.551  0.00  0.00    +0.000 A 
ATOM     22  C   UNL     1       1.162  10.507  19.063  0.00  0.00    +0.000 C 
ATOM     23  N   UNL     1       2.398   9.286  17.347  0.00  0.00    +0.000 NA
ATOM     24  O   UNL     1       2.836   7.995  17.149  0.00  0.00    +0.000 OA
ENDBRANCH   5  19
BRANCH   3  25
ATOM     25  C   UNL     1       1.397   2.487  18.749  0.00  0.00    +0.000 C 
ATOM     26  O   UNL     1       0.208   2.602  19.007  0.00  0.00    +0.000 OA
BRANCH  25  27
ATOM     27  OXT UNL     1       2.020   1.290  18.698  0.00  0.00    +0.000 OA
ATOM     28  HXT UNL     1       2.148   0.870  19.568  0.00  0.00    +0.000 HD
ENDBRANCH  25  27
ENDBRANCH   3  25
TORSDOF 8
ENDMDL
MODEL 5
REMARK VINA RESULT:      -7.5      2.987      6.975
REMARK  Name = 
REMARK  10 active torsions:
REMARK  status: ('A' for Active; 'I' for Inactive)
REMARK    1  A    between atoms: C_1  and  C_2
REMARK    2  A    between atoms: C_2  and  C_3
REMARK    3  A    between atoms: C_3  and  C_4
REMARK    4  A    between atoms: C_4  and  N_5
REMARK    5  A    between atoms: C_8  and  O_9
REMARK    6  A    between atoms: C_8  and  C_10
REMARK    7  A    between atoms: CA_12  and  C_13
REMARK    8  A    between atoms: C_13  and  OXT_15
REMARK    9  A    between atoms: C_17  and  C_18
REMARK   10  A    between atoms: C_20  and  C_21
REMARK                            x       y       z     vdW  Elec       q    Type
REMARK                         _______ _______ _______ _____ _____    ______ ____
ROOT
ATOM      1  C   UNL     1       3.641   6.465  18.035  0.00  0.00    +0.000 A 
ATOM      2  C   UNL     1       3.605   7.844  17.626  0.00  0.00    +0.000 A 
ATOM      3  CA  UNL     1       2.408   8.408  18.026  0.00  0.00    +0.000 A 
ATOM      4  N   UNL     1       1.718   7.408  18.672  0.00  0.00    +0.000 N 
ATOM      5  C   UNL     1       2.455   6.250  18.735  0.00  0.00    +0.000 A 
ATOM      6  H   UNL     1       0.798   7.548  19.069  0.00  0.00    +0.000 HD
ENDROOT
BRANCH   1  10
ATOM      7  N   UNL     1       5.624   4.894  15.586  0.00  0.00    +0.000 N 
ATOM      8  C   UNL     1       5.200   3.664  16.190  0.00  0.00    +0.000 C 
ATOM      9  C   UNL     1       4.189   4.127  17.216  0.00  0.00    +0.000 C 
ATOM     10  C   UNL     1       4.756   5.468  17.736  0.00  0.00    +0.000 C 
ATOM     11  C   UNL     1       5.627   5.926  16.520  0.00  0.00    +0.000 C 
ATOM     12  O   UNL     1       6.193   7.001  16.378  0.00  0.00    +0.000 OA
BRANCH  10  13
ATOM     13  O   UNL     1       5.577   5.229  18.873  0.00  0.00    +0.000 OA
ATOM     14  H   UNL     1       6.101   6.037  19.025  0.00  0.00    +0.000 HD
ENDBRANCH  10  13
BRANCH   7  15
ATOM     15  C   UNL     1       6.218   4.979  14.266  0.00  0.00    +0.000 C 
BRANCH  15  16
ATOM     16  C   UNL     1       6.457   3.596  13.649  0.00  0.00    +0.000 C 
BRANCH  16  18
ATOM     17  C   UNL     1       4.702   3.342  11.856  0.00  0.00    +0.000 C 
ATOM     18  C   UNL     1       6.181   3.556  12.141  0.00  0.00    +0.000 C 
ENDBRANCH  16  18
ENDBRANCH  15  16
ENDBRANCH   7  15
ENDBRANCH   1  10
BRANCH   5  19
ATOM     19  C   UNL     1       1.987   5.100  19.448  0.00  0.00    +0.000 A 
ATOM     20  C   UNL     1       2.258   4.687  20.737  0.00  0.00    +0.000 A 
ATOM     21  C   UNL     1       1.632   3.427  20.862  0.00  0.00    +0.000 A 
ATOM     22  C   UNL     1       1.674   2.486  22.002  0.00  0.00    +0.000 C 
ATOM     23  N   UNL     1       0.961   3.111  19.751  0.00  0.00    +0.000 NA
ATOM     24  O   UNL     1       1.187   4.149  18.876  0.00  0.00    +0.000 OA
ENDBRANCH   5  19
BRANCH   3  25
ATOM     25  C   UNL     1       1.840   9.727  17.890  0.00  0.00    +0.000 C 
ATOM     26  O   UNL     1       2.495  10.759  17.941  0.00  0.00    +0.000 OA
BRANCH  25  27
ATOM     27  OXT UNL     1       0.502   9.721  17.702  0.00  0.00    +0.000 OA
ATOM     28  HXT UNL     1       0.067   8.889  17.960  0.00  0.00    +0.000 HD
ENDBRANCH  25  27
ENDBRANCH   3  25
TORSDOF 8
ENDMDL
MODEL 6
REMARK VINA RESULT:      -7.4      2.014      4.590
REMARK  Name = 
REMARK  10 active torsions:
REMARK  status: ('A' for Active; 'I' for Inactive)
REMARK    1  A    between atoms: C_1  and  C_2
REMARK    2  A    between atoms: C_2  and  C_3
REMARK    3  A    between atoms: C_3  and  C_4
REMARK    4  A    between atoms: C_4  and  N_5
REMARK    5  A    between atoms: C_8  and  O_9
REMARK    6  A    between atoms: C_8  and  C_10
REMARK    7  A    between atoms: CA_12  and  C_13
REMARK    8  A    between atoms: C_13  and  OXT_15
REMARK    9  A    between atoms: C_17  and  C_18
REMARK   10  A    between atoms: C_20  and  C_21
REMARK                            x       y       z     vdW  Elec       q    Type
REMARK                         _______ _______ _______ _____ _____    ______ ____
ROOT
ATOM      1  C   UNL     1       5.398   4.505  17.409  0.00  0.00    +0.000 A 
ATOM      2  C   UNL     1       5.808   4.910  18.727  0.00  0.00    +0.000 A 
ATOM      3  CA  UNL     1       7.125   5.330  18.688  0.00  0.00    +0.000 A 
ATOM      4  N   UNL     1       7.523   5.195  17.377  0.00  0.00    +0.000 N 
ATOM      5  C   UNL     1       6.493   4.751  16.583  0.00  0.00    +0.000 A 
ATOM      6  H   UNL     1       8.455   5.432  17.063  0.00  0.00    +0.000 HD
ENDROOT
BRANCH   1  10
ATOM      7  N   UNL     1       2.147   3.652  18.461  0.00  0.00    +0.000 N 
ATOM      8  C   UNL     1       2.436   2.351  17.930  0.00  0.00    +0.000 C 
ATOM      9  C   UNL     1       3.893   2.466  17.540  0.00  0.00    +0.000 C 
ATOM     10  C   UNL     1       4.042   3.918  17.031  0.00  0.00    +0.000 C 
ATOM     11  C   UNL     1       2.874   4.631  17.789  0.00  0.00    +0.000 C 
ATOM     12  O   UNL     1       2.638   5.831  17.825  0.00  0.00    +0.000 OA
BRANCH  10  13
ATOM     13  O   UNL     1       3.818   3.956  15.626  0.00  0.00    +0.000 OA
ATOM     14  H   UNL     1       3.036   4.517  15.474  0.00  0.00    +0.000 HD
ENDBRANCH  10  13
BRANCH   7  15
ATOM     15  C   UNL     1       1.057   3.923  19.378  0.00  0.00    +0.000 C 
BRANCH  15  16
ATOM     16  C   UNL     1       1.526   4.676  20.628  0.00  0.00    +0.000 C 
BRANCH  16  18
ATOM     17  C   UNL     1       1.558   2.417  21.748  0.00  0.00    +0.000 C 
ATOM     18  C   UNL     1       2.240   3.772  21.641  0.00  0.00    +0.000 C 
ENDBRANCH  16  18
ENDBRANCH  15  16
ENDBRANCH   7  15
ENDBRANCH   1  10
BRANCH   5  19
ATOM     19  C   UNL     1       6.638   4.630  15.163  0.00  0.00    +0.000 A 
ATOM     20  C   UNL     1       6.164   3.659  14.306  0.00  0.00    +0.000 A 
ATOM     21  C   UNL     1       6.713   3.978  13.044  0.00  0.00    +0.000 A 
ATOM     22  C   UNL     1       6.612   3.222  11.777  0.00  0.00    +0.000 C 
ATOM     23  N   UNL     1       7.422   5.108  13.101  0.00  0.00    +0.000 NA
ATOM     24  O   UNL     1       7.377   5.507  14.418  0.00  0.00    +0.000 OA
ENDBRANCH   5  19
BRANCH   3  25
ATOM     25  C   UNL     1       8.035   5.831  19.688  0.00  0.00    +0.000 C 
ATOM     26  O   UNL     1       8.243   5.278  20.758  0.00  0.00    +0.000 OA
BRANCH  25  27
ATOM     27  OXT UNL     1       8.642   6.985  19.333  0.00  0.00    +0.000 OA
ATOM     28  HXT UNL     1       8.041   7.747  19.266  0.00  0.00    +0.000 HD
ENDBRANCH  25  27
ENDBRANCH   3  25
TORSDOF 8
ENDMDL
MODEL 7
REMARK VINA RESULT:      -7.4      2.584      4.420
REMARK  Name = 
REMARK  10 active torsions:
REMARK  status: ('A' for Active; 'I' for Inactive)
REMARK    1  A    between atoms: C_1  and  C_2
REMARK    2  A    between atoms: C_2  and  C_3
REMARK    3  A    between atoms: C_3  and  C_4
REMARK    4  A    between atoms: C_4  and  N_5
REMARK    5  A    between atoms: C_8  and  O_9
REMARK    6  A    between atoms: C_8  and  C_10
REMARK    7  A    between atoms: CA_12  and  C_13
REMARK    8  A    between atoms: C_13  and  OXT_15
REMARK    9  A    between atoms: C_17  and  C_18
REMARK   10  A    between atoms: C_20  and  C_21
REMARK                            x       y       z     vdW  Elec       q    Type
REMARK                         _______ _______ _______ _____ _____    ______ ____
ROOT
ATOM      1  C   UNL     1       4.140   5.263  17.535  0.00  0.00    +0.000 A 
ATOM      2  C   UNL     1       3.171   6.089  18.205  0.00  0.00    +0.000 A 
ATOM      3  CA  UNL     1       3.252   7.379  17.714  0.00  0.00    +0.000 A 
ATOM      4  N   UNL     1       4.241   7.356  16.758  0.00  0.00    +0.000 N 
ATOM      5  C   UNL     1       4.754   6.092  16.597  0.00  0.00    +0.000 A 
ATOM      6  H   UNL     1       4.513   8.177  16.234  0.00  0.00    +0.000 HD
ENDROOT
BRANCH   1  10
ATOM      7  N   UNL     1       2.955   2.237  18.889  0.00  0.00    +0.000 N 
ATOM      8  C   UNL     1       4.170   2.230  19.652  0.00  0.00    +0.000 C 
ATOM      9  C   UNL     1       4.785   3.570  19.312  0.00  0.00    +0.000 C 
ATOM     10  C   UNL     1       4.422   3.793  17.825  0.00  0.00    +0.000 C 
ATOM     11  C   UNL     1       3.130   2.921  17.690  0.00  0.00    +0.000 C 
ATOM     12  O   UNL     1       2.377   2.858  16.728  0.00  0.00    +0.000 OA
BRANCH  10  13
ATOM     13  O   UNL     1       5.458   3.275  16.999  0.00  0.00    +0.000 OA
ATOM     14  H   UNL     1       5.403   3.738  16.143  0.00  0.00    +0.000 HD
ENDBRANCH  10  13
BRANCH   7  15
ATOM     15  C   UNL     1       1.801   1.417  19.206  0.00  0.00    +0.000 C 
BRANCH  15  16
ATOM     16  C   UNL     1       0.583   2.260  19.601  0.00  0.00    +0.000 C 
BRANCH  16  18
ATOM     17  C   UNL     1       1.431   2.900  21.888  0.00  0.00    +0.000 C 
ATOM     18  C   UNL     1       0.934   3.415  20.546  0.00  0.00    +0.000 C 
ENDBRANCH  16  18
ENDBRANCH  15  16
ENDBRANCH   7  15
ENDBRANCH   1  10
BRANCH   5  19
ATOM     19  C   UNL     1       5.726   5.798  15.587  0.00  0.00    +0.000 A 
ATOM     20  C   UNL     1       5.557   5.275  14.321  0.00  0.00    +0.000 A 
ATOM     21  C   UNL     1       6.864   5.083  13.822  0.00  0.00    +0.000 A 
ATOM     22  C   UNL     1       7.281   4.462  12.546  0.00  0.00    +0.000 C 
ATOM     23  N   UNL     1       7.780   5.520  14.690  0.00  0.00    +0.000 NA
ATOM     24  O   UNL     1       7.070   5.960  15.785  0.00  0.00    +0.000 OA
ENDBRANCH   5  19
BRANCH   3  25
ATOM     25  C   UNL     1       2.541   8.598  18.011  0.00  0.00    +0.000 C 
ATOM     26  O   UNL     1       2.502   9.563  17.261  0.00  0.00    +0.000 OA
BRANCH  25  27
ATOM     27  OXT UNL     1       1.915   8.579  19.208  0.00  0.00    +0.000 OA
ATOM     28  HXT UNL     1       2.503   8.742  19.967  0.00  0.00    +0.000 HD
ENDBRANCH  25  27
ENDBRANCH   3  25
TORSDOF 8
ENDMDL
MODEL 8
REMARK VINA RESULT:      -7.3      2.934      6.560
REMARK  Name = 
REMARK  10 active torsions:
REMARK  status: ('A' for Active; 'I' for Inactive)
REMARK    1  A    between atoms: C_1  and  C_2
REMARK    2  A    between atoms: C_2  and  C_3
REMARK    3  A    between atoms: C_3  and  C_4
REMARK    4  A    between atoms: C_4  and  N_5
REMARK    5  A    between atoms: C_8  and  O_9
REMARK    6  A    between atoms: C_8  and  C_10
REMARK    7  A    between atoms: CA_12  and  C_13
REMARK    8  A    between atoms: C_13  and  OXT_15
REMARK    9  A    between atoms: C_17  and  C_18
REMARK   10  A    between atoms: C_20  and  C_21
REMARK                            x       y       z     vdW  Elec       q    Type
REMARK                         _______ _______ _______ _____ _____    ______ ____
ROOT
ATOM      1  C   UNL     1       4.054   5.295  18.986  0.00  0.00    +0.000 A 
ATOM      2  C   UNL     1       3.891   4.035  19.662  0.00  0.00    +0.000 A 
ATOM      3  CA  UNL     1       2.734   4.069  20.419  0.00  0.00    +0.000 A 
ATOM      4  N   UNL     1       2.188   5.316  20.214  0.00  0.00    +0.000 N 
ATOM      5  C   UNL     1       2.932   6.050  19.322  0.00  0.00    +0.000 A 
ATOM      6  H   UNL     1       1.328   5.614  20.656  0.00  0.00    +0.000 HD
ENDROOT
BRANCH   1  10
ATOM      7  N   UNL     1       6.251   4.372  16.393  0.00  0.00    +0.000 N 
ATOM      8  C   UNL     1       7.300   4.731  17.304  0.00  0.00    +0.000 C 
ATOM      9  C   UNL     1       6.545   5.033  18.580  0.00  0.00    +0.000 C 
ATOM     10  C   UNL     1       5.231   5.693  18.102  0.00  0.00    +0.000 C 
ATOM     11  C   UNL     1       5.097   5.101  16.660  0.00  0.00    +0.000 C 
ATOM     12  O   UNL     1       4.146   5.217  15.898  0.00  0.00    +0.000 OA
BRANCH  10  13
ATOM     13  O   UNL     1       5.401   7.105  18.044  0.00  0.00    +0.000 OA
ATOM     14  H   UNL     1       5.110   7.466  18.902  0.00  0.00    +0.000 HD
ENDBRANCH  10  13
BRANCH   7  15
ATOM     15  C   UNL     1       6.459   3.566  15.206  0.00  0.00    +0.000 C 
BRANCH  15  16
ATOM     16  C   UNL     1       6.236   4.367  13.917  0.00  0.00    +0.000 C 
BRANCH  16  18
ATOM     17  C   UNL     1       5.001   3.366  11.961  0.00  0.00    +0.000 C 
ATOM     18  C   UNL     1       6.348   3.511  12.651  0.00  0.00    +0.000 C 
ENDBRANCH  16  18
ENDBRANCH  15  16
ENDBRANCH   7  15
ENDBRANCH   1  10
BRANCH   5  19
ATOM     19  C   UNL     1       2.508   7.342  18.874  0.00  0.00    +0.000 A 
ATOM     20  C   UNL     1       1.752   8.299  19.521  0.00  0.00    +0.000 A 
ATOM     21  C   UNL     1       1.539   9.314  18.562  0.00  0.00    +0.000 A 
ATOM     22  C   UNL     1       0.716  10.536  18.681  0.00  0.00    +0.000 C 
ATOM     23  N   UNL     1       2.177   9.038  17.421  0.00  0.00    +0.000 NA
ATOM     24  O   UNL     1       2.774   7.813  17.618  0.00  0.00    +0.000 OA
ENDBRANCH   5  19
BRANCH   3  25
ATOM     25  C   UNL     1       2.087   3.113  21.282  0.00  0.00    +0.000 C 
ATOM     26  O   UNL     1       2.673   2.454  22.129  0.00  0.00    +0.000 OA
BRANCH  25  27
ATOM     27  OXT UNL     1       0.758   3.005  21.066  0.00  0.00    +0.000 OA
ATOM     28  HXT UNL     1       0.253   3.809  21.280  0.00  0.00    +0.000 HD
ENDBRANCH  25  27
ENDBRANCH   3  25
TORSDOF 8
ENDMDL
MODEL 9
REMARK VINA RESULT:      -7.2      1.619      6.175
REMARK  Name = 
REMARK  10 active torsions:
REMARK  status: ('A' for Active; 'I' for Inactive)
REMARK    1  A    between atoms: C_1  and  C_2
REMARK    2  A    between atoms: C_2  and  C_3
REMARK    3  A    between atoms: C_3  and  C_4
REMARK    4  A    between atoms: C_4  and  N_5
REMARK    5  A    between atoms: C_8  and  O_9
REMARK    6  A    between atoms: C_8  and  C_10
REMARK    7  A    between atoms: CA_12  and  C_13
REMARK    8  A    between atoms: C_13  and  OXT_15
REMARK    9  A    between atoms: C_17  and  C_18
REMARK   10  A    between atoms: C_20  and  C_21
REMARK                            x       y       z     vdW  Elec       q    Type
REMARK                         _______ _______ _______ _____ _____    ______ ____
ROOT
ATOM      1  C   UNL     1       6.030   4.871  16.486  0.00  0.00    +0.000 A 
ATOM      2  C   UNL     1       6.693   5.018  15.217  0.00  0.00    +0.000 A 
ATOM      3  CA  UNL     1       6.229   4.050  14.345  0.00  0.00    +0.000 A 
ATOM      4  N   UNL     1       5.297   3.324  15.050  0.00  0.00    +0.000 N 
ATOM      5  C   UNL     1       5.123   3.826  16.316  0.00  0.00    +0.000 A 
ATOM      6  H   UNL     1       4.796   2.543  14.647  0.00  0.00    +0.000 HD
ENDROOT
BRANCH   1  10
ATOM      7  N   UNL     1       7.661   7.651  17.904  0.00  0.00    +0.000 N 
ATOM      8  C   UNL     1       8.177   6.719  18.864  0.00  0.00    +0.000 C 
ATOM      9  C   UNL     1       7.692   5.388  18.331  0.00  0.00    +0.000 C 
ATOM     10  C   UNL     1       6.297   5.697  17.740  0.00  0.00    +0.000 C 
ATOM     11  C   UNL     1       6.433   7.219  17.410  0.00  0.00    +0.000 C 
ATOM     12  O   UNL     1       5.634   7.919  16.802  0.00  0.00    +0.000 OA
BRANCH  10  13
ATOM     13  O   UNL     1       5.302   5.492  18.735  0.00  0.00    +0.000 OA
ATOM     14  H   UNL     1       4.453   5.365  18.273  0.00  0.00    +0.000 HD
ENDBRANCH  10  13
BRANCH   7  15
ATOM     15  C   UNL     1       8.213   8.975  17.690  0.00  0.00    +0.000 C 
BRANCH  15  16
ATOM     16  C   UNL     1       8.937   9.507  18.932  0.00  0.00    +0.000 C 
BRANCH  16  18
ATOM     17  C   UNL     1      10.336  11.361  19.914  0.00  0.00    +0.000 C 
ATOM     18  C   UNL     1       9.412  10.956  18.775  0.00  0.00    +0.000 C 
ENDBRANCH  16  18
ENDBRANCH  15  16
ENDBRANCH   7  15
ENDBRANCH   1  10
BRANCH   5  19
ATOM     19  C   UNL     1       4.131   3.298  17.205  0.00  0.00    +0.000 A 
ATOM     20  C   UNL     1       2.757   3.270  17.081  0.00  0.00    +0.000 A 
ATOM     21  C   UNL     1       2.285   2.748  18.305  0.00  0.00    +0.000 A 
ATOM     22  C   UNL     1       0.887   2.584  18.759  0.00  0.00    +0.000 C 
ATOM     23  N   UNL     1       3.298   2.410  19.107  0.00  0.00    +0.000 NA
ATOM     24  O   UNL     1       4.442   2.757  18.422  0.00  0.00    +0.000 OA
ENDBRANCH   5  19
BRANCH   3  25
ATOM     25  C   UNL     1       6.533   3.727  12.972  0.00  0.00    +0.000 C 
ATOM     26  O   UNL     1       7.225   4.425  12.246  0.00  0.00    +0.000 OA
BRANCH  25  27
ATOM     27  OXT UNL     1       5.972   2.571  12.555  0.00  0.00    +0.000 OA
ATOM     28  HXT UNL     1       5.073   2.671  12.195  0.00  0.00    +0.000 HD
ENDBRANCH  25  27
ENDBRANCH   3  25
TORSDOF 8
ENDMDL
