MODEL 1
REMARK VINA RESULT:      -7.9      0.000      0.000
REMARK  Name = 
REMARK  12 active torsions:
REMARK  status: ('A' for Active; 'I' for Inactive)
REMARK    1  A    between atoms: C_1  and  C_2
REMARK    2  A    between atoms: C_2  and  O_3
REMARK    3  A    between atoms: O_3  and  C_4
REMARK    4  A    between atoms: C_4  and  C_6
REMARK    5  A    between atoms: C_6  and  N_7
REMARK    6  A    between atoms: C_13  and  S_14
REMARK    7  A    between atoms: S_14  and  N_17
REMARK    8  A    between atoms: N_17  and  C_18
REMARK    9  A    between atoms: C_20  and  O_21
REMARK   10  A    between atoms: O_21  and  C_22
REMARK   11  A    between atoms: C_24  and  O_25
REMARK   12  A    between atoms: O_25  and  C_26
REMARK                            x       y       z     vdW  Elec       q    Type
REMARK                         _______ _______ _______ _____ _____    ______ ____
ROOT
ATOM      1  N   UNL     1       1.837   8.964  19.285  0.00  0.00    +0.000 N 
ATOM      2  C   UNL     1       2.063   9.318  17.972  0.00  0.00    +0.000 A 
ATOM      3  O   UNL     1       1.825  10.411  17.478  0.00  0.00    +0.000 OA
ATOM      4  O   UNL     1       2.599   8.245  17.247  0.00  0.00    +0.000 OA
ATOM      5  C   UNL     1       2.619   7.227  18.187  0.00  0.00    +0.000 A 
ATOM      6  C   UNL     1       3.041   5.937  17.956  0.00  0.00    +0.000 A 
ATOM      7  C   UNL     1       2.949   5.037  19.027  0.00  0.00    +0.000 A 
ATOM      8  C   UNL     1       2.469   5.450  20.290  0.00  0.00    +0.000 A 
ATOM      9  C   UNL     1       2.054   6.771  20.496  0.00  0.00    +0.000 A 
ATOM     10  C   UNL     1       2.147   7.634  19.423  0.00  0.00    +0.000 A 
ENDROOT
BRANCH   7  11
ATOM     11  S   UNL     1       3.545   3.363  18.810  0.00  0.00    +0.000 S 
ATOM     12  O   UNL     1       3.030   2.576  19.909  0.00  0.00    +0.000 OA
ATOM     13  O   UNL     1       3.278   2.998  17.433  0.00  0.00    +0.000 OA
BRANCH  11  14
ATOM     14  N   UNL     1       5.217   3.491  18.943  0.00  0.00    +0.000 N 
ATOM     15  H   UNL     1       5.683   2.606  19.133  0.00  0.00    +0.000 HD
BRANCH  14  16
ATOM     16  C   UNL     1       5.911   4.474  18.191  0.00  0.00    +0.000 A 
ATOM     17  C   UNL     1       5.888   4.436  16.799  0.00  0.00    +0.000 A 
ATOM     18  C   UNL     1       6.608   5.380  16.059  0.00  0.00    +0.000 A 
ATOM     19  C   UNL     1       7.367   6.338  16.734  0.00  0.00    +0.000 A 
ATOM     20  C   UNL     1       7.395   6.373  18.133  0.00  0.00    +0.000 A 
ATOM     21  C   UNL     1       6.647   5.451  18.861  0.00  0.00    +0.000 A 
BRANCH  18  22
ATOM     22  O   UNL     1       6.492   5.264  14.701  0.00  0.00    +0.000 OA
ATOM     23  C   UNL     1       6.221   3.962  14.188  0.00  0.00    +0.000 C 
ENDBRANCH  18  22
BRANCH  20  24
ATOM     24  O   UNL     1       8.193   7.348  18.668  0.00  0.00    +0.000 OA
ATOM     25  C   UNL     1       8.190   8.612  18.009  0.00  0.00    +0.000 C 
ENDBRANCH  20  24
ENDBRANCH  14  16
ENDBRANCH  11  14
ENDBRANCH   7  11
BRANCH   1  26
ATOM     26  C   UNL     1       1.191   9.805  20.263  0.00  0.00    +0.000 C 
BRANCH  26  27
ATOM     27  C   UNL     1      -0.313   9.599  20.210  0.00  0.00    +0.000 C 
ATOM     28  O   UNL     1      -1.053  10.005  19.320  0.00  0.00    +0.000 OA
BRANCH  27  29
ATOM     29  O   UNL     1      -0.724   8.917  21.318  0.00  0.00    +0.000 OA
BRANCH  29  31
ATOM     30  C   UNL     1      -0.922  10.341  23.225  0.00  0.00    +0.000 C 
ATOM     31  C   UNL     1      -0.066   9.292  22.536  0.00  0.00    +0.000 C 
ENDBRANCH  29  31
ENDBRANCH  27  29
ENDBRANCH  26  27
ENDBRANCH   1  26
TORSDOF 9
ENDMDL
MODEL 2
REMARK VINA RESULT:      -7.7      1.299      2.351
REMARK  Name = 
REMARK  12 active torsions:
REMARK  status: ('A' for Active; 'I' for Inactive)
REMARK    1  A    between atoms: C_1  and  C_2
REMARK    2  A    between atoms: C_2  and  O_3
REMARK    3  A    between atoms: O_3  and  C_4
REMARK    4  A    between atoms: C_4  and  C_6
REMARK    5  A    between atoms: C_6  and  N_7
REMARK    6  A    between atoms: C_13  and  S_14
REMARK    7  A    between atoms: S_14  and  N_17
REMARK    8  A    between atoms: N_17  and  C_18
REMARK    9  A    between atoms: C_20  and  O_21
REMARK   10  A    between atoms: O_21  and  C_22
REMARK   11  A    between atoms: C_24  and  O_25
REMARK   12  A    between atoms: O_25  and  C_26
REMARK                            x       y       z     vdW  Elec       q    Type
REMARK                         _______ _______ _______ _____ _____    ______ ____
ROOT
ATOM      1  N   UNL     1       1.375   9.027  19.499  0.00  0.00    +0.000 N 
ATOM      2  C   UNL     1       1.072   8.957  20.842  0.00  0.00    +0.000 A 
ATOM      3  O   UNL     1       0.625   9.872  21.520  0.00  0.00    +0.000 OA
ATOM      4  O   UNL     1       1.357   7.686  21.357  0.00  0.00    +0.000 OA
ATOM      5  C   UNL     1       1.898   7.032  20.261  0.00  0.00    +0.000 A 
ATOM      6  C   UNL     1       2.371   5.739  20.258  0.00  0.00    +0.000 A 
ATOM      7  C   UNL     1       2.919   5.265  19.057  0.00  0.00    +0.000 A 
ATOM      8  C   UNL     1       2.955   6.076  17.900  0.00  0.00    +0.000 A 
ATOM      9  C   UNL     1       2.460   7.385  17.934  0.00  0.00    +0.000 A 
ATOM     10  C   UNL     1       1.934   7.828  19.129  0.00  0.00    +0.000 A 
ENDROOT
BRANCH   7  11
ATOM     11  S   UNL     1       3.489   3.571  18.969  0.00  0.00    +0.000 S 
ATOM     12  O   UNL     1       2.974   2.881  20.131  0.00  0.00    +0.000 OA
ATOM     13  O   UNL     1       3.203   3.102  17.628  0.00  0.00    +0.000 OA
BRANCH  11  14
ATOM     14  N   UNL     1       5.164   3.684  19.077  0.00  0.00    +0.000 N 
ATOM     15  H   UNL     1       5.622   2.802  19.293  0.00  0.00    +0.000 HD
BRANCH  14  16
ATOM     16  C   UNL     1       5.859   4.630  18.279  0.00  0.00    +0.000 A 
ATOM     17  C   UNL     1       5.778   4.570  16.890  0.00  0.00    +0.000 A 
ATOM     18  C   UNL     1       6.498   5.475  16.104  0.00  0.00    +0.000 A 
ATOM     19  C   UNL     1       7.315   6.419  16.730  0.00  0.00    +0.000 A 
ATOM     20  C   UNL     1       7.401   6.476  18.126  0.00  0.00    +0.000 A 
ATOM     21  C   UNL     1       6.654   5.593  18.901  0.00  0.00    +0.000 A 
BRANCH  18  22
ATOM     22  O   UNL     1       6.323   5.341  14.754  0.00  0.00    +0.000 OA
ATOM     23  C   UNL     1       6.413   4.020  14.224  0.00  0.00    +0.000 C 
ENDBRANCH  18  22
BRANCH  20  24
ATOM     24  O   UNL     1       8.253   7.432  18.611  0.00  0.00    +0.000 OA
ATOM     25  C   UNL     1       8.173   8.724  18.012  0.00  0.00    +0.000 C 
ENDBRANCH  20  24
ENDBRANCH  14  16
ENDBRANCH  11  14
ENDBRANCH   7  11
BRANCH   1  26
ATOM     26  C   UNL     1       1.300  10.226  18.701  0.00  0.00    +0.000 C 
BRANCH  26  27
ATOM     27  C   UNL     1      -0.150  10.646  18.532  0.00  0.00    +0.000 C 
ATOM     28  O   UNL     1      -0.659  11.649  19.021  0.00  0.00    +0.000 OA
BRANCH  27  29
ATOM     29  O   UNL     1      -0.811   9.723  17.775  0.00  0.00    +0.000 OA
BRANCH  29  31
ATOM     30  C   UNL     1      -3.193   9.662  17.617  0.00  0.00    +0.000 C 
ATOM     31  C   UNL     1      -1.919  10.239  17.024  0.00  0.00    +0.000 C 
ENDBRANCH  29  31
ENDBRANCH  27  29
ENDBRANCH  26  27
ENDBRANCH   1  26
TORSDOF 9
ENDMDL
MODEL 3
REMARK VINA RESULT:      -7.6      1.284      3.150
REMARK  Name = 
REMARK  12 active torsions:
REMARK  status: ('A' for Active; 'I' for Inactive)
REMARK    1  A    between atoms: C_1  and  C_2
REMARK    2  A    between atoms: C_2  and  O_3
REMARK    3  A    between atoms: O_3  and  C_4
REMARK    4  A    between atoms: C_4  and  C_6
REMARK    5  A    between atoms: C_6  and  N_7
REMARK    6  A    between atoms: C_13  and  S_14
REMARK    7  A    between atoms: S_14  and  N_17
REMARK    8  A    between atoms: N_17  and  C_18
REMARK    9  A    between atoms: C_20  and  O_21
REMARK   10  A    between atoms: O_21  and  C_22
REMARK   11  A    between atoms: C_24  and  O_25
REMARK   12  A    between atoms: O_25  and  C_26
REMARK                            x       y       z     vdW  Elec       q    Type
REMARK                         _______ _______ _______ _____ _____    ______ ____
ROOT
ATOM      1  N   UNL     1       1.434   8.910  19.684  0.00  0.00    +0.000 N 
ATOM      2  C   UNL     1       1.175   8.778  21.032  0.00  0.00    +0.000 A 
ATOM      3  O   UNL     1       0.732   9.654  21.761  0.00  0.00    +0.000 OA
ATOM      4  O   UNL     1       1.498   7.491  21.482  0.00  0.00    +0.000 OA
ATOM      5  C   UNL     1       2.016   6.895  20.343  0.00  0.00    +0.000 A 
ATOM      6  C   UNL     1       2.512   5.613  20.270  0.00  0.00    +0.000 A 
ATOM      7  C   UNL     1       3.031   5.201  19.034  0.00  0.00    +0.000 A 
ATOM      8  C   UNL     1       3.018   6.061  17.913  0.00  0.00    +0.000 A 
ATOM      9  C   UNL     1       2.501   7.358  18.018  0.00  0.00    +0.000 A 
ATOM     10  C   UNL     1       2.004   7.740  19.247  0.00  0.00    +0.000 A 
ENDROOT
BRANCH   7  11
ATOM     11  S   UNL     1       3.628   3.524  18.856  0.00  0.00    +0.000 S 
ATOM     12  O   UNL     1       3.094   2.756  19.959  0.00  0.00    +0.000 OA
ATOM     13  O   UNL     1       3.384   3.136  17.481  0.00  0.00    +0.000 OA
BRANCH  11  14
ATOM     14  N   UNL     1       5.298   3.652  19.015  0.00  0.00    +0.000 N 
ATOM     15  H   UNL     1       5.750   2.788  19.307  0.00  0.00    +0.000 HD
BRANCH  14  16
ATOM     16  C   UNL     1       6.019   4.546  18.181  0.00  0.00    +0.000 A 
ATOM     17  C   UNL     1       6.778   5.570  18.741  0.00  0.00    +0.000 A 
ATOM     18  C   UNL     1       7.453   6.476  17.917  0.00  0.00    +0.000 A 
ATOM     19  C   UNL     1       7.333   6.354  16.532  0.00  0.00    +0.000 A 
ATOM     20  C   UNL     1       6.565   5.328  15.967  0.00  0.00    +0.000 A 
ATOM     21  C   UNL     1       5.925   4.410  16.796  0.00  0.00    +0.000 A 
BRANCH  18  22
ATOM     22  O   UNL     1       8.188   7.423  18.575  0.00  0.00    +0.000 OA
ATOM     23  C   UNL     1       8.193   8.735  18.016  0.00  0.00    +0.000 C 
ENDBRANCH  18  22
BRANCH  20  24
ATOM     24  O   UNL     1       6.514   5.334  14.599  0.00  0.00    +0.000 OA
ATOM     25  C   UNL     1       6.324   4.074  13.960  0.00  0.00    +0.000 C 
ENDBRANCH  20  24
ENDBRANCH  14  16
ENDBRANCH  11  14
ENDBRANCH   7  11
BRANCH   1  26
ATOM     26  C   UNL     1       1.314  10.141  18.942  0.00  0.00    +0.000 C 
BRANCH  26  27
ATOM     27  C   UNL     1      -0.114  10.314  18.454  0.00  0.00    +0.000 C 
ATOM     28  O   UNL     1      -0.594   9.777  17.462  0.00  0.00    +0.000 OA
BRANCH  27  29
ATOM     29  O   UNL     1      -0.777  11.182  19.272  0.00  0.00    +0.000 OA
BRANCH  29  31
ATOM     30  C   UNL     1      -0.407  13.312  18.258  0.00  0.00    +0.000 C 
ATOM     31  C   UNL     1      -0.124  12.443  19.471  0.00  0.00    +0.000 C 
ENDBRANCH  29  31
ENDBRANCH  27  29
ENDBRANCH  26  27
ENDBRANCH   1  26
TORSDOF 9
ENDMDL
MODEL 4
REMARK VINA RESULT:      -7.4      1.056      2.577
REMARK  Name = 
REMARK  12 active torsions:
REMARK  status: ('A' for Active; 'I' for Inactive)
REMARK    1  A    between atoms: C_1  and  C_2
REMARK    2  A    between atoms: C_2  and  O_3
REMARK    3  A    between atoms: O_3  and  C_4
REMARK    4  A    between atoms: C_4  and  C_6
REMARK    5  A    between atoms: C_6  and  N_7
REMARK    6  A    between atoms: C_13  and  S_14
REMARK    7  A    between atoms: S_14  and  N_17
REMARK    8  A    between atoms: N_17  and  C_18
REMARK    9  A    between atoms: C_20  and  O_21
REMARK   10  A    between atoms: O_21  and  C_22
REMARK   11  A    between atoms: C_24  and  O_25
REMARK   12  A    between atoms: O_25  and  C_26
REMARK                            x       y       z     vdW  Elec       q    Type
REMARK                         _______ _______ _______ _____ _____    ______ ____
ROOT
ATOM      1  N   UNL     1       1.396   8.580  19.829  0.00  0.00    +0.000 N 
ATOM      2  C   UNL     1       1.856   9.192  18.682  0.00  0.00    +0.000 A 
ATOM      3  O   UNL     1       1.566  10.320  18.310  0.00  0.00    +0.000 OA
ATOM      4  O   UNL     1       2.709   8.340  17.966  0.00  0.00    +0.000 OA
ATOM      5  C   UNL     1       2.677   7.178  18.721  0.00  0.00    +0.000 A 
ATOM      6  C   UNL     1       3.341   6.012  18.416  0.00  0.00    +0.000 A 
ATOM      7  C   UNL     1       3.153   4.928  19.285  0.00  0.00    +0.000 A 
ATOM      8  C   UNL     1       2.337   5.044  20.433  0.00  0.00    +0.000 A 
ATOM      9  C   UNL     1       1.679   6.246  20.719  0.00  0.00    +0.000 A 
ATOM     10  C   UNL     1       1.875   7.294  19.844  0.00  0.00    +0.000 A 
ENDROOT
BRANCH   7  11
ATOM     11  S   UNL     1       4.043   3.404  18.982  0.00  0.00    +0.000 S 
ATOM     12  O   UNL     1       3.610   2.447  19.976  0.00  0.00    +0.000 OA
ATOM     13  O   UNL     1       3.924   3.124  17.565  0.00  0.00    +0.000 OA
BRANCH  11  14
ATOM     14  N   UNL     1       5.656   3.800  19.246  0.00  0.00    +0.000 N 
ATOM     15  H   UNL     1       6.191   3.061  19.698  0.00  0.00    +0.000 HD
BRANCH  14  16
ATOM     16  C   UNL     1       6.326   4.667  18.344  0.00  0.00    +0.000 A 
ATOM     17  C   UNL     1       6.969   5.808  18.816  0.00  0.00    +0.000 A 
ATOM     18  C   UNL     1       7.592   6.684  17.921  0.00  0.00    +0.000 A 
ATOM     19  C   UNL     1       7.536   6.412  16.553  0.00  0.00    +0.000 A 
ATOM     20  C   UNL     1       6.885   5.268  16.077  0.00  0.00    +0.000 A 
ATOM     21  C   UNL     1       6.297   4.383  16.979  0.00  0.00    +0.000 A 
BRANCH  18  22
ATOM     22  O   UNL     1       8.215   7.757  18.497  0.00  0.00    +0.000 OA
ATOM     23  C   UNL     1       8.010   9.026  17.880  0.00  0.00    +0.000 C 
ENDBRANCH  18  22
BRANCH  20  24
ATOM     24  O   UNL     1       6.885   5.130  14.715  0.00  0.00    +0.000 OA
ATOM     25  C   UNL     1       5.858   4.315  14.154  0.00  0.00    +0.000 C 
ENDBRANCH  20  24
ENDBRANCH  14  16
ENDBRANCH  11  14
ENDBRANCH   7  11
BRANCH   1  26
ATOM     26  C   UNL     1       0.417   9.146  20.725  0.00  0.00    +0.000 C 
BRANCH  26  27
ATOM     27  C   UNL     1       1.110   9.750  21.934  0.00  0.00    +0.000 C 
ATOM     28  O   UNL     1       2.000   9.210  22.583  0.00  0.00    +0.000 OA
BRANCH  27  29
ATOM     29  O   UNL     1       0.574  10.974  22.209  0.00  0.00    +0.000 OA
BRANCH  29  31
ATOM     30  C   UNL     1      -1.410  12.240  22.611  0.00  0.00    +0.000 C 
ATOM     31  C   UNL     1      -0.774  11.158  21.755  0.00  0.00    +0.000 C 
ENDBRANCH  29  31
ENDBRANCH  27  29
ENDBRANCH  26  27
ENDBRANCH   1  26
TORSDOF 9
ENDMDL
MODEL 5
REMARK VINA RESULT:      -7.4      2.495      8.340
REMARK  Name = 
REMARK  12 active torsions:
REMARK  status: ('A' for Active; 'I' for Inactive)
REMARK    1  A    between atoms: C_1  and  C_2
REMARK    2  A    between atoms: C_2  and  O_3
REMARK    3  A    between atoms: O_3  and  C_4
REMARK    4  A    between atoms: C_4  and  C_6
REMARK    5  A    between atoms: C_6  and  N_7
REMARK    6  A    between atoms: C_13  and  S_14
REMARK    7  A    between atoms: S_14  and  N_17
REMARK    8  A    between atoms: N_17  and  C_18
REMARK    9  A    between atoms: C_20  and  O_21
REMARK   10  A    between atoms: O_21  and  C_22
REMARK   11  A    between atoms: C_24  and  O_25
REMARK   12  A    between atoms: O_25  and  C_26
REMARK                            x       y       z     vdW  Elec       q    Type
REMARK                         _______ _______ _______ _____ _____    ______ ____
ROOT
ATOM      1  N   UNL     1       3.714   4.378  18.203  0.00  0.00    +0.000 N 
ATOM      2  C   UNL     1       3.542   3.387  19.147  0.00  0.00    +0.000 A 
ATOM      3  O   UNL     1       3.897   2.223  19.029  0.00  0.00    +0.000 OA
ATOM      4  O   UNL     1       2.884   3.882  20.281  0.00  0.00    +0.000 OA
ATOM      5  C   UNL     1       2.626   5.198  19.929  0.00  0.00    +0.000 A 
ATOM      6  C   UNL     1       1.959   6.115  20.709  0.00  0.00    +0.000 A 
ATOM      7  C   UNL     1       1.761   7.390  20.162  0.00  0.00    +0.000 A 
ATOM      8  C   UNL     1       2.249   7.719  18.877  0.00  0.00    +0.000 A 
ATOM      9  C   UNL     1       2.930   6.765  18.110  0.00  0.00    +0.000 A 
ATOM     10  C   UNL     1       3.104   5.516  18.669  0.00  0.00    +0.000 A 
ENDROOT
BRANCH   7  11
ATOM     11  S   UNL     1       0.961   8.648  21.153  0.00  0.00    +0.000 S 
ATOM     12  O   UNL     1      -0.398   8.213  21.388  0.00  0.00    +0.000 OA
ATOM     13  O   UNL     1       1.856   8.947  22.253  0.00  0.00    +0.000 OA
BRANCH  11  14
ATOM     14  N   UNL     1       0.953  10.015  20.173  0.00  0.00    +0.000 N 
ATOM     15  H   UNL     1       1.798  10.125  19.615  0.00  0.00    +0.000 HD
BRANCH  14  16
ATOM     16  C   UNL     1      -0.273  10.498  19.646  0.00  0.00    +0.000 A 
ATOM     17  C   UNL     1      -0.792   9.960  18.471  0.00  0.00    +0.000 A 
ATOM     18  C   UNL     1      -1.978  10.466  17.930  0.00  0.00    +0.000 A 
ATOM     19  C   UNL     1      -2.616  11.531  18.569  0.00  0.00    +0.000 A 
ATOM     20  C   UNL     1      -2.092  12.076  19.747  0.00  0.00    +0.000 A 
ATOM     21  C   UNL     1      -0.929  11.542  20.297  0.00  0.00    +0.000 A 
BRANCH  18  22
ATOM     22  O   UNL     1      -2.408   9.845  16.790  0.00  0.00    +0.000 OA
ATOM     23  C   UNL     1      -2.670  10.679  15.664  0.00  0.00    +0.000 C 
ENDBRANCH  18  22
BRANCH  20  24
ATOM     24  O   UNL     1      -2.803  13.128  20.260  0.00  0.00    +0.000 OA
ATOM     25  C   UNL     1      -3.504  12.894  21.478  0.00  0.00    +0.000 C 
ENDBRANCH  20  24
ENDBRANCH  14  16
ENDBRANCH  11  14
ENDBRANCH   7  11
BRANCH   1  26
ATOM     26  C   UNL     1       4.257   4.170  16.883  0.00  0.00    +0.000 C 
BRANCH  26  27
ATOM     27  C   UNL     1       5.673   4.715  16.813  0.00  0.00    +0.000 C 
ATOM     28  O   UNL     1       6.143   5.349  15.874  0.00  0.00    +0.000 OA
BRANCH  27  29
ATOM     29  O   UNL     1       6.355   4.370  17.943  0.00  0.00    +0.000 OA
BRANCH  29  31
ATOM     30  C   UNL     1       7.751   5.932  19.089  0.00  0.00    +0.000 C 
ATOM     31  C   UNL     1       7.700   4.864  18.011  0.00  0.00    +0.000 C 
ENDBRANCH  29  31
ENDBRANCH  27  29
ENDBRANCH  26  27
ENDBRANCH   1  26
TORSDOF 9
ENDMDL
MODEL 6
REMARK VINA RESULT:      -7.4      3.333      9.100
REMARK  Name = 
REMARK  12 active torsions:
REMARK  status: ('A' for Active; 'I' for Inactive)
REMARK    1  A    between atoms: C_1  and  C_2
REMARK    2  A    between atoms: C_2  and  O_3
REMARK    3  A    between atoms: O_3  and  C_4
REMARK    4  A    between atoms: C_4  and  C_6
REMARK    5  A    between atoms: C_6  and  N_7
REMARK    6  A    between atoms: C_13  and  S_14
REMARK    7  A    between atoms: S_14  and  N_17
REMARK    8  A    between atoms: N_17  and  C_18
REMARK    9  A    between atoms: C_20  and  O_21
REMARK   10  A    between atoms: O_21  and  C_22
REMARK   11  A    between atoms: C_24  and  O_25
REMARK   12  A    between atoms: O_25  and  C_26
REMARK                            x       y       z     vdW  Elec       q    Type
REMARK                         _______ _______ _______ _____ _____    ______ ____
ROOT
ATOM      1  N   UNL     1       3.490   5.960  18.336  0.00  0.00    +0.000 N 
ATOM      2  C   UNL     1       3.330   5.131  19.427  0.00  0.00    +0.000 A 
ATOM      3  O   UNL     1       3.757   3.989  19.522  0.00  0.00    +0.000 OA
ATOM      4  O   UNL     1       2.592   5.764  20.436  0.00  0.00    +0.000 OA
ATOM      5  C   UNL     1       2.276   6.983  19.857  0.00  0.00    +0.000 A 
ATOM      6  C   UNL     1       1.520   7.973  20.446  0.00  0.00    +0.000 A 
ATOM      7  C   UNL     1       1.276   9.124  19.684  0.00  0.00    +0.000 A 
ATOM      8  C   UNL     1       1.805   9.265  18.381  0.00  0.00    +0.000 A 
ATOM      9  C   UNL     1       2.575   8.242  17.812  0.00  0.00    +0.000 A 
ATOM     10  C   UNL     1       2.794   7.118  18.580  0.00  0.00    +0.000 A 
ENDROOT
BRANCH   7  11
ATOM     11  S   UNL     1       0.358  10.475  20.417  0.00  0.00    +0.000 S 
ATOM     12  O   UNL     1      -0.819   9.910  21.039  0.00  0.00    +0.000 OA
ATOM     13  O   UNL     1       1.308  11.261  21.178  0.00  0.00    +0.000 OA
BRANCH  11  14
ATOM     14  N   UNL     1      -0.099  11.431  19.111  0.00  0.00    +0.000 N 
ATOM     15  H   UNL     1       0.675  11.696  18.505  0.00  0.00    +0.000 HD
BRANCH  14  16
ATOM     16  C   UNL     1      -1.385  11.266  18.533  0.00  0.00    +0.000 A 
ATOM     17  C   UNL     1      -2.499  11.858  19.123  0.00  0.00    +0.000 A 
ATOM     18  C   UNL     1      -3.772  11.659  18.578  0.00  0.00    +0.000 A 
ATOM     19  C   UNL     1      -3.910  10.842  17.454  0.00  0.00    +0.000 A 
ATOM     20  C   UNL     1      -2.791  10.242  16.864  0.00  0.00    +0.000 A 
ATOM     21  C   UNL     1      -1.524  10.474  17.394  0.00  0.00    +0.000 A 
BRANCH  18  22
ATOM     22  O   UNL     1      -4.788  12.309  19.223  0.00  0.00    +0.000 OA
ATOM     23  C   UNL     1      -5.864  12.780  18.415  0.00  0.00    +0.000 C 
ENDBRANCH  18  22
BRANCH  20  24
ATOM     24  O   UNL     1      -3.067   9.450  15.782  0.00  0.00    +0.000 OA
ATOM     25  C   UNL     1      -3.206  10.108  14.525  0.00  0.00    +0.000 C 
ENDBRANCH  20  24
ENDBRANCH  14  16
ENDBRANCH  11  14
ENDBRANCH   7  11
BRANCH   1  26
ATOM     26  C   UNL     1       4.106   5.570  17.092  0.00  0.00    +0.000 C 
BRANCH  26  27
ATOM     27  C   UNL     1       5.617   5.681  17.205  0.00  0.00    +0.000 C 
ATOM     28  O   UNL     1       6.225   6.641  17.667  0.00  0.00    +0.000 OA
BRANCH  27  29
ATOM     29  O   UNL     1       6.200   4.560  16.689  0.00  0.00    +0.000 OA
BRANCH  29  31
ATOM     30  C   UNL     1       6.165   3.952  14.380  0.00  0.00    +0.000 C 
ATOM     31  C   UNL     1       6.889   4.756  15.447  0.00  0.00    +0.000 C 
ENDBRANCH  29  31
ENDBRANCH  27  29
ENDBRANCH  26  27
ENDBRANCH   1  26
TORSDOF 9
ENDMDL
MODEL 7
REMARK VINA RESULT:      -7.3      2.693      8.844
REMARK  Name = 
REMARK  12 active torsions:
REMARK  status: ('A' for Active; 'I' for Inactive)
REMARK    1  A    between atoms: C_1  and  C_2
REMARK    2  A    between atoms: C_2  and  O_3
REMARK    3  A    between atoms: O_3  and  C_4
REMARK    4  A    between atoms: C_4  and  C_6
REMARK    5  A    between atoms: C_6  and  N_7
REMARK    6  A    between atoms: C_13  and  S_14
REMARK    7  A    between atoms: S_14  and  N_17
REMARK    8  A    between atoms: N_17  and  C_18
REMARK    9  A    between atoms: C_20  and  O_21
REMARK   10  A    between atoms: O_21  and  C_22
REMARK   11  A    between atoms: C_24  and  O_25
REMARK   12  A    between atoms: O_25  and  C_26
REMARK                            x       y       z     vdW  Elec       q    Type
REMARK                         _______ _______ _______ _____ _____    ______ ____
ROOT
ATOM      1  N   UNL     1       3.660   4.513  18.668  0.00  0.00    +0.000 N 
ATOM      2  C   UNL     1       3.305   3.567  19.606  0.00  0.00    +0.000 A 
ATOM      3  O   UNL     1       3.606   2.382  19.571  0.00  0.00    +0.000 OA
ATOM      4  O   UNL     1       2.527   4.135  20.624  0.00  0.00    +0.000 OA
ATOM      5  C   UNL     1       2.395   5.449  20.203  0.00  0.00    +0.000 A 
ATOM      6  C   UNL     1       1.680   6.426  20.858  0.00  0.00    +0.000 A 
ATOM      7  C   UNL     1       1.631   7.690  20.253  0.00  0.00    +0.000 A 
ATOM      8  C   UNL     1       2.308   7.947  19.039  0.00  0.00    +0.000 A 
ATOM      9  C   UNL     1       3.032   6.933  18.401  0.00  0.00    +0.000 A 
ATOM     10  C   UNL     1       3.057   5.697  19.013  0.00  0.00    +0.000 A 
ENDROOT
BRANCH   7  11
ATOM     11  S   UNL     1       0.776   9.023  21.088  0.00  0.00    +0.000 S 
ATOM     12  O   UNL     1      -0.592   8.598  21.290  0.00  0.00    +0.000 OA
ATOM     13  O   UNL     1       1.611   9.424  22.202  0.00  0.00    +0.000 OA
BRANCH  11  14
ATOM     14  N   UNL     1       0.813  10.299  19.993  0.00  0.00    +0.000 N 
ATOM     15  H   UNL     1       1.647  10.314  19.409  0.00  0.00    +0.000 HD
BRANCH  14  16
ATOM     16  C   UNL     1      -0.400  10.802  19.455  0.00  0.00    +0.000 A 
ATOM     17  C   UNL     1      -1.175  11.696  20.191  0.00  0.00    +0.000 A 
ATOM     18  C   UNL     1      -2.391  12.158  19.678  0.00  0.00    +0.000 A 
ATOM     19  C   UNL     1      -2.827  11.690  18.437  0.00  0.00    +0.000 A 
ATOM     20  C   UNL     1      -2.052  10.787  17.700  0.00  0.00    +0.000 A 
ATOM     21  C   UNL     1      -0.825  10.360  18.203  0.00  0.00    +0.000 A 
BRANCH  18  22
ATOM     22  O   UNL     1      -3.055  13.052  20.473  0.00  0.00    +0.000 OA
ATOM     23  C   UNL     1      -4.428  12.778  20.740  0.00  0.00    +0.000 C 
ENDBRANCH  18  22
BRANCH  20  24
ATOM     24  O   UNL     1      -2.603  10.394  16.510  0.00  0.00    +0.000 OA
ATOM     25  C   UNL     1      -3.917  10.866  16.226  0.00  0.00    +0.000 C 
ENDBRANCH  20  24
ENDBRANCH  14  16
ENDBRANCH  11  14
ENDBRANCH   7  11
BRANCH   1  26
ATOM     26  C   UNL     1       4.366   4.230  17.442  0.00  0.00    +0.000 C 
BRANCH  26  27
ATOM     27  C   UNL     1       5.797   4.729  17.541  0.00  0.00    +0.000 C 
ATOM     28  O   UNL     1       6.664   4.254  18.268  0.00  0.00    +0.000 OA
BRANCH  27  29
ATOM     29  O   UNL     1       5.968   5.805  16.720  0.00  0.00    +0.000 OA
BRANCH  29  31
ATOM     30  C   UNL     1       6.668   4.852  14.645  0.00  0.00    +0.000 C 
ATOM     31  C   UNL     1       5.556   5.599  15.362  0.00  0.00    +0.000 C 
ENDBRANCH  29  31
ENDBRANCH  27  29
ENDBRANCH  26  27
ENDBRANCH   1  26
TORSDOF 9
ENDMDL
MODEL 8
REMARK VINA RESULT:      -7.3      2.829      8.086
REMARK  Name = 
REMARK  12 active torsions:
REMARK  status: ('A' for Active; 'I' for Inactive)
REMARK    1  A    between atoms: C_1  and  C_2
REMARK    2  A    between atoms: C_2  and  O_3
REMARK    3  A    between atoms: O_3  and  C_4
REMARK    4  A    between atoms: C_4  and  C_6
REMARK    5  A    between atoms: C_6  and  N_7
REMARK    6  A    between atoms: C_13  and  S_14
REMARK    7  A    between atoms: S_14  and  N_17
REMARK    8  A    between atoms: N_17  and  C_18
REMARK    9  A    between atoms: C_20  and  O_21
REMARK   10  A    between atoms: O_21  and  C_22
REMARK   11  A    between atoms: C_24  and  O_25
REMARK   12  A    between atoms: O_25  and  C_26
REMARK                            x       y       z     vdW  Elec       q    Type
REMARK                         _______ _______ _______ _____ _____    ______ ____
ROOT
ATOM      1  N   UNL     1       3.660   5.175  18.069  0.00  0.00    +0.000 N 
ATOM      2  C   UNL     1       4.140   6.068  17.134  0.00  0.00    +0.000 A 
ATOM      3  O   UNL     1       4.888   5.793  16.206  0.00  0.00    +0.000 OA
ATOM      4  O   UNL     1       3.668   7.363  17.386  0.00  0.00    +0.000 OA
ATOM      5  C   UNL     1       2.936   7.195  18.551  0.00  0.00    +0.000 A 
ATOM      6  C   UNL     1       2.284   8.196  19.233  0.00  0.00    +0.000 A 
ATOM      7  C   UNL     1       1.626   7.834  20.418  0.00  0.00    +0.000 A 
ATOM      8  C   UNL     1       1.617   6.495  20.870  0.00  0.00    +0.000 A 
ATOM      9  C   UNL     1       2.286   5.498  20.149  0.00  0.00    +0.000 A 
ATOM     10  C   UNL     1       2.930   5.882  18.992  0.00  0.00    +0.000 A 
ENDROOT
BRANCH   7  11
ATOM     11  S   UNL     1       0.702   9.077  21.315  0.00  0.00    +0.000 S 
ATOM     12  O   UNL     1      -0.648   8.583  21.471  0.00  0.00    +0.000 OA
ATOM     13  O   UNL     1       1.504   9.449  22.463  0.00  0.00    +0.000 OA
BRANCH  11  14
ATOM     14  N   UNL     1       0.697  10.416  20.296  0.00  0.00    +0.000 N 
ATOM     15  H   UNL     1       1.589  10.584  19.835  0.00  0.00    +0.000 HD
BRANCH  14  16
ATOM     16  C   UNL     1      -0.495  10.781  19.618  0.00  0.00    +0.000 A 
ATOM     17  C   UNL     1      -0.780  10.245  18.364  0.00  0.00    +0.000 A 
ATOM     18  C   UNL     1      -1.934  10.638  17.678  0.00  0.00    +0.000 A 
ATOM     19  C   UNL     1      -2.775  11.591  18.254  0.00  0.00    +0.000 A 
ATOM     20  C   UNL     1      -2.486  12.135  19.511  0.00  0.00    +0.000 A 
ATOM     21  C   UNL     1      -1.354  11.711  20.202  0.00  0.00    +0.000 A 
BRANCH  18  22
ATOM     22  O   UNL     1      -2.127  10.028  16.469  0.00  0.00    +0.000 OA
ATOM     23  C   UNL     1      -3.353  10.308  15.797  0.00  0.00    +0.000 C 
ENDBRANCH  18  22
BRANCH  20  24
ATOM     24  O   UNL     1      -3.381  13.073  19.952  0.00  0.00    +0.000 OA
ATOM     25  C   UNL     1      -4.583  12.584  20.541  0.00  0.00    +0.000 C 
ENDBRANCH  20  24
ENDBRANCH  14  16
ENDBRANCH  11  14
ENDBRANCH   7  11
BRANCH   1  26
ATOM     26  C   UNL     1       4.045   3.788  18.154  0.00  0.00    +0.000 C 
BRANCH  26  27
ATOM     27  C   UNL     1       2.971   2.913  17.531  0.00  0.00    +0.000 C 
ATOM     28  O   UNL     1       2.328   3.189  16.523  0.00  0.00    +0.000 OA
BRANCH  27  29
ATOM     29  O   UNL     1       2.808   1.782  18.277  0.00  0.00    +0.000 OA
BRANCH  29  31
ATOM     30  C   UNL     1       0.626   2.374  19.047  0.00  0.00    +0.000 C 
ATOM     31  C   UNL     1       2.024   1.951  19.466  0.00  0.00    +0.000 C 
ENDBRANCH  29  31
ENDBRANCH  27  29
ENDBRANCH  26  27
ENDBRANCH   1  26
TORSDOF 9
ENDMDL
MODEL 9
REMARK VINA RESULT:      -7.2      1.552      3.357
REMARK  Name = 
REMARK  12 active torsions:
REMARK  status: ('A' for Active; 'I' for Inactive)
REMARK    1  A    between atoms: C_1  and  C_2
REMARK    2  A    between atoms: C_2  and  O_3
REMARK    3  A    between atoms: O_3  and  C_4
REMARK    4  A    between atoms: C_4  and  C_6
REMARK    5  A    between atoms: C_6  and  N_7
REMARK    6  A    between atoms: C_13  and  S_14
REMARK    7  A    between atoms: S_14  and  N_17
REMARK    8  A    between atoms: N_17  and  C_18
REMARK    9  A    between atoms: C_20  and  O_21
REMARK   10  A    between atoms: O_21  and  C_22
REMARK   11  A    between atoms: C_24  and  O_25
REMARK   12  A    between atoms: O_25  and  C_26
REMARK                            x       y       z     vdW  Elec       q    Type
REMARK                         _______ _______ _______ _____ _____    ______ ____
ROOT
ATOM      1  N   UNL     1       1.391   9.259  19.552  0.00  0.00    +0.000 N 
ATOM      2  C   UNL     1       1.118   9.192  20.902  0.00  0.00    +0.000 A 
ATOM      3  O   UNL     1       0.711  10.114  21.593  0.00  0.00    +0.000 OA
ATOM      4  O   UNL     1       1.381   7.910  21.404  0.00  0.00    +0.000 OA
ATOM      5  C   UNL     1       1.879   7.247  20.293  0.00  0.00    +0.000 A 
ATOM      6  C   UNL     1       2.318   5.943  20.273  0.00  0.00    +0.000 A 
ATOM      7  C   UNL     1       2.824   5.461  19.058  0.00  0.00    +0.000 A 
ATOM      8  C   UNL     1       2.856   6.276  17.904  0.00  0.00    +0.000 A 
ATOM      9  C   UNL     1       2.396   7.598  17.955  0.00  0.00    +0.000 A 
ATOM     10  C   UNL     1       1.910   8.049  19.164  0.00  0.00    +0.000 A 
ENDROOT
BRANCH   7  11
ATOM     11  S   UNL     1       3.347   3.752  18.949  0.00  0.00    +0.000 S 
ATOM     12  O   UNL     1       2.953   3.101  20.179  0.00  0.00    +0.000 OA
ATOM     13  O   UNL     1       2.903   3.259  17.661  0.00  0.00    +0.000 OA
BRANCH  11  14
ATOM     14  N   UNL     1       5.025   3.830  18.866  0.00  0.00    +0.000 N 
ATOM     15  H   UNL     1       5.498   3.115  19.415  0.00  0.00    +0.000 HD
BRANCH  14  16
ATOM     16  C   UNL     1       5.651   4.297  17.680  0.00  0.00    +0.000 A 
ATOM     17  C   UNL     1       6.418   5.460  17.704  0.00  0.00    +0.000 A 
ATOM     18  C   UNL     1       6.998   5.943  16.527  0.00  0.00    +0.000 A 
ATOM     19  C   UNL     1       6.776   5.260  15.330  0.00  0.00    +0.000 A 
ATOM     20  C   UNL     1       6.001   4.094  15.304  0.00  0.00    +0.000 A 
ATOM     21  C   UNL     1       5.456   3.602  16.487  0.00  0.00    +0.000 A 
BRANCH  18  22
ATOM     22  O   UNL     1       7.751   7.075  16.672  0.00  0.00    +0.000 OA
ATOM     23  C   UNL     1       7.876   7.598  17.993  0.00  0.00    +0.000 C 
ENDBRANCH  18  22
BRANCH  20  24
ATOM     24  O   UNL     1       5.844   3.534  14.065  0.00  0.00    +0.000 OA
ATOM     25  C   UNL     1       6.674   4.043  13.023  0.00  0.00    +0.000 C 
ENDBRANCH  20  24
ENDBRANCH  14  16
ENDBRANCH  11  14
ENDBRANCH   7  11
BRANCH   1  26
ATOM     26  C   UNL     1       1.330  10.464  18.761  0.00  0.00    +0.000 C 
BRANCH  26  27
ATOM     27  C   UNL     1      -0.112  10.922  18.625  0.00  0.00    +0.000 C 
ATOM     28  O   UNL     1      -0.567  11.972  19.068  0.00  0.00    +0.000 OA
BRANCH  27  29
ATOM     29  O   UNL     1      -0.834   9.975  17.960  0.00  0.00    +0.000 OA
BRANCH  29  31
ATOM     30  C   UNL     1      -2.494   9.958  16.243  0.00  0.00    +0.000 C 
ATOM     31  C   UNL     1      -2.194  10.337  17.683  0.00  0.00    +0.000 C 
ENDBRANCH  29  31
ENDBRANCH  27  29
ENDBRANCH  26  27
ENDBRANCH   1  26
TORSDOF 9
ENDMDL
