MODEL 1
REMARK VINA RESULT:      -8.5      0.000      0.000
REMARK  Name = 
REMARK  6 active torsions:
REMARK  status: ('A' for Active; 'I' for Inactive)
REMARK    1  A    between atoms: C_1  and  C_2
REMARK    2  A    between atoms: C_2  and  C_4
REMARK    3  A    between atoms: C_7  and  C_8
REMARK    4  A    between atoms: C_11  and  N_12
REMARK    5  A    between atoms: C_13  and  C_14
REMARK    6  A    between atoms: N_16  and  C_17
REMARK                            x       y       z     vdW  Elec       q    Type
REMARK                         _______ _______ _______ _____ _____    ______ ____
ROOT
ATOM      1  C   UNL     1       4.538   4.010  18.906  0.00  0.00    +0.000 A 
ATOM      2  C   UNL     1       4.481   2.816  19.617  0.00  0.00    +0.000 A 
ATOM      3  N   UNL     1       3.592   2.552  20.613  0.00  0.00    +0.000 NA
ATOM      4  C   UNL     1       2.699   3.510  20.929  0.00  0.00    +0.000 A 
ATOM      5  C   UNL     1       2.673   4.744  20.282  0.00  0.00    +0.000 A 
ATOM      6  C   UNL     1       3.607   4.984  19.262  0.00  0.00    +0.000 A 
ENDROOT
BRANCH   1  10
ATOM      7  C   UNL     1       6.686   4.561  15.914  0.00  0.00    +0.000 A 
ATOM      8  C   UNL     1       7.589   4.491  16.957  0.00  0.00    +0.000 A 
ATOM      9  N   UNL     1       6.893   4.321  18.125  0.00  0.00    +0.000 N 
ATOM     10  C   UNL     1       5.537   4.257  17.870  0.00  0.00    +0.000 A 
ATOM     11  C   UNL     1       5.394   4.444  16.506  0.00  0.00    +0.000 A 
ATOM     12  H   UNL     1       7.313   4.241  19.042  0.00  0.00    +0.000 HD
BRANCH   7  14
ATOM     13  C   UNL     1       6.204   3.874  13.501  0.00  0.00    +0.000 C 
ATOM     14  C   UNL     1       6.981   4.710  14.489  0.00  0.00    +0.000 C 
ATOM     15  O   UNL     1       7.834   5.504  14.097  0.00  0.00    +0.000 OA
ENDBRANCH   7  14
ENDBRANCH   1  10
BRANCH   5  16
ATOM     16  C   UNL     1       1.706   5.831  20.568  0.00  0.00    +0.000 C 
ATOM     17  O   UNL     1       0.527   5.509  20.698  0.00  0.00    +0.000 OA
ATOM     18  N   UNL     1       2.202   7.122  20.599  0.00  0.00    +0.000 N 
ATOM     19  H   UNL     1       3.184   7.242  20.359  0.00  0.00    +0.000 HD
BRANCH  18  20
ATOM     20  C   UNL     1       1.437   8.293  20.814  0.00  0.00    +0.000 A 
ATOM     21  C   UNL     1       1.035   8.720  22.077  0.00  0.00    +0.000 A 
ATOM     22  C   UNL     1       0.265   9.868  22.180  0.00  0.00    +0.000 A 
ATOM     23  N   UNL     1      -0.125  10.607  21.123  0.00  0.00    +0.000 NA
ATOM     24  C   UNL     1       0.284  10.182  19.910  0.00  0.00    +0.000 A 
ATOM     25  C   UNL     1       1.070   9.055  19.706  0.00  0.00    +0.000 A 
ENDBRANCH  18  20
ENDBRANCH   5  16
BRANCH   4  26
ATOM     26  N   UNL     1       1.820   3.160  21.956  0.00  0.00    +0.000 N 
ATOM     27  H   UNL     1       1.767   2.140  21.933  0.00  0.00    +0.000 HD
ATOM     28  H   UNL     1       0.899   3.561  21.792  0.00  0.00    +0.000 HD
ENDBRANCH   4  26
TORSDOF 5
ENDMDL
MODEL 2
REMARK VINA RESULT:      -8.1      3.419      5.934
REMARK  Name = 
REMARK  6 active torsions:
REMARK  status: ('A' for Active; 'I' for Inactive)
REMARK    1  A    between atoms: C_1  and  C_2
REMARK    2  A    between atoms: C_2  and  C_4
REMARK    3  A    between atoms: C_7  and  C_8
REMARK    4  A    between atoms: C_11  and  N_12
REMARK    5  A    between atoms: C_13  and  C_14
REMARK    6  A    between atoms: N_16  and  C_17
REMARK                            x       y       z     vdW  Elec       q    Type
REMARK                         _______ _______ _______ _____ _____    ______ ____
ROOT
ATOM      1  C   UNL     1       6.038   4.206  14.271  0.00  0.00    +0.000 A 
ATOM      2  C   UNL     1       7.183   4.994  14.309  0.00  0.00    +0.000 A 
ATOM      3  N   UNL     1       7.694   5.561  15.436  0.00  0.00    +0.000 NA
ATOM      4  C   UNL     1       7.050   5.338  16.599  0.00  0.00    +0.000 A 
ATOM      5  C   UNL     1       5.891   4.568  16.671  0.00  0.00    +0.000 A 
ATOM      6  C   UNL     1       5.390   4.002  15.488  0.00  0.00    +0.000 A 
ENDROOT
BRANCH   1  10
ATOM      7  C   UNL     1       4.267   3.115  11.183  0.00  0.00    +0.000 A 
ATOM      8  C   UNL     1       5.312   2.220  11.293  0.00  0.00    +0.000 A 
ATOM      9  N   UNL     1       6.058   2.555  12.393  0.00  0.00    +0.000 N 
ATOM     10  C   UNL     1       5.509   3.652  13.027  0.00  0.00    +0.000 A 
ATOM     11  C   UNL     1       4.420   4.032  12.263  0.00  0.00    +0.000 A 
ATOM     12  H   UNL     1       6.886   2.063  12.703  0.00  0.00    +0.000 HD
BRANCH   7  14
ATOM     13  C   UNL     1       2.875   4.425   9.487  0.00  0.00    +0.000 C 
ATOM     14  C   UNL     1       3.204   3.123  10.177  0.00  0.00    +0.000 C 
ATOM     15  O   UNL     1       2.596   2.094   9.889  0.00  0.00    +0.000 OA
ENDBRANCH   7  14
ENDBRANCH   1  10
BRANCH   5  16
ATOM     16  C   UNL     1       5.148   4.269  17.918  0.00  0.00    +0.000 C 
ATOM     17  O   UNL     1       5.816   3.996  18.913  0.00  0.00    +0.000 OA
ATOM     18  N   UNL     1       3.767   4.256  17.840  0.00  0.00    +0.000 N 
ATOM     19  H   UNL     1       3.359   4.389  16.917  0.00  0.00    +0.000 HD
BRANCH  18  20
ATOM     20  C   UNL     1       2.885   3.954  18.905  0.00  0.00    +0.000 A 
ATOM     21  C   UNL     1       2.521   4.880  19.879  0.00  0.00    +0.000 A 
ATOM     22  C   UNL     1       1.670   4.479  20.897  0.00  0.00    +0.000 A 
ATOM     23  N   UNL     1       1.166   3.234  21.006  0.00  0.00    +0.000 NA
ATOM     24  C   UNL     1       1.523   2.356  20.047  0.00  0.00    +0.000 A 
ATOM     25  C   UNL     1       2.356   2.666  18.980  0.00  0.00    +0.000 A 
ENDBRANCH  18  20
ENDBRANCH   5  16
BRANCH   4  26
ATOM     26  N   UNL     1       7.639   5.948  17.708  0.00  0.00    +0.000 N 
ATOM     27  H   UNL     1       6.924   6.574  18.086  0.00  0.00    +0.000 HD
ATOM     28  H   UNL     1       8.459   6.484  17.430  0.00  0.00    +0.000 HD
ENDBRANCH   4  26
TORSDOF 5
ENDMDL
MODEL 3
REMARK VINA RESULT:      -7.7      5.559      6.488
REMARK  Name = 
REMARK  6 active torsions:
REMARK  status: ('A' for Active; 'I' for Inactive)
REMARK    1  A    between atoms: C_1  and  C_2
REMARK    2  A    between atoms: C_2  and  C_4
REMARK    3  A    between atoms: C_7  and  C_8
REMARK    4  A    between atoms: C_11  and  N_12
REMARK    5  A    between atoms: C_13  and  C_14
REMARK    6  A    between atoms: N_16  and  C_17
REMARK                            x       y       z     vdW  Elec       q    Type
REMARK                         _______ _______ _______ _____ _____    ______ ____
ROOT
ATOM      1  C   UNL     1       7.191   5.199  16.094  0.00  0.00    +0.000 A 
ATOM      2  C   UNL     1       7.276   4.282  17.135  0.00  0.00    +0.000 A 
ATOM      3  N   UNL     1       7.537   4.606  18.431  0.00  0.00    +0.000 NA
ATOM      4  C   UNL     1       7.718   5.908  18.728  0.00  0.00    +0.000 A 
ATOM      5  C   UNL     1       7.659   6.907  17.759  0.00  0.00    +0.000 A 
ATOM      6  C   UNL     1       7.392   6.536  16.432  0.00  0.00    +0.000 A 
ENDROOT
BRANCH   1  10
ATOM      7  C   UNL     1       6.247   3.786  12.780  0.00  0.00    +0.000 A 
ATOM      8  C   UNL     1       7.275   4.660  12.482  0.00  0.00    +0.000 A 
ATOM      9  N   UNL     1       7.680   5.268  13.642  0.00  0.00    +0.000 N 
ATOM     10  C   UNL     1       6.946   4.794  14.712  0.00  0.00    +0.000 A 
ATOM     11  C   UNL     1       6.028   3.903  14.184  0.00  0.00    +0.000 A 
ATOM     12  H   UNL     1       8.418   5.956  13.708  0.00  0.00    +0.000 HD
BRANCH   7  14
ATOM     13  C   UNL     1       4.168   3.327  11.368  0.00  0.00    +0.000 C 
ATOM     14  C   UNL     1       5.532   2.905  11.857  0.00  0.00    +0.000 C 
ATOM     15  O   UNL     1       6.030   1.847  11.476  0.00  0.00    +0.000 OA
ENDBRANCH   7  14
ENDBRANCH   1  10
BRANCH   5  16
ATOM     16  C   UNL     1       7.829   8.356  18.023  0.00  0.00    +0.000 C 
ATOM     17  O   UNL     1       7.021   9.118  17.497  0.00  0.00    +0.000 OA
ATOM     18  N   UNL     1       8.920   8.732  18.786  0.00  0.00    +0.000 N 
ATOM     19  H   UNL     1       9.566   7.994  19.057  0.00  0.00    +0.000 HD
BRANCH  18  20
ATOM     20  C   UNL     1       9.278  10.062  19.114  0.00  0.00    +0.000 A 
ATOM     21  C   UNL     1       9.191  10.578  20.404  0.00  0.00    +0.000 A 
ATOM     22  C   UNL     1       9.541  11.902  20.618  0.00  0.00    +0.000 A 
ATOM     23  N   UNL     1       9.963  12.733  19.645  0.00  0.00    +0.000 NA
ATOM     24  C   UNL     1      10.049  12.210  18.405  0.00  0.00    +0.000 A 
ATOM     25  C   UNL     1       9.738  10.893  18.093  0.00  0.00    +0.000 A 
ENDBRANCH  18  20
ENDBRANCH   5  16
BRANCH   4  26
ATOM     26  N   UNL     1       7.976   6.159  20.078  0.00  0.00    +0.000 N 
ATOM     27  H   UNL     1       7.628   5.338  20.579  0.00  0.00    +0.000 HD
ATOM     28  H   UNL     1       7.481   6.992  20.389  0.00  0.00    +0.000 HD
ENDBRANCH   4  26
TORSDOF 5
ENDMDL
MODEL 4
REMARK VINA RESULT:      -7.4      1.884      2.272
REMARK  Name = 
REMARK  6 active torsions:
REMARK  status: ('A' for Active; 'I' for Inactive)
REMARK    1  A    between atoms: C_1  and  C_2
REMARK    2  A    between atoms: C_2  and  C_4
REMARK    3  A    between atoms: C_7  and  C_8
REMARK    4  A    between atoms: C_11  and  N_12
REMARK    5  A    between atoms: C_13  and  C_14
REMARK    6  A    between atoms: N_16  and  C_17
REMARK                            x       y       z     vdW  Elec       q    Type
REMARK                         _______ _______ _______ _____ _____    ______ ____
ROOT
ATOM      1  C   UNL     1       4.192   4.996  17.695  0.00  0.00    +0.000 A 
ATOM      2  C   UNL     1       3.646   3.875  18.310  0.00  0.00    +0.000 A 
ATOM      3  N   UNL     1       2.653   3.910  19.240  0.00  0.00    +0.000 NA
ATOM      4  C   UNL     1       2.158   5.116  19.584  0.00  0.00    +0.000 A 
ATOM      5  C   UNL     1       2.638   6.302  19.032  0.00  0.00    +0.000 A 
ATOM      6  C   UNL     1       3.665   6.227  18.079  0.00  0.00    +0.000 A 
ENDROOT
BRANCH   1  10
ATOM      7  C   UNL     1       6.592   4.746  14.859  0.00  0.00    +0.000 A 
ATOM      8  C   UNL     1       7.386   4.569  15.975  0.00  0.00    +0.000 A 
ATOM      9  N   UNL     1       6.598   4.677  17.091  0.00  0.00    +0.000 N 
ATOM     10  C   UNL     1       5.285   4.905  16.730  0.00  0.00    +0.000 A 
ATOM     11  C   UNL     1       5.275   4.988  15.349  0.00  0.00    +0.000 A 
ATOM     12  H   UNL     1       6.929   4.590  18.044  0.00  0.00    +0.000 HD
BRANCH   7  14
ATOM     13  C   UNL     1       6.384   3.632  12.569  0.00  0.00    +0.000 C 
ATOM     14  C   UNL     1       7.003   4.685  13.456  0.00  0.00    +0.000 C 
ATOM     15  O   UNL     1       7.826   5.477  13.001  0.00  0.00    +0.000 OA
ENDBRANCH   7  14
ENDBRANCH   1  10
BRANCH   5  16
ATOM     16  C   UNL     1       2.124   7.655  19.353  0.00  0.00    +0.000 C 
ATOM     17  O   UNL     1       1.901   7.901  20.536  0.00  0.00    +0.000 OA
ATOM     18  N   UNL     1       1.875   8.502  18.287  0.00  0.00    +0.000 N 
ATOM     19  H   UNL     1       2.002   8.114  17.354  0.00  0.00    +0.000 HD
BRANCH  18  20
ATOM     20  C   UNL     1       1.347   9.811  18.382  0.00  0.00    +0.000 A 
ATOM     21  C   UNL     1       2.138  10.957  18.342  0.00  0.00    +0.000 A 
ATOM     22  C   UNL     1       1.528  12.194  18.468  0.00  0.00    +0.000 A 
ATOM     23  N   UNL     1       0.200  12.363  18.630  0.00  0.00    +0.000 NA
ATOM     24  C   UNL     1      -0.548  11.241  18.656  0.00  0.00    +0.000 A 
ATOM     25  C   UNL     1      -0.032   9.959  18.521  0.00  0.00    +0.000 A 
ENDBRANCH  18  20
ENDBRANCH   5  16
BRANCH   4  26
ATOM     26  N   UNL     1       1.140   5.067  20.539  0.00  0.00    +0.000 N 
ATOM     27  H   UNL     1       0.286   5.326  20.040  0.00  0.00    +0.000 HD
ATOM     28  H   UNL     1       1.319   5.731  21.290  0.00  0.00    +0.000 HD
ENDBRANCH   4  26
TORSDOF 5
ENDMDL
MODEL 5
REMARK VINA RESULT:      -7.3      2.366      8.073
REMARK  Name = 
REMARK  6 active torsions:
REMARK  status: ('A' for Active; 'I' for Inactive)
REMARK    1  A    between atoms: C_1  and  C_2
REMARK    2  A    between atoms: C_2  and  C_4
REMARK    3  A    between atoms: C_7  and  C_8
REMARK    4  A    between atoms: C_11  and  N_12
REMARK    5  A    between atoms: C_13  and  C_14
REMARK    6  A    between atoms: N_16  and  C_17
REMARK                            x       y       z     vdW  Elec       q    Type
REMARK                         _______ _______ _______ _____ _____    ______ ____
ROOT
ATOM      1  C   UNL     1       3.077   6.379  18.943  0.00  0.00    +0.000 A 
ATOM      2  C   UNL     1       2.892   5.431  19.943  0.00  0.00    +0.000 A 
ATOM      3  N   UNL     1       3.532   4.230  19.996  0.00  0.00    +0.000 NA
ATOM      4  C   UNL     1       4.411   3.943  19.016  0.00  0.00    +0.000 A 
ATOM      5  C   UNL     1       4.665   4.821  17.965  0.00  0.00    +0.000 A 
ATOM      6  C   UNL     1       3.985   6.048  17.939  0.00  0.00    +0.000 A 
ENDROOT
BRANCH   1  10
ATOM      7  C   UNL     1       1.010   9.450  19.352  0.00  0.00    +0.000 A 
ATOM      8  C   UNL     1       1.393   9.489  18.026  0.00  0.00    +0.000 A 
ATOM      9  N   UNL     1       2.196   8.407  17.773  0.00  0.00    +0.000 N 
ATOM     10  C   UNL     1       2.336   7.638  18.912  0.00  0.00    +0.000 A 
ATOM     11  C   UNL     1       1.636   8.296  19.908  0.00  0.00    +0.000 A 
ATOM     12  H   UNL     1       2.617   8.195  16.878  0.00  0.00    +0.000 HD
BRANCH   7  14
ATOM     13  C   UNL     1       0.190  10.442  21.560  0.00  0.00    +0.000 C 
ATOM     14  C   UNL     1       0.130  10.385  20.052  0.00  0.00    +0.000 C 
ATOM     15  O   UNL     1      -0.637  11.119  19.432  0.00  0.00    +0.000 OA
ENDBRANCH   7  14
ENDBRANCH   1  10
BRANCH   5  16
ATOM     16  C   UNL     1       5.633   4.574  16.869  0.00  0.00    +0.000 C 
ATOM     17  O   UNL     1       6.804   4.384  17.191  0.00  0.00    +0.000 OA
ATOM     18  N   UNL     1       5.148   4.643  15.575  0.00  0.00    +0.000 N 
ATOM     19  H   UNL     1       4.176   4.924  15.464  0.00  0.00    +0.000 HD
BRANCH  18  20
ATOM     20  C   UNL     1       5.917   4.479  14.398  0.00  0.00    +0.000 A 
ATOM     21  C   UNL     1       7.092   5.184  14.150  0.00  0.00    +0.000 A 
ATOM     22  C   UNL     1       7.760   4.971  12.955  0.00  0.00    +0.000 A 
ATOM     23  N   UNL     1       7.339   4.114  12.003  0.00  0.00    +0.000 NA
ATOM     24  C   UNL     1       6.204   3.434  12.267  0.00  0.00    +0.000 A 
ATOM     25  C   UNL     1       5.474   3.567  13.441  0.00  0.00    +0.000 A 
ENDBRANCH  18  20
ENDBRANCH   5  16
BRANCH   4  26
ATOM     26  N   UNL     1       5.028   2.697  19.145  0.00  0.00    +0.000 N 
ATOM     27  H   UNL     1       4.292   2.009  18.972  0.00  0.00    +0.000 HD
ATOM     28  H   UNL     1       5.402   2.577  20.084  0.00  0.00    +0.000 HD
ENDBRANCH   4  26
TORSDOF 5
ENDMDL
MODEL 6
REMARK VINA RESULT:      -7.3      2.154      2.769
REMARK  Name = 
REMARK  6 active torsions:
REMARK  status: ('A' for Active; 'I' for Inactive)
REMARK    1  A    between atoms: C_1  and  C_2
REMARK    2  A    between atoms: C_2  and  C_4
REMARK    3  A    between atoms: C_7  and  C_8
REMARK    4  A    between atoms: C_11  and  N_12
REMARK    5  A    between atoms: C_13  and  C_14
REMARK    6  A    between atoms: N_16  and  C_17
REMARK                            x       y       z     vdW  Elec       q    Type
REMARK                         _______ _______ _______ _____ _____    ______ ____
ROOT
ATOM      1  C   UNL     1       4.306   5.812  17.929  0.00  0.00    +0.000 A 
ATOM      2  C   UNL     1       4.036   5.132  19.112  0.00  0.00    +0.000 A 
ATOM      3  N   UNL     1       3.140   5.541  20.051  0.00  0.00    +0.000 NA
ATOM      4  C   UNL     1       2.460   6.681  19.816  0.00  0.00    +0.000 A 
ATOM      5  C   UNL     1       2.659   7.442  18.666  0.00  0.00    +0.000 A 
ATOM      6  C   UNL     1       3.594   6.992  17.721  0.00  0.00    +0.000 A 
ENDROOT
BRANCH   1  10
ATOM      7  C   UNL     1       6.529   4.830  15.108  0.00  0.00    +0.000 A 
ATOM      8  C   UNL     1       7.085   4.193  16.200  0.00  0.00    +0.000 A 
ATOM      9  N   UNL     1       6.355   4.517  17.313  0.00  0.00    +0.000 N 
ATOM     10  C   UNL     1       5.306   5.349  16.971  0.00  0.00    +0.000 A 
ATOM     11  C   UNL     1       5.427   5.581  15.613  0.00  0.00    +0.000 A 
ATOM     12  H   UNL     1       6.548   4.186  18.249  0.00  0.00    +0.000 HD
BRANCH   7  14
ATOM     13  C   UNL     1       6.320   3.716  12.818  0.00  0.00    +0.000 C 
ATOM     14  C   UNL     1       6.962   4.749  13.713  0.00  0.00    +0.000 C 
ATOM     15  O   UNL     1       7.822   5.507  13.271  0.00  0.00    +0.000 OA
ENDBRANCH   7  14
ENDBRANCH   1  10
BRANCH   5  16
ATOM     16  C   UNL     1       1.931   8.691  18.340  0.00  0.00    +0.000 C 
ATOM     17  O   UNL     1       2.105   9.161  17.218  0.00  0.00    +0.000 OA
ATOM     18  N   UNL     1       1.172   9.258  19.348  0.00  0.00    +0.000 N 
ATOM     19  H   UNL     1       1.218   8.813  20.262  0.00  0.00    +0.000 HD
BRANCH  18  20
ATOM     20  C   UNL     1       0.440  10.465  19.249  0.00  0.00    +0.000 A 
ATOM     21  C   UNL     1       0.999  11.717  19.494  0.00  0.00    +0.000 A 
ATOM     22  C   UNL     1       0.191  12.839  19.395  0.00  0.00    +0.000 A 
ATOM     23  N   UNL     1      -1.117  12.796  19.073  0.00  0.00    +0.000 NA
ATOM     24  C   UNL     1      -1.635  11.575  18.830  0.00  0.00    +0.000 A 
ATOM     25  C   UNL     1      -0.904  10.395  18.887  0.00  0.00    +0.000 A 
ENDBRANCH  18  20
ENDBRANCH   5  16
BRANCH   4  26
ATOM     26  N   UNL     1       1.558   7.030  20.823  0.00  0.00    +0.000 N 
ATOM     27  H   UNL     1       2.045   6.843  21.703  0.00  0.00    +0.000 HD
ATOM     28  H   UNL     1       0.716   6.460  20.764  0.00  0.00    +0.000 HD
ENDBRANCH   4  26
TORSDOF 5
ENDMDL
MODEL 7
REMARK VINA RESULT:      -7.3      2.320      8.044
REMARK  Name = 
REMARK  6 active torsions:
REMARK  status: ('A' for Active; 'I' for Inactive)
REMARK    1  A    between atoms: C_1  and  C_2
REMARK    2  A    between atoms: C_2  and  C_4
REMARK    3  A    between atoms: C_7  and  C_8
REMARK    4  A    between atoms: C_11  and  N_12
REMARK    5  A    between atoms: C_13  and  C_14
REMARK    6  A    between atoms: N_16  and  C_17
REMARK                            x       y       z     vdW  Elec       q    Type
REMARK                         _______ _______ _______ _____ _____    ______ ____
ROOT
ATOM      1  C   UNL     1       3.076   6.332  18.963  0.00  0.00    +0.000 A 
ATOM      2  C   UNL     1       2.899   5.397  19.977  0.00  0.00    +0.000 A 
ATOM      3  N   UNL     1       3.519   4.187  20.029  0.00  0.00    +0.000 NA
ATOM      4  C   UNL     1       4.371   3.874  19.033  0.00  0.00    +0.000 A 
ATOM      5  C   UNL     1       4.616   4.736  17.966  0.00  0.00    +0.000 A 
ATOM      6  C   UNL     1       3.956   5.974  17.942  0.00  0.00    +0.000 A 
ENDROOT
BRANCH   1  10
ATOM      7  C   UNL     1       1.069   9.440  19.383  0.00  0.00    +0.000 A 
ATOM      8  C   UNL     1       1.429   9.462  18.050  0.00  0.00    +0.000 A 
ATOM      9  N   UNL     1       2.209   8.365  17.792  0.00  0.00    +0.000 N 
ATOM     10  C   UNL     1       2.357   7.602  18.934  0.00  0.00    +0.000 A 
ATOM     11  C   UNL     1       1.686   8.280  19.937  0.00  0.00    +0.000 A 
ATOM     12  H   UNL     1       2.610   8.138  16.891  0.00  0.00    +0.000 HD
BRANCH   7  14
ATOM     13  C   UNL     1      -1.091  10.803  19.458  0.00  0.00    +0.000 C 
ATOM     14  C   UNL     1       0.218  10.396  20.091  0.00  0.00    +0.000 C 
ATOM     15  O   UNL     1       0.551  10.856  21.182  0.00  0.00    +0.000 OA
ENDBRANCH   7  14
ENDBRANCH   1  10
BRANCH   5  16
ATOM     16  C   UNL     1       5.553   4.460  16.851  0.00  0.00    +0.000 C 
ATOM     17  O   UNL     1       6.710   4.176  17.153  0.00  0.00    +0.000 OA
ATOM     18  N   UNL     1       5.064   4.610  15.566  0.00  0.00    +0.000 N 
ATOM     19  H   UNL     1       4.113   4.962  15.476  0.00  0.00    +0.000 HD
BRANCH  18  20
ATOM     20  C   UNL     1       5.808   4.434  14.375  0.00  0.00    +0.000 A 
ATOM     21  C   UNL     1       5.426   3.560  13.360  0.00  0.00    +0.000 A 
ATOM     22  C   UNL     1       6.237   3.440  12.243  0.00  0.00    +0.000 A 
ATOM     23  N   UNL     1       7.388   4.122  12.074  0.00  0.00    +0.000 NA
ATOM     24  C   UNL     1       7.734   4.969  13.064  0.00  0.00    +0.000 A 
ATOM     25  C   UNL     1       6.980   5.171  14.213  0.00  0.00    +0.000 A 
ENDBRANCH  18  20
ENDBRANCH   5  16
BRANCH   4  26
ATOM     26  N   UNL     1       4.969   2.619  19.162  0.00  0.00    +0.000 N 
ATOM     27  H   UNL     1       4.763   2.127  18.289  0.00  0.00    +0.000 HD
ATOM     28  H   UNL     1       4.572   2.110  19.949  0.00  0.00    +0.000 HD
ENDBRANCH   4  26
TORSDOF 5
ENDMDL
MODEL 8
REMARK VINA RESULT:      -7.2      2.272      7.666
REMARK  Name = 
REMARK  6 active torsions:
REMARK  status: ('A' for Active; 'I' for Inactive)
REMARK    1  A    between atoms: C_1  and  C_2
REMARK    2  A    between atoms: C_2  and  C_4
REMARK    3  A    between atoms: C_7  and  C_8
REMARK    4  A    between atoms: C_11  and  N_12
REMARK    5  A    between atoms: C_13  and  C_14
REMARK    6  A    between atoms: N_16  and  C_17
REMARK                            x       y       z     vdW  Elec       q    Type
REMARK                         _______ _______ _______ _____ _____    ______ ____
ROOT
ATOM      1  C   UNL     1       2.940   5.985  19.513  0.00  0.00    +0.000 A 
ATOM      2  C   UNL     1       2.715   4.917  20.375  0.00  0.00    +0.000 A 
ATOM      3  N   UNL     1       3.330   3.707  20.283  0.00  0.00    +0.000 NA
ATOM      4  C   UNL     1       4.228   3.532  19.293  0.00  0.00    +0.000 A 
ATOM      5  C   UNL     1       4.524   4.535  18.372  0.00  0.00    +0.000 A 
ATOM      6  C   UNL     1       3.867   5.769  18.494  0.00  0.00    +0.000 A 
ENDROOT
BRANCH   1  10
ATOM      7  C   UNL     1       1.345   9.345  19.348  0.00  0.00    +0.000 A 
ATOM      8  C   UNL     1       1.061   8.911  20.628  0.00  0.00    +0.000 A 
ATOM      9  N   UNL     1       1.581   7.653  20.787  0.00  0.00    +0.000 N 
ATOM     10  C   UNL     1       2.224   7.252  19.632  0.00  0.00    +0.000 A 
ATOM     11  C   UNL     1       2.051   8.277  18.720  0.00  0.00    +0.000 A 
ATOM     12  H   UNL     1       1.514   7.101  21.632  0.00  0.00    +0.000 HD
BRANCH   7  14
ATOM     13  C   UNL     1      -0.414  11.131  18.854  0.00  0.00    +0.000 C 
ATOM     14  C   UNL     1       1.008  10.637  18.751  0.00  0.00    +0.000 C 
ATOM     15  O   UNL     1       1.863  11.316  18.185  0.00  0.00    +0.000 OA
ENDBRANCH   7  14
ENDBRANCH   1  10
BRANCH   5  16
ATOM     16  C   UNL     1       5.513   4.413  17.275  0.00  0.00    +0.000 C 
ATOM     17  O   UNL     1       6.692   4.289  17.598  0.00  0.00    +0.000 OA
ATOM     18  N   UNL     1       5.033   4.515  15.981  0.00  0.00    +0.000 N 
ATOM     19  H   UNL     1       4.044   4.733  15.875  0.00  0.00    +0.000 HD
BRANCH  18  20
ATOM     20  C   UNL     1       5.818   4.467  14.805  0.00  0.00    +0.000 A 
ATOM     21  C   UNL     1       6.974   5.223  14.628  0.00  0.00    +0.000 A 
ATOM     22  C   UNL     1       7.660   5.123  13.429  0.00  0.00    +0.000 A 
ATOM     23  N   UNL     1       7.275   4.333  12.407  0.00  0.00    +0.000 NA
ATOM     24  C   UNL     1       6.158   3.602  12.603  0.00  0.00    +0.000 A 
ATOM     25  C   UNL     1       5.412   3.620  13.774  0.00  0.00    +0.000 A 
ENDBRANCH  18  20
ENDBRANCH   5  16
BRANCH   4  26
ATOM     26  N   UNL     1       4.818   2.266  19.270  0.00  0.00    +0.000 N 
ATOM     27  H   UNL     1       4.183   1.660  19.793  0.00  0.00    +0.000 HD
ATOM     28  H   UNL     1       5.731   2.288  19.721  0.00  0.00    +0.000 HD
ENDBRANCH   4  26
TORSDOF 5
ENDMDL
MODEL 9
REMARK VINA RESULT:      -7.2      1.074      1.159
REMARK  Name = 
REMARK  6 active torsions:
REMARK  status: ('A' for Active; 'I' for Inactive)
REMARK    1  A    between atoms: C_1  and  C_2
REMARK    2  A    between atoms: C_2  and  C_4
REMARK    3  A    between atoms: C_7  and  C_8
REMARK    4  A    between atoms: C_11  and  N_12
REMARK    5  A    between atoms: C_13  and  C_14
REMARK    6  A    between atoms: N_16  and  C_17
REMARK                            x       y       z     vdW  Elec       q    Type
REMARK                         _______ _______ _______ _____ _____    ______ ____
ROOT
ATOM      1  C   UNL     1       4.395   4.049  18.287  0.00  0.00    +0.000 A 
ATOM      2  C   UNL     1       4.255   2.866  19.004  0.00  0.00    +0.000 A 
ATOM      3  N   UNL     1       3.442   2.709  20.084  0.00  0.00    +0.000 NA
ATOM      4  C   UNL     1       2.715   3.772  20.483  0.00  0.00    +0.000 A 
ATOM      5  C   UNL     1       2.786   5.005  19.838  0.00  0.00    +0.000 A 
ATOM      6  C   UNL     1       3.637   5.132  18.730  0.00  0.00    +0.000 A 
ENDROOT
BRANCH   1  10
ATOM      7  C   UNL     1       6.308   4.238  15.098  0.00  0.00    +0.000 A 
ATOM      8  C   UNL     1       7.285   4.322  16.070  0.00  0.00    +0.000 A 
ATOM      9  N   UNL     1       6.679   4.294  17.299  0.00  0.00    +0.000 N 
ATOM     10  C   UNL     1       5.311   4.175  17.156  0.00  0.00    +0.000 A 
ATOM     11  C   UNL     1       5.065   4.178  15.794  0.00  0.00    +0.000 A 
ATOM     12  H   UNL     1       7.165   4.343  18.185  0.00  0.00    +0.000 HD
BRANCH   7  14
ATOM     13  C   UNL     1       7.601   5.037  13.043  0.00  0.00    +0.000 C 
ATOM     14  C   UNL     1       6.496   4.203  13.648  0.00  0.00    +0.000 C 
ATOM     15  O   UNL     1       5.781   3.505  12.932  0.00  0.00    +0.000 OA
ENDBRANCH   7  14
ENDBRANCH   1  10
BRANCH   5  16
ATOM     16  C   UNL     1       2.000   6.205  20.214  0.00  0.00    +0.000 C 
ATOM     17  O   UNL     1       1.149   6.062  21.089  0.00  0.00    +0.000 OA
ATOM     18  N   UNL     1       2.246   7.366  19.503  0.00  0.00    +0.000 N 
ATOM     19  H   UNL     1       2.902   7.298  18.728  0.00  0.00    +0.000 HD
BRANCH  18  20
ATOM     20  C   UNL     1       1.575   8.599  19.682  0.00  0.00    +0.000 A 
ATOM     21  C   UNL     1       1.127   9.050  20.921  0.00  0.00    +0.000 A 
ATOM     22  C   UNL     1       0.457  10.261  20.989  0.00  0.00    +0.000 A 
ATOM     23  N   UNL     1       0.207  11.041  19.918  0.00  0.00    +0.000 NA
ATOM     24  C   UNL     1       0.658  10.590  18.730  0.00  0.00    +0.000 A 
ATOM     25  C   UNL     1       1.352   9.399  18.563  0.00  0.00    +0.000 A 
ENDBRANCH  18  20
ENDBRANCH   5  16
BRANCH   4  26
ATOM     26  N   UNL     1       1.904   3.530  21.594  0.00  0.00    +0.000 N 
ATOM     27  H   UNL     1       1.961   4.377  22.164  0.00  0.00    +0.000 HD
ATOM     28  H   UNL     1       2.249   2.731  22.123  0.00  0.00    +0.000 HD
ENDBRANCH   4  26
TORSDOF 5
ENDMDL
