MODEL 1
REMARK VINA RESULT:      -6.9      0.000      0.000
REMARK  Name = 
REMARK  11 active torsions:
REMARK  status: ('A' for Active; 'I' for Inactive)
REMARK    1  A    between atoms: C_1  and  C_2
REMARK    2  A    between atoms: C_2  and  N_3
REMARK    3  A    between atoms: N_3  and  C_4
REMARK    4  A    between atoms: C_4  and  O_5
REMARK    5  A    between atoms: C_4  and  C_6
REMARK    6  A    between atoms: C_6  and  S_7
REMARK    7  A    between atoms: S_7  and  C_8
REMARK    8  A    between atoms: C_9  and  O_10
REMARK    9  A    between atoms: C_15  and  C_16
REMARK   10  A    between atoms: C_22  and  C_23
REMARK   11  A    between atoms: C_29  and  O_30
REMARK                            x       y       z     vdW  Elec       q    Type
REMARK                         _______ _______ _______ _____ _____    ______ ____
ROOT
ATOM      1  C   UNL     1       3.828   5.881  17.197  0.00  0.00    +0.000 A 
ATOM      2  C   UNL     1       4.180   7.115  16.631  0.00  0.00    +0.000 A 
ATOM      3  N   UNL     1       3.750   8.309  17.042  0.00  0.00    +0.000 NA
ATOM      4  C   UNL     1       2.910   8.338  18.073  0.00  0.00    +0.000 A 
ATOM      5  C   UNL     1       2.381   9.579  18.391  0.00  0.00    +0.000 A 
ATOM      6  C   UNL     1       1.434   9.748  19.398  0.00  0.00    +0.000 A 
ATOM      7  C   UNL     1       1.072   8.656  20.178  0.00  0.00    +0.000 A 
ATOM      8  C   UNL     1       1.669   7.416  19.918  0.00  0.00    +0.000 A 
ATOM      9  C   UNL     1       2.508   7.187  18.794  0.00  0.00    +0.000 A 
ATOM     10  C   UNL     1       2.931   5.894  18.309  0.00  0.00    +0.000 A 
ENDROOT
BRANCH  10  11
ATOM     11  C   UNL     1       2.369   4.613  18.893  0.00  0.00    +0.000 A 
ATOM     12  C   UNL     1       2.910   4.055  20.069  0.00  0.00    +0.000 A 
ATOM     13  C   UNL     1       2.534   2.793  20.537  0.00  0.00    +0.000 A 
ATOM     14 CL   UNL     1       3.399   2.077  21.842  0.00  0.00    +0.000 Cl
ATOM     15  C   UNL     1       1.502   2.093  19.930  0.00  0.00    +0.000 A 
ATOM     16  C   UNL     1       0.867   2.651  18.826  0.00  0.00    +0.000 A 
ATOM     17  C   UNL     1       1.326   3.865  18.296  0.00  0.00    +0.000 A 
BRANCH  17  18
ATOM     18  O   UNL     1       0.730   4.300  17.141  0.00  0.00    +0.000 OA
ATOM     19  H   UNL     1       0.117   3.615  16.822  0.00  0.00    +0.000 HD
ENDBRANCH  17  18
ENDBRANCH  10  11
BRANCH   7  20
ATOM     20  C   UNL     1      -0.034   8.750  21.203  0.00  0.00    +0.000 C 
ATOM     21  F   UNL     1       0.409   8.934  22.477  0.00  0.00    +0.000 F 
ATOM     22  F   UNL     1      -0.880   9.791  20.952  0.00  0.00    +0.000 F 
ATOM     23  F   UNL     1      -0.817   7.636  21.232  0.00  0.00    +0.000 F 
ENDBRANCH   7  20
BRANCH   2  24
ATOM     24  O   UNL     1       4.968   7.197  15.514  0.00  0.00    +0.000 OA
ATOM     25  H   UNL     1       5.279   8.116  15.487  0.00  0.00    +0.000 HD
ENDBRANCH   2  24
BRANCH   1  26
ATOM     26  S   UNL     1       4.483   4.386  16.403  0.00  0.00    +0.000 S 
BRANCH  26  27
ATOM     27  C   UNL     1       5.993   4.024  17.421  0.00  0.00    +0.000 C 
BRANCH  27  28
ATOM     28  C   UNL     1       7.354   4.431  16.811  0.00  0.00    +0.000 C 
BRANCH  28  29
ATOM     29  N   UNL     1       7.413   5.876  16.629  0.00  0.00    +0.000 NA
ATOM     30  H   UNL     1       8.195   6.105  16.017  0.00  0.00    +0.000 HD
BRANCH  29  32
ATOM     31  C   UNL     1       7.759   8.064  17.665  0.00  0.00    +0.000 C 
ATOM     32  C   UNL     1       7.604   6.571  17.907  0.00  0.00    +0.000 C 
ENDBRANCH  29  32
ENDBRANCH  28  29
BRANCH  28  33
ATOM     33  O   UNL     1       8.403   4.067  17.677  0.00  0.00    +0.000 OA
ATOM     34  H   UNL     1       8.339   3.097  17.741  0.00  0.00    +0.000 HD
ENDBRANCH  28  33
ENDBRANCH  27  28
ENDBRANCH  26  27
ENDBRANCH   1  26
TORSDOF 10
ENDMDL
MODEL 2
REMARK VINA RESULT:      -6.5      1.504      2.119
REMARK  Name = 
REMARK  11 active torsions:
REMARK  status: ('A' for Active; 'I' for Inactive)
REMARK    1  A    between atoms: C_1  and  C_2
REMARK    2  A    between atoms: C_2  and  N_3
REMARK    3  A    between atoms: N_3  and  C_4
REMARK    4  A    between atoms: C_4  and  O_5
REMARK    5  A    between atoms: C_4  and  C_6
REMARK    6  A    between atoms: C_6  and  S_7
REMARK    7  A    between atoms: S_7  and  C_8
REMARK    8  A    between atoms: C_9  and  O_10
REMARK    9  A    between atoms: C_15  and  C_16
REMARK   10  A    between atoms: C_22  and  C_23
REMARK   11  A    between atoms: C_29  and  O_30
REMARK                            x       y       z     vdW  Elec       q    Type
REMARK                         _______ _______ _______ _____ _____    ______ ____
ROOT
ATOM      1  C   UNL     1       3.845   5.766  17.237  0.00  0.00    +0.000 A 
ATOM      2  C   UNL     1       4.243   6.971  16.642  0.00  0.00    +0.000 A 
ATOM      3  N   UNL     1       3.838   8.188  17.008  0.00  0.00    +0.000 NA
ATOM      4  C   UNL     1       2.977   8.272  18.018  0.00  0.00    +0.000 A 
ATOM      5  C   UNL     1       2.477   9.537  18.287  0.00  0.00    +0.000 A 
ATOM      6  C   UNL     1       1.513   9.762  19.267  0.00  0.00    +0.000 A 
ATOM      7  C   UNL     1       1.105   8.705  20.071  0.00  0.00    +0.000 A 
ATOM      8  C   UNL     1       1.672   7.442  19.863  0.00  0.00    +0.000 A 
ATOM      9  C   UNL     1       2.528   7.155  18.764  0.00  0.00    +0.000 A 
ATOM     10  C   UNL     1       2.925   5.837  18.329  0.00  0.00    +0.000 A 
ENDROOT
BRANCH  10  11
ATOM     11  C   UNL     1       2.315   4.590  18.938  0.00  0.00    +0.000 A 
ATOM     12  C   UNL     1       2.808   4.061  20.148  0.00  0.00    +0.000 A 
ATOM     13  C   UNL     1       2.388   2.825  20.647  0.00  0.00    +0.000 A 
ATOM     14 CL   UNL     1       3.197   2.134  22.000  0.00  0.00    +0.000 Cl
ATOM     15  C   UNL     1       1.357   2.129  20.034  0.00  0.00    +0.000 A 
ATOM     16  C   UNL     1       0.768   2.663  18.893  0.00  0.00    +0.000 A 
ATOM     17  C   UNL     1       1.271   3.847  18.336  0.00  0.00    +0.000 A 
BRANCH  17  18
ATOM     18  O   UNL     1       0.720   4.256  17.150  0.00  0.00    +0.000 OA
ATOM     19  H   UNL     1       0.234   3.513  16.752  0.00  0.00    +0.000 HD
ENDBRANCH  17  18
ENDBRANCH  10  11
BRANCH   7  20
ATOM     20  C   UNL     1      -0.020   8.861  21.069  0.00  0.00    +0.000 C 
ATOM     21  F   UNL     1      -0.991   9.729  20.674  0.00  0.00    +0.000 F 
ATOM     22  F   UNL     1      -0.657   7.679  21.312  0.00  0.00    +0.000 F 
ATOM     23  F   UNL     1       0.413   9.304  22.282  0.00  0.00    +0.000 F 
ENDBRANCH   7  20
BRANCH   2  24
ATOM     24  O   UNL     1       5.057   6.997  15.541  0.00  0.00    +0.000 OA
ATOM     25  H   UNL     1       5.775   6.375  15.740  0.00  0.00    +0.000 HD
ENDBRANCH   2  24
BRANCH   1  26
ATOM     26  S   UNL     1       4.474   4.230  16.503  0.00  0.00    +0.000 S 
BRANCH  26  27
ATOM     27  C   UNL     1       6.313   4.451  16.635  0.00  0.00    +0.000 C 
BRANCH  27  28
ATOM     28  C   UNL     1       7.129   4.255  15.336  0.00  0.00    +0.000 C 
BRANCH  28  29
ATOM     29  N   UNL     1       6.350   3.503  14.360  0.00  0.00    +0.000 NA
ATOM     30  H   UNL     1       6.614   2.519  14.407  0.00  0.00    +0.000 HD
BRANCH  29  32
ATOM     31  C   UNL     1       5.785   3.158  12.006  0.00  0.00    +0.000 C 
ATOM     32  C   UNL     1       6.591   3.984  12.995  0.00  0.00    +0.000 C 
ENDBRANCH  29  32
ENDBRANCH  28  29
BRANCH  28  33
ATOM     33  O   UNL     1       7.438   5.505  14.764  0.00  0.00    +0.000 OA
ATOM     34  H   UNL     1       8.052   5.294  14.038  0.00  0.00    +0.000 HD
ENDBRANCH  28  33
ENDBRANCH  27  28
ENDBRANCH  26  27
ENDBRANCH   1  26
TORSDOF 10
ENDMDL
MODEL 3
REMARK VINA RESULT:      -6.3      4.003      6.330
REMARK  Name = 
REMARK  11 active torsions:
REMARK  status: ('A' for Active; 'I' for Inactive)
REMARK    1  A    between atoms: C_1  and  C_2
REMARK    2  A    between atoms: C_2  and  N_3
REMARK    3  A    between atoms: N_3  and  C_4
REMARK    4  A    between atoms: C_4  and  O_5
REMARK    5  A    between atoms: C_4  and  C_6
REMARK    6  A    between atoms: C_6  and  S_7
REMARK    7  A    between atoms: S_7  and  C_8
REMARK    8  A    between atoms: C_9  and  O_10
REMARK    9  A    between atoms: C_15  and  C_16
REMARK   10  A    between atoms: C_22  and  C_23
REMARK   11  A    between atoms: C_29  and  O_30
REMARK                            x       y       z     vdW  Elec       q    Type
REMARK                         _______ _______ _______ _____ _____    ______ ____
ROOT
ATOM      1  C   UNL     1       2.712   4.315  17.592  0.00  0.00    +0.000 A 
ATOM      2  C   UNL     1       3.422   3.353  16.860  0.00  0.00    +0.000 A 
ATOM      3  N   UNL     1       4.712   3.425  16.529  0.00  0.00    +0.000 NA
ATOM      4  C   UNL     1       5.386   4.504  16.917  0.00  0.00    +0.000 A 
ATOM      5  C   UNL     1       6.686   4.610  16.446  0.00  0.00    +0.000 A 
ATOM      6  C   UNL     1       7.484   5.721  16.711  0.00  0.00    +0.000 A 
ATOM      7  C   UNL     1       7.003   6.716  17.553  0.00  0.00    +0.000 A 
ATOM      8  C   UNL     1       5.723   6.571  18.104  0.00  0.00    +0.000 A 
ATOM      9  C   UNL     1       4.831   5.534  17.715  0.00  0.00    +0.000 A 
ATOM     10  C   UNL     1       3.422   5.477  18.023  0.00  0.00    +0.000 A 
ENDROOT
BRANCH  10  11
ATOM     11  C   UNL     1       2.714   6.644  18.683  0.00  0.00    +0.000 A 
ATOM     12  C   UNL     1       2.388   7.802  17.948  0.00  0.00    +0.000 A 
ATOM     13  C   UNL     1       1.894   8.958  18.559  0.00  0.00    +0.000 A 
ATOM     14 CL   UNL     1       1.738  10.406  17.639  0.00  0.00    +0.000 Cl
ATOM     15  C   UNL     1       1.573   8.963  19.908  0.00  0.00    +0.000 A 
ATOM     16  C   UNL     1       1.781   7.809  20.654  0.00  0.00    +0.000 A 
ATOM     17  C   UNL     1       2.382   6.691  20.058  0.00  0.00    +0.000 A 
BRANCH  17  18
ATOM     18  O   UNL     1       2.662   5.628  20.878  0.00  0.00    +0.000 OA
ATOM     19  H   UNL     1       2.559   4.802  20.375  0.00  0.00    +0.000 HD
ENDBRANCH  17  18
ENDBRANCH  10  11
BRANCH   7  20
ATOM     20  C   UNL     1       7.772   7.996  17.782  0.00  0.00    +0.000 C 
ATOM     21  F   UNL     1       8.581   7.965  18.877  0.00  0.00    +0.000 F 
ATOM     22  F   UNL     1       8.585   8.302  16.730  0.00  0.00    +0.000 F 
ATOM     23  F   UNL     1       6.957   9.075  17.944  0.00  0.00    +0.000 F 
ENDBRANCH   7  20
BRANCH   2  24
ATOM     24  O   UNL     1       2.807   2.246  16.338  0.00  0.00    +0.000 OA
ATOM     25  H   UNL     1       1.866   2.480  16.281  0.00  0.00    +0.000 HD
ENDBRANCH   2  24
BRANCH   1  26
ATOM     26  S   UNL     1       0.938   4.024  17.845  0.00  0.00    +0.000 S 
BRANCH  26  27
ATOM     27  C   UNL     1       0.933   2.519  18.933  0.00  0.00    +0.000 C 
BRANCH  27  28
ATOM     28  C   UNL     1       1.003   2.767  20.457  0.00  0.00    +0.000 C 
BRANCH  28  29
ATOM     29  N   UNL     1       2.389   2.756  20.908  0.00  0.00    +0.000 NA
ATOM     30  H   UNL     1       2.768   3.701  20.849  0.00  0.00    +0.000 HD
BRANCH  29  32
ATOM     31  C   UNL     1       4.662   2.340  20.108  0.00  0.00    +0.000 C 
ATOM     32  C   UNL     1       3.216   1.872  20.078  0.00  0.00    +0.000 C 
ENDBRANCH  29  32
ENDBRANCH  28  29
BRANCH  28  33
ATOM     33  O   UNL     1       0.462   4.029  20.769  0.00  0.00    +0.000 OA
ATOM     34  H   UNL     1      -0.197   3.846  21.462  0.00  0.00    +0.000 HD
ENDBRANCH  28  33
ENDBRANCH  27  28
ENDBRANCH  26  27
ENDBRANCH   1  26
TORSDOF 10
ENDMDL
MODEL 4
REMARK VINA RESULT:      -6.2      1.367      1.716
REMARK  Name = 
REMARK  11 active torsions:
REMARK  status: ('A' for Active; 'I' for Inactive)
REMARK    1  A    between atoms: C_1  and  C_2
REMARK    2  A    between atoms: C_2  and  N_3
REMARK    3  A    between atoms: N_3  and  C_4
REMARK    4  A    between atoms: C_4  and  O_5
REMARK    5  A    between atoms: C_4  and  C_6
REMARK    6  A    between atoms: C_6  and  S_7
REMARK    7  A    between atoms: S_7  and  C_8
REMARK    8  A    between atoms: C_9  and  O_10
REMARK    9  A    between atoms: C_15  and  C_16
REMARK   10  A    between atoms: C_22  and  C_23
REMARK   11  A    between atoms: C_29  and  O_30
REMARK                            x       y       z     vdW  Elec       q    Type
REMARK                         _______ _______ _______ _____ _____    ______ ____
ROOT
ATOM      1  C   UNL     1       3.749   5.903  17.510  0.00  0.00    +0.000 A 
ATOM      2  C   UNL     1       4.045   7.056  16.770  0.00  0.00    +0.000 A 
ATOM      3  N   UNL     1       3.576   8.280  17.018  0.00  0.00    +0.000 NA
ATOM      4  C   UNL     1       2.750   8.423  18.050  0.00  0.00    +0.000 A 
ATOM      5  C   UNL     1       2.178   9.678  18.201  0.00  0.00    +0.000 A 
ATOM      6  C   UNL     1       1.239   9.952  19.192  0.00  0.00    +0.000 A 
ATOM      7  C   UNL     1       0.930   8.969  20.124  0.00  0.00    +0.000 A 
ATOM      8  C   UNL     1       1.570   7.727  20.030  0.00  0.00    +0.000 A 
ATOM      9  C   UNL     1       2.402   7.372  18.933  0.00  0.00    +0.000 A 
ATOM     10  C   UNL     1       2.867   6.040  18.627  0.00  0.00    +0.000 A 
ENDROOT
BRANCH  10  11
ATOM     11  C   UNL     1       2.362   4.835  19.395  0.00  0.00    +0.000 A 
ATOM     12  C   UNL     1       1.758   3.751  18.726  0.00  0.00    +0.000 A 
ATOM     13  C   UNL     1       1.129   2.708  19.411  0.00  0.00    +0.000 A 
ATOM     14 CL   UNL     1       0.214   1.544  18.534  0.00  0.00    +0.000 Cl
ATOM     15  C   UNL     1       1.197   2.630  20.794  0.00  0.00    +0.000 A 
ATOM     16  C   UNL     1       1.872   3.623  21.493  0.00  0.00    +0.000 A 
ATOM     17  C   UNL     1       2.403   4.724  20.806  0.00  0.00    +0.000 A 
BRANCH  17  18
ATOM     18  O   UNL     1       2.954   5.722  21.567  0.00  0.00    +0.000 OA
ATOM     19  H   UNL     1       3.038   6.525  21.026  0.00  0.00    +0.000 HD
ENDBRANCH  17  18
ENDBRANCH  10  11
BRANCH   7  20
ATOM     20  C   UNL     1      -0.165   9.167  21.147  0.00  0.00    +0.000 C 
ATOM     21  F   UNL     1      -0.882   8.041  21.411  0.00  0.00    +0.000 F 
ATOM     22  F   UNL     1       0.327   9.584  22.350  0.00  0.00    +0.000 F 
ATOM     23  F   UNL     1      -1.069  10.113  20.770  0.00  0.00    +0.000 F 
ENDBRANCH   7  20
BRANCH   2  24
ATOM     24  O   UNL     1       4.815   7.008  15.638  0.00  0.00    +0.000 OA
ATOM     25  H   UNL     1       5.616   7.512  15.852  0.00  0.00    +0.000 HD
ENDBRANCH   2  24
BRANCH   1  26
ATOM     26  S   UNL     1       4.449   4.335  16.921  0.00  0.00    +0.000 S 
BRANCH  26  27
ATOM     27  C   UNL     1       6.042   4.230  17.870  0.00  0.00    +0.000 C 
BRANCH  27  28
ATOM     28  C   UNL     1       7.342   4.475  17.070  0.00  0.00    +0.000 C 
BRANCH  28  29
ATOM     29  N   UNL     1       7.491   5.894  16.770  0.00  0.00    +0.000 NA
ATOM     30  H   UNL     1       8.332   6.032  16.211  0.00  0.00    +0.000 HD
BRANCH  29  32
ATOM     31  C   UNL     1       7.809   8.156  17.642  0.00  0.00    +0.000 C 
ATOM     32  C   UNL     1       7.612   6.691  17.996  0.00  0.00    +0.000 C 
ENDBRANCH  29  32
ENDBRANCH  28  29
BRANCH  28  33
ATOM     33  O   UNL     1       8.461   4.079  17.827  0.00  0.00    +0.000 OA
ATOM     34  H   UNL     1       8.219   3.204  18.179  0.00  0.00    +0.000 HD
ENDBRANCH  28  33
ENDBRANCH  27  28
ENDBRANCH  26  27
ENDBRANCH   1  26
TORSDOF 10
ENDMDL
MODEL 5
REMARK VINA RESULT:      -6.1      1.539      1.889
REMARK  Name = 
REMARK  11 active torsions:
REMARK  status: ('A' for Active; 'I' for Inactive)
REMARK    1  A    between atoms: C_1  and  C_2
REMARK    2  A    between atoms: C_2  and  N_3
REMARK    3  A    between atoms: N_3  and  C_4
REMARK    4  A    between atoms: C_4  and  O_5
REMARK    5  A    between atoms: C_4  and  C_6
REMARK    6  A    between atoms: C_6  and  S_7
REMARK    7  A    between atoms: S_7  and  C_8
REMARK    8  A    between atoms: C_9  and  O_10
REMARK    9  A    between atoms: C_15  and  C_16
REMARK   10  A    between atoms: C_22  and  C_23
REMARK   11  A    between atoms: C_29  and  O_30
REMARK                            x       y       z     vdW  Elec       q    Type
REMARK                         _______ _______ _______ _____ _____    ______ ____
ROOT
ATOM      1  C   UNL     1       4.357   5.725  16.812  0.00  0.00    +0.000 A 
ATOM      2  C   UNL     1       4.433   6.954  16.143  0.00  0.00    +0.000 A 
ATOM      3  N   UNL     1       3.855   8.089  16.537  0.00  0.00    +0.000 NA
ATOM      4  C   UNL     1       3.137   8.057  17.656  0.00  0.00    +0.000 A 
ATOM      5  C   UNL     1       2.443   9.217  17.967  0.00  0.00    +0.000 A 
ATOM      6  C   UNL     1       1.594   9.303  19.067  0.00  0.00    +0.000 A 
ATOM      7  C   UNL     1       1.507   8.227  19.942  0.00  0.00    +0.000 A 
ATOM      8  C   UNL     1       2.273   7.084  19.682  0.00  0.00    +0.000 A 
ATOM      9  C   UNL     1       3.014   6.912  18.480  0.00  0.00    +0.000 A 
ATOM     10  C   UNL     1       3.595   5.673  18.020  0.00  0.00    +0.000 A 
ENDROOT
BRANCH  10  11
ATOM     11  C   UNL     1       3.322   4.363  18.734  0.00  0.00    +0.000 A 
ATOM     12  C   UNL     1       2.145   3.631  18.477  0.00  0.00    +0.000 A 
ATOM     13  C   UNL     1       1.780   2.517  19.237  0.00  0.00    +0.000 A 
ATOM     14 CL   UNL     1       0.224   1.812  19.021  0.00  0.00    +0.000 Cl
ATOM     15  C   UNL     1       2.641   2.001  20.195  0.00  0.00    +0.000 A 
ATOM     16  C   UNL     1       3.861   2.631  20.413  0.00  0.00    +0.000 A 
ATOM     17  C   UNL     1       4.169   3.813  19.725  0.00  0.00    +0.000 A 
BRANCH  17  18
ATOM     18  O   UNL     1       5.337   4.443  20.071  0.00  0.00    +0.000 OA
ATOM     19  H   UNL     1       5.966   3.783  20.409  0.00  0.00    +0.000 HD
ENDBRANCH  17  18
ENDBRANCH  10  11
BRANCH   7  20
ATOM     20  C   UNL     1       0.517   8.215  21.084  0.00  0.00    +0.000 C 
ATOM     21  F   UNL     1      -0.050   6.998  21.310  0.00  0.00    +0.000 F 
ATOM     22  F   UNL     1       1.092   8.581  22.266  0.00  0.00    +0.000 F 
ATOM     23  F   UNL     1      -0.515   9.083  20.891  0.00  0.00    +0.000 F 
ENDBRANCH   7  20
BRANCH   2  24
ATOM     24  O   UNL     1       5.072   7.081  14.938  0.00  0.00    +0.000 OA
ATOM     25  H   UNL     1       4.942   8.007  14.676  0.00  0.00    +0.000 HD
ENDBRANCH   2  24
BRANCH   1  26
ATOM     26  S   UNL     1       5.166   4.301  16.028  0.00  0.00    +0.000 S 
BRANCH  26  27
ATOM     27  C   UNL     1       6.954   4.801  16.046  0.00  0.00    +0.000 C 
BRANCH  27  28
ATOM     28  C   UNL     1       7.600   5.013  17.435  0.00  0.00    +0.000 C 
BRANCH  28  29
ATOM     29  N   UNL     1       7.076   6.224  18.055  0.00  0.00    +0.000 NA
ATOM     30  H   UNL     1       6.464   6.701  17.394  0.00  0.00    +0.000 HD
BRANCH  29  32
ATOM     31  C   UNL     1       7.958   8.483  17.746  0.00  0.00    +0.000 C 
ATOM     32  C   UNL     1       8.155   7.142  18.435  0.00  0.00    +0.000 C 
ENDBRANCH  29  32
ENDBRANCH  28  29
BRANCH  28  33
ATOM     33  O   UNL     1       7.293   3.932  18.284  0.00  0.00    +0.000 OA
ATOM     34  H   UNL     1       6.580   3.455  17.821  0.00  0.00    +0.000 HD
ENDBRANCH  28  33
ENDBRANCH  27  28
ENDBRANCH  26  27
ENDBRANCH   1  26
TORSDOF 10
ENDMDL
MODEL 6
REMARK VINA RESULT:      -6.0      1.569      2.060
REMARK  Name = 
REMARK  11 active torsions:
REMARK  status: ('A' for Active; 'I' for Inactive)
REMARK    1  A    between atoms: C_1  and  C_2
REMARK    2  A    between atoms: C_2  and  N_3
REMARK    3  A    between atoms: N_3  and  C_4
REMARK    4  A    between atoms: C_4  and  O_5
REMARK    5  A    between atoms: C_4  and  C_6
REMARK    6  A    between atoms: C_6  and  S_7
REMARK    7  A    between atoms: S_7  and  C_8
REMARK    8  A    between atoms: C_9  and  O_10
REMARK    9  A    between atoms: C_15  and  C_16
REMARK   10  A    between atoms: C_22  and  C_23
REMARK   11  A    between atoms: C_29  and  O_30
REMARK                            x       y       z     vdW  Elec       q    Type
REMARK                         _______ _______ _______ _____ _____    ______ ____
ROOT
ATOM      1  C   UNL     1       3.889   5.694  17.741  0.00  0.00    +0.000 A 
ATOM      2  C   UNL     1       3.975   6.802  16.886  0.00  0.00    +0.000 A 
ATOM      3  N   UNL     1       3.411   7.992  17.097  0.00  0.00    +0.000 NA
ATOM      4  C   UNL     1       2.698   8.145  18.209  0.00  0.00    +0.000 A 
ATOM      5  C   UNL     1       2.019   9.348  18.334  0.00  0.00    +0.000 A 
ATOM      6  C   UNL     1       1.176   9.616  19.409  0.00  0.00    +0.000 A 
ATOM      7  C   UNL     1       1.081   8.693  20.444  0.00  0.00    +0.000 A 
ATOM      8  C   UNL     1       1.833   7.515  20.365  0.00  0.00    +0.000 A 
ATOM      9  C   UNL     1       2.567   7.146  19.204  0.00  0.00    +0.000 A 
ATOM     10  C   UNL     1       3.132   5.843  18.944  0.00  0.00    +0.000 A 
ENDROOT
BRANCH  10  11
ATOM     11  C   UNL     1       2.848   4.667  19.857  0.00  0.00    +0.000 A 
ATOM     12  C   UNL     1       3.878   3.786  20.244  0.00  0.00    +0.000 A 
ATOM     13  C   UNL     1       3.625   2.600  20.938  0.00  0.00    +0.000 A 
ATOM     14 CL   UNL     1       4.895   1.462  21.173  0.00  0.00    +0.000 Cl
ATOM     15  C   UNL     1       2.349   2.311  21.399  0.00  0.00    +0.000 A 
ATOM     16  C   UNL     1       1.317   3.203  21.131  0.00  0.00    +0.000 A 
ATOM     17  C   UNL     1       1.559   4.332  20.337  0.00  0.00    +0.000 A 
BRANCH  17  18
ATOM     18  O   UNL     1       0.474   5.107  20.017  0.00  0.00    +0.000 OA
ATOM     19  H   UNL     1       0.336   5.767  20.718  0.00  0.00    +0.000 HD
ENDBRANCH  17  18
ENDBRANCH  10  11
BRANCH   7  20
ATOM     20  C   UNL     1       0.096   8.874  21.575  0.00  0.00    +0.000 C 
ATOM     21  F   UNL     1       0.675   8.933  22.806  0.00  0.00    +0.000 F 
ATOM     22  F   UNL     1      -0.624  10.026  21.450  0.00  0.00    +0.000 F 
ATOM     23  F   UNL     1      -0.822   7.870  21.637  0.00  0.00    +0.000 F 
ENDBRANCH   7  20
BRANCH   2  24
ATOM     24  O   UNL     1       4.611   6.728  15.674  0.00  0.00    +0.000 OA
ATOM     25  H   UNL     1       3.908   6.831  15.011  0.00  0.00    +0.000 HD
ENDBRANCH   2  24
BRANCH   1  26
ATOM     26  S   UNL     1       4.678   4.156  17.191  0.00  0.00    +0.000 S 
BRANCH  26  27
ATOM     27  C   UNL     1       6.483   4.593  17.244  0.00  0.00    +0.000 C 
BRANCH  27  28
ATOM     28  C   UNL     1       7.259   4.492  15.910  0.00  0.00    +0.000 C 
BRANCH  28  29
ATOM     29  N   UNL     1       6.491   3.725  14.936  0.00  0.00    +0.000 NA
ATOM     30  H   UNL     1       6.892   2.791  14.856  0.00  0.00    +0.000 HD
BRANCH  29  32
ATOM     31  C   UNL     1       6.024   3.378  12.562  0.00  0.00    +0.000 C 
ATOM     32  C   UNL     1       6.518   4.359  13.614  0.00  0.00    +0.000 C 
ENDBRANCH  29  32
ENDBRANCH  28  29
BRANCH  28  33
ATOM     33  O   UNL     1       7.469   5.777  15.372  0.00  0.00    +0.000 OA
ATOM     34  H   UNL     1       8.435   5.839  15.263  0.00  0.00    +0.000 HD
ENDBRANCH  28  33
ENDBRANCH  27  28
ENDBRANCH  26  27
ENDBRANCH   1  26
TORSDOF 10
ENDMDL
MODEL 7
REMARK VINA RESULT:      -6.0      3.863      6.323
REMARK  Name = 
REMARK  11 active torsions:
REMARK  status: ('A' for Active; 'I' for Inactive)
REMARK    1  A    between atoms: C_1  and  C_2
REMARK    2  A    between atoms: C_2  and  N_3
REMARK    3  A    between atoms: N_3  and  C_4
REMARK    4  A    between atoms: C_4  and  O_5
REMARK    5  A    between atoms: C_4  and  C_6
REMARK    6  A    between atoms: C_6  and  S_7
REMARK    7  A    between atoms: S_7  and  C_8
REMARK    8  A    between atoms: C_9  and  O_10
REMARK    9  A    between atoms: C_15  and  C_16
REMARK   10  A    between atoms: C_22  and  C_23
REMARK   11  A    between atoms: C_29  and  O_30
REMARK                            x       y       z     vdW  Elec       q    Type
REMARK                         _______ _______ _______ _____ _____    ______ ____
ROOT
ATOM      1  C   UNL     1       2.790   4.522  18.007  0.00  0.00    +0.000 A 
ATOM      2  C   UNL     1       3.503   3.435  17.483  0.00  0.00    +0.000 A 
ATOM      3  N   UNL     1       4.804   3.428  17.190  0.00  0.00    +0.000 NA
ATOM      4  C   UNL     1       5.487   4.549  17.403  0.00  0.00    +0.000 A 
ATOM      5  C   UNL     1       6.803   4.551  16.966  0.00  0.00    +0.000 A 
ATOM      6  C   UNL     1       7.615   5.679  17.056  0.00  0.00    +0.000 A 
ATOM      7  C   UNL     1       7.128   6.815  17.691  0.00  0.00    +0.000 A 
ATOM      8  C   UNL     1       5.829   6.790  18.213  0.00  0.00    +0.000 A 
ATOM      9  C   UNL     1       4.929   5.713  17.985  0.00  0.00    +0.000 A 
ATOM     10  C   UNL     1       3.510   5.733  18.249  0.00  0.00    +0.000 A 
ENDROOT
BRANCH  10  11
ATOM     11  C   UNL     1       2.805   7.009  18.665  0.00  0.00    +0.000 A 
ATOM     12  C   UNL     1       2.269   7.149  19.961  0.00  0.00    +0.000 A 
ATOM     13  C   UNL     1       1.466   8.234  20.323  0.00  0.00    +0.000 A 
ATOM     14 CL   UNL     1       0.656   8.226  21.842  0.00  0.00    +0.000 Cl
ATOM     15  C   UNL     1       1.280   9.297  19.451  0.00  0.00    +0.000 A 
ATOM     16  C   UNL     1       1.876   9.251  18.196  0.00  0.00    +0.000 A 
ATOM     17  C   UNL     1       2.585   8.108  17.801  0.00  0.00    +0.000 A 
BRANCH  17  18
ATOM     18  O   UNL     1       3.048   8.082  16.511  0.00  0.00    +0.000 OA
ATOM     19  H   UNL     1       2.431   8.572  15.941  0.00  0.00    +0.000 HD
ENDBRANCH  17  18
ENDBRANCH  10  11
BRANCH   7  20
ATOM     20  C   UNL     1       7.916   8.104  17.715  0.00  0.00    +0.000 C 
ATOM     21  F   UNL     1       7.141   9.224  17.740  0.00  0.00    +0.000 F 
ATOM     22  F   UNL     1       8.726   8.191  18.810  0.00  0.00    +0.000 F 
ATOM     23  F   UNL     1       8.738   8.236  16.637  0.00  0.00    +0.000 F 
ENDBRANCH   7  20
BRANCH   2  24
ATOM     24  O   UNL     1       2.882   2.262  17.145  0.00  0.00    +0.000 OA
ATOM     25  H   UNL     1       3.500   1.560  17.409  0.00  0.00    +0.000 HD
ENDBRANCH   2  24
BRANCH   1  26
ATOM     26  S   UNL     1       1.003   4.307  18.246  0.00  0.00    +0.000 S 
BRANCH  26  27
ATOM     27  C   UNL     1       0.870   4.106  20.087  0.00  0.00    +0.000 C 
BRANCH  27  28
ATOM     28  C   UNL     1       1.009   2.668  20.638  0.00  0.00    +0.000 C 
BRANCH  28  29
ATOM     29  N   UNL     1       2.258   2.071  20.182  0.00  0.00    +0.000 NA
ATOM     30  H   UNL     1       2.184   1.056  20.236  0.00  0.00    +0.000 HD
BRANCH  29  32
ATOM     31  C   UNL     1       4.679   1.895  20.474  0.00  0.00    +0.000 C 
ATOM     32  C   UNL     1       3.391   2.500  21.009  0.00  0.00    +0.000 C 
ENDBRANCH  29  32
ENDBRANCH  28  29
BRANCH  28  33
ATOM     33  O   UNL     1       1.035   2.687  22.046  0.00  0.00    +0.000 OA
ATOM     34  H   UNL     1       0.268   3.234  22.295  0.00  0.00    +0.000 HD
ENDBRANCH  28  33
ENDBRANCH  27  28
ENDBRANCH  26  27
ENDBRANCH   1  26
TORSDOF 10
ENDMDL
MODEL 8
REMARK VINA RESULT:      -6.0      7.108      9.245
REMARK  Name = 
REMARK  11 active torsions:
REMARK  status: ('A' for Active; 'I' for Inactive)
REMARK    1  A    between atoms: C_1  and  C_2
REMARK    2  A    between atoms: C_2  and  N_3
REMARK    3  A    between atoms: N_3  and  C_4
REMARK    4  A    between atoms: C_4  and  O_5
REMARK    5  A    between atoms: C_4  and  C_6
REMARK    6  A    between atoms: C_6  and  S_7
REMARK    7  A    between atoms: S_7  and  C_8
REMARK    8  A    between atoms: C_9  and  O_10
REMARK    9  A    between atoms: C_15  and  C_16
REMARK   10  A    between atoms: C_22  and  C_23
REMARK   11  A    between atoms: C_29  and  O_30
REMARK                            x       y       z     vdW  Elec       q    Type
REMARK                         _______ _______ _______ _____ _____    ______ ____
ROOT
ATOM      1  C   UNL     1      -0.328  11.341  19.627  0.00  0.00    +0.000 A 
ATOM      2  C   UNL     1      -0.103  10.404  18.607  0.00  0.00    +0.000 A 
ATOM      3  N   UNL     1      -1.001  10.012  17.702  0.00  0.00    +0.000 NA
ATOM      4  C   UNL     1      -2.217  10.545  17.772  0.00  0.00    +0.000 A 
ATOM      5  C   UNL     1      -3.161  10.021  16.902  0.00  0.00    +0.000 A 
ATOM      6  C   UNL     1      -4.492  10.431  16.914  0.00  0.00    +0.000 A 
ATOM      7  C   UNL     1      -4.875  11.467  17.757  0.00  0.00    +0.000 A 
ATOM      8  C   UNL     1      -3.906  12.061  18.576  0.00  0.00    +0.000 A 
ATOM      9  C   UNL     1      -2.585  11.549  18.700  0.00  0.00    +0.000 A 
ATOM     10  C   UNL     1      -1.628  11.928  19.712  0.00  0.00    +0.000 A 
ENDROOT
BRANCH  10  11
ATOM     11  C   UNL     1      -2.019  12.831  20.866  0.00  0.00    +0.000 A 
ATOM     12  C   UNL     1      -2.564  12.295  22.050  0.00  0.00    +0.000 A 
ATOM     13  C   UNL     1      -3.094  13.103  23.060  0.00  0.00    +0.000 A 
ATOM     14 CL   UNL     1      -3.950  12.381  24.368  0.00  0.00    +0.000 Cl
ATOM     15  C   UNL     1      -2.975  14.484  22.995  0.00  0.00    +0.000 A 
ATOM     16  C   UNL     1      -2.352  15.055  21.891  0.00  0.00    +0.000 A 
ATOM     17  C   UNL     1      -1.925  14.243  20.832  0.00  0.00    +0.000 A 
BRANCH  17  18
ATOM     18  O   UNL     1      -1.423  14.880  19.727  0.00  0.00    +0.000 OA
ATOM     19  H   UNL     1      -1.819  15.766  19.663  0.00  0.00    +0.000 HD
ENDBRANCH  17  18
ENDBRANCH  10  11
BRANCH   7  20
ATOM     20  C   UNL     1      -6.323  11.875  17.901  0.00  0.00    +0.000 C 
ATOM     21  F   UNL     1      -7.169  10.832  18.127  0.00  0.00    +0.000 F 
ATOM     22  F   UNL     1      -6.512  12.736  18.942  0.00  0.00    +0.000 F 
ATOM     23  F   UNL     1      -6.798  12.517  16.799  0.00  0.00    +0.000 F 
ENDBRANCH   7  20
BRANCH   2  24
ATOM     24  O   UNL     1       1.084   9.731  18.496  0.00  0.00    +0.000 OA
ATOM     25  H   UNL     1       1.757  10.419  18.368  0.00  0.00    +0.000 HD
ENDBRANCH   2  24
BRANCH   1  26
ATOM     26  S   UNL     1       1.033  11.647  20.788  0.00  0.00    +0.000 S 
BRANCH  26  27
ATOM     27  C   UNL     1       1.974  13.010  19.947  0.00  0.00    +0.000 C 
BRANCH  27  28
ATOM     28  C   UNL     1       1.447  13.465  18.566  0.00  0.00    +0.000 C 
BRANCH  28  29
ATOM     29  N   UNL     1       1.464  14.920  18.474  0.00  0.00    +0.000 NA
ATOM     30  H   UNL     1       1.163  15.199  17.541  0.00  0.00    +0.000 HD
BRANCH  29  32
ATOM     31  C   UNL     1       3.213  16.360  17.556  0.00  0.00    +0.000 C 
ATOM     32  C   UNL     1       2.809  15.456  18.710  0.00  0.00    +0.000 C 
ENDBRANCH  29  32
ENDBRANCH  28  29
BRANCH  28  33
ATOM     33  O   UNL     1       2.273  12.962  17.542  0.00  0.00    +0.000 OA
ATOM     34  H   UNL     1       1.721  12.300  17.089  0.00  0.00    +0.000 HD
ENDBRANCH  28  33
ENDBRANCH  27  28
ENDBRANCH  26  27
ENDBRANCH   1  26
TORSDOF 10
ENDMDL
MODEL 9
REMARK VINA RESULT:      -5.9      3.230      5.235
REMARK  Name = 
REMARK  11 active torsions:
REMARK  status: ('A' for Active; 'I' for Inactive)
REMARK    1  A    between atoms: C_1  and  C_2
REMARK    2  A    between atoms: C_2  and  N_3
REMARK    3  A    between atoms: N_3  and  C_4
REMARK    4  A    between atoms: C_4  and  O_5
REMARK    5  A    between atoms: C_4  and  C_6
REMARK    6  A    between atoms: C_6  and  S_7
REMARK    7  A    between atoms: S_7  and  C_8
REMARK    8  A    between atoms: C_9  and  O_10
REMARK    9  A    between atoms: C_15  and  C_16
REMARK   10  A    between atoms: C_22  and  C_23
REMARK   11  A    between atoms: C_29  and  O_30
REMARK                            x       y       z     vdW  Elec       q    Type
REMARK                         _______ _______ _______ _____ _____    ______ ____
ROOT
ATOM      1  C   UNL     1       3.660   4.044  20.116  0.00  0.00    +0.000 A 
ATOM      2  C   UNL     1       2.708   4.070  21.144  0.00  0.00    +0.000 A 
ATOM      3  N   UNL     1       1.838   5.056  21.372  0.00  0.00    +0.000 NA
ATOM      4  C   UNL     1       1.878   6.109  20.562  0.00  0.00    +0.000 A 
ATOM      5  C   UNL     1       1.053   7.171  20.904  0.00  0.00    +0.000 A 
ATOM      6  C   UNL     1       1.046   8.366  20.189  0.00  0.00    +0.000 A 
ATOM      7  C   UNL     1       1.817   8.473  19.038  0.00  0.00    +0.000 A 
ATOM      8  C   UNL     1       2.585   7.372  18.638  0.00  0.00    +0.000 A 
ATOM      9  C   UNL     1       2.737   6.208  19.439  0.00  0.00    +0.000 A 
ATOM     10  C   UNL     1       3.713   5.165  19.232  0.00  0.00    +0.000 A 
ENDROOT
BRANCH  10  11
ATOM     11  C   UNL     1       4.803   5.305  18.187  0.00  0.00    +0.000 A 
ATOM     12  C   UNL     1       4.516   5.146  16.817  0.00  0.00    +0.000 A 
ATOM     13  C   UNL     1       5.521   5.097  15.845  0.00  0.00    +0.000 A 
ATOM     14 CL   UNL     1       5.119   4.670  14.227  0.00  0.00    +0.000 Cl
ATOM     15  C   UNL     1       6.843   5.343  16.183  0.00  0.00    +0.000 A 
ATOM     16  C   UNL     1       7.161   5.607  17.511  0.00  0.00    +0.000 A 
ATOM     17  C   UNL     1       6.164   5.543  18.494  0.00  0.00    +0.000 A 
BRANCH  17  18
ATOM     18  O   UNL     1       6.568   5.701  19.795  0.00  0.00    +0.000 OA
ATOM     19  H   UNL     1       7.358   6.267  19.816  0.00  0.00    +0.000 HD
ENDBRANCH  17  18
ENDBRANCH  10  11
BRANCH   7  20
ATOM     20  C   UNL     1       1.941   9.780  18.289  0.00  0.00    +0.000 C 
ATOM     21  F   UNL     1       1.895  10.880  19.090  0.00  0.00    +0.000 F 
ATOM     22  F   UNL     1       3.118   9.869  17.605  0.00  0.00    +0.000 F 
ATOM     23  F   UNL     1       0.960   9.946  17.360  0.00  0.00    +0.000 F 
ENDBRANCH   7  20
BRANCH   2  24
ATOM     24  O   UNL     1       2.637   3.079  22.087  0.00  0.00    +0.000 OA
ATOM     25  H   UNL     1       2.276   3.506  22.880  0.00  0.00    +0.000 HD
ENDBRANCH   2  24
BRANCH   1  26
ATOM     26  S   UNL     1       4.788   2.622  20.065  0.00  0.00    +0.000 S 
BRANCH  26  27
ATOM     27  C   UNL     1       3.720   1.293  19.329  0.00  0.00    +0.000 C 
BRANCH  27  28
ATOM     28  C   UNL     1       3.446   1.387  17.810  0.00  0.00    +0.000 C 
BRANCH  28  29
ATOM     29  N   UNL     1       2.199   2.101  17.565  0.00  0.00    +0.000 NA
ATOM     30  H   UNL     1       2.394   3.100  17.496  0.00  0.00    +0.000 HD
BRANCH  29  32
ATOM     31  C   UNL     1       0.345   3.111  18.796  0.00  0.00    +0.000 C 
ATOM     32  C   UNL     1       1.237   1.889  18.652  0.00  0.00    +0.000 C 
ENDBRANCH  29  32
ENDBRANCH  28  29
BRANCH  28  33
ATOM     33  O   UNL     1       4.480   2.101  17.174  0.00  0.00    +0.000 OA
ATOM     34  H   UNL     1       5.207   2.104  17.821  0.00  0.00    +0.000 HD
ENDBRANCH  28  33
ENDBRANCH  27  28
ENDBRANCH  26  27
ENDBRANCH   1  26
TORSDOF 10
ENDMDL
