MODEL 1
REMARK VINA RESULT:      -7.6      0.000      0.000
REMARK  Name = 
REMARK  7 active torsions:
REMARK  status: ('A' for Active; 'I' for Inactive)
REMARK    1  A    between atoms: C_1  and  O_2
REMARK    2  A    between atoms: O_2  and  C_3
REMARK    3  A    between atoms: C_8  and  C_9
REMARK    4  A    between atoms: C_14  and  O_15
REMARK    5  A    between atoms: O_15  and  C_16
REMARK    6  A    between atoms: C_16  and  C_17
REMARK    7  A    between atoms: C_17  and  O_19
REMARK                            x       y       z     vdW  Elec       q    Type
REMARK                         _______ _______ _______ _____ _____    ______ ____
ROOT
ATOM      1  C   UNL     1       4.478   4.831  20.017  0.00  0.00    +0.000 C 
ATOM      2  C   UNL     1       4.986   5.255  18.857  0.00  0.00    +0.000 C 
ATOM      3  O   UNL     1       4.266   5.358  17.677  0.00  0.00    +0.000 OA
ATOM      4  C   UNL     1       5.189   5.206  16.676  0.00  0.00    +0.000 A 
ATOM      5  C   UNL     1       4.857   4.959  15.368  0.00  0.00    +0.000 A 
ATOM      6  C   UNL     1       5.873   4.547  14.504  0.00  0.00    +0.000 A 
ATOM      7  C   UNL     1       7.206   4.450  14.952  0.00  0.00    +0.000 A 
ATOM      8  C   UNL     1       7.533   4.760  16.287  0.00  0.00    +0.000 A 
ATOM      9  C   UNL     1       6.500   5.130  17.129  0.00  0.00    +0.000 A 
ATOM     10  C   UNL     1       6.459   5.288  18.587  0.00  0.00    +0.000 C 
ATOM     11  O   UNL     1       7.386   5.323  19.360  0.00  0.00    +0.000 OA
ENDROOT
BRANCH   1  17
ATOM     12  C   UNL     1       2.953   2.872  19.743  0.00  0.00    +0.000 A 
ATOM     13  C   UNL     1       1.676   2.304  19.788  0.00  0.00    +0.000 A 
ATOM     14  C   UNL     1       0.571   3.087  20.126  0.00  0.00    +0.000 A 
ATOM     15  C   UNL     1       0.734   4.439  20.415  0.00  0.00    +0.000 A 
ATOM     16  C   UNL     1       2.008   5.016  20.387  0.00  0.00    +0.000 A 
ATOM     17  C   UNL     1       3.128   4.237  20.070  0.00  0.00    +0.000 A 
BRANCH  12  19
ATOM     18  C   UNL     1       3.960   1.238  18.337  0.00  0.00    +0.000 C 
ATOM     19  O   UNL     1       4.084   2.160  19.415  0.00  0.00    +0.000 OA
ENDBRANCH  12  19
ENDBRANCH   1  17
BRANCH   6  20
ATOM     20  O   UNL     1       5.395   4.139  13.295  0.00  0.00    +0.000 OA
BRANCH  20  21
ATOM     21  C   UNL     1       6.263   3.406  12.435  0.00  0.00    +0.000 C 
BRANCH  21  22
ATOM     22  C   UNL     1       5.368   2.460  11.650  0.00  0.00    +0.000 C 
ATOM     23  O   UNL     1       4.245   2.744  11.259  0.00  0.00    +0.000 OA
BRANCH  22  24
ATOM     24  O   UNL     1       5.938   1.251  11.407  0.00  0.00    +0.000 OA
ATOM     25  H   UNL     1       6.303   1.238  10.495  0.00  0.00    +0.000 HD
ENDBRANCH  22  24
ENDBRANCH  21  22
ENDBRANCH  20  21
ENDBRANCH   6  20
TORSDOF 6
ENDMDL
MODEL 2
REMARK VINA RESULT:      -7.5      3.880      7.431
REMARK  Name = 
REMARK  7 active torsions:
REMARK  status: ('A' for Active; 'I' for Inactive)
REMARK    1  A    between atoms: C_1  and  O_2
REMARK    2  A    between atoms: O_2  and  C_3
REMARK    3  A    between atoms: C_8  and  C_9
REMARK    4  A    between atoms: C_14  and  O_15
REMARK    5  A    between atoms: O_15  and  C_16
REMARK    6  A    between atoms: C_16  and  C_17
REMARK    7  A    between atoms: C_17  and  O_19
REMARK                            x       y       z     vdW  Elec       q    Type
REMARK                         _______ _______ _______ _____ _____    ______ ____
ROOT
ATOM      1  C   UNL     1       4.127   4.055  18.816  0.00  0.00    +0.000 C 
ATOM      2  C   UNL     1       3.112   4.920  18.891  0.00  0.00    +0.000 C 
ATOM      3  O   UNL     1       2.804   5.853  17.912  0.00  0.00    +0.000 OA
ATOM      4  C   UNL     1       2.185   6.880  18.573  0.00  0.00    +0.000 A 
ATOM      5  C   UNL     1       1.976   8.120  18.025  0.00  0.00    +0.000 A 
ATOM      6  C   UNL     1       1.597   9.156  18.880  0.00  0.00    +0.000 A 
ATOM      7  C   UNL     1       1.377   8.915  20.251  0.00  0.00    +0.000 A 
ATOM      8  C   UNL     1       1.546   7.622  20.784  0.00  0.00    +0.000 A 
ATOM      9  C   UNL     1       1.957   6.623  19.920  0.00  0.00    +0.000 A 
ATOM     10  C   UNL     1       2.438   5.263  20.183  0.00  0.00    +0.000 C 
ATOM     11  O   UNL     1       2.389   4.641  21.217  0.00  0.00    +0.000 OA
ENDROOT
BRANCH   1  17
ATOM     12  C   UNL     1       6.415   4.699  18.050  0.00  0.00    +0.000 A 
ATOM     13  C   UNL     1       7.375   4.819  17.041  0.00  0.00    +0.000 A 
ATOM     14  C   UNL     1       7.065   4.452  15.730  0.00  0.00    +0.000 A 
ATOM     15  C   UNL     1       5.797   3.970  15.421  0.00  0.00    +0.000 A 
ATOM     16  C   UNL     1       4.833   3.831  16.424  0.00  0.00    +0.000 A 
ATOM     17  C   UNL     1       5.137   4.176  17.747  0.00  0.00    +0.000 A 
BRANCH  12  19
ATOM     18  C   UNL     1       7.884   5.708  19.627  0.00  0.00    +0.000 C 
ATOM     19  O   UNL     1       6.652   5.044  19.361  0.00  0.00    +0.000 OA
ENDBRANCH  12  19
ENDBRANCH   1  17
BRANCH   6  20
ATOM     20  O   UNL     1       1.617  10.372  18.265  0.00  0.00    +0.000 OA
BRANCH  20  21
ATOM     21  C   UNL     1       1.292  11.526  19.035  0.00  0.00    +0.000 C 
BRANCH  21  22
ATOM     22  C   UNL     1       2.251  12.614  18.579  0.00  0.00    +0.000 C 
ATOM     23  O   UNL     1       2.664  13.511  19.302  0.00  0.00    +0.000 OA
BRANCH  22  24
ATOM     24  O   UNL     1       2.626  12.497  17.279  0.00  0.00    +0.000 OA
ATOM     25  H   UNL     1       1.959  12.935  16.705  0.00  0.00    +0.000 HD
ENDBRANCH  22  24
ENDBRANCH  21  22
ENDBRANCH  20  21
ENDBRANCH   6  20
TORSDOF 6
ENDMDL
MODEL 3
REMARK VINA RESULT:      -7.5      3.751      5.815
REMARK  Name = 
REMARK  7 active torsions:
REMARK  status: ('A' for Active; 'I' for Inactive)
REMARK    1  A    between atoms: C_1  and  O_2
REMARK    2  A    between atoms: O_2  and  C_3
REMARK    3  A    between atoms: C_8  and  C_9
REMARK    4  A    between atoms: C_14  and  O_15
REMARK    5  A    between atoms: O_15  and  C_16
REMARK    6  A    between atoms: C_16  and  C_17
REMARK    7  A    between atoms: C_17  and  O_19
REMARK                            x       y       z     vdW  Elec       q    Type
REMARK                         _______ _______ _______ _____ _____    ______ ____
ROOT
ATOM      1  C   UNL     1       1.187   7.437  20.798  0.00  0.00    +0.000 C 
ATOM      2  C   UNL     1       2.097   6.572  20.342  0.00  0.00    +0.000 C 
ATOM      3  O   UNL     1       3.185   6.922  19.557  0.00  0.00    +0.000 OA
ATOM      4  C   UNL     1       3.475   5.803  18.822  0.00  0.00    +0.000 A 
ATOM      5  C   UNL     1       4.295   5.807  17.722  0.00  0.00    +0.000 A 
ATOM      6  C   UNL     1       4.289   4.679  16.900  0.00  0.00    +0.000 A 
ATOM      7  C   UNL     1       3.510   3.552  17.228  0.00  0.00    +0.000 A 
ATOM      8  C   UNL     1       2.715   3.548  18.391  0.00  0.00    +0.000 A 
ATOM      9  C   UNL     1       2.713   4.693  19.168  0.00  0.00    +0.000 A 
ATOM     10  C   UNL     1       1.847   5.098  20.280  0.00  0.00    +0.000 C 
ATOM     11  O   UNL     1       1.062   4.420  20.899  0.00  0.00    +0.000 OA
ENDROOT
BRANCH   1  17
ATOM     12  C   UNL     1       1.045   9.892  21.239  0.00  0.00    +0.000 A 
ATOM     13  C   UNL     1       1.024  11.214  20.785  0.00  0.00    +0.000 A 
ATOM     14  C   UNL     1       1.096  11.487  19.418  0.00  0.00    +0.000 A 
ATOM     15  C   UNL     1       1.183  10.445  18.501  0.00  0.00    +0.000 A 
ATOM     16  C   UNL     1       1.219   9.119  18.943  0.00  0.00    +0.000 A 
ATOM     17  C   UNL     1       1.169   8.831  20.313  0.00  0.00    +0.000 A 
BRANCH  12  19
ATOM     18  C   UNL     1      -0.287   9.737  23.206  0.00  0.00    +0.000 C 
ATOM     19  O   UNL     1       0.975   9.551  22.571  0.00  0.00    +0.000 OA
ENDBRANCH  12  19
ENDBRANCH   1  17
BRANCH   6  20
ATOM     20  O   UNL     1       4.980   4.877  15.742  0.00  0.00    +0.000 OA
BRANCH  20  21
ATOM     21  C   UNL     1       6.166   4.118  15.522  0.00  0.00    +0.000 C 
BRANCH  21  22
ATOM     22  C   UNL     1       7.283   4.886  16.210  0.00  0.00    +0.000 C 
ATOM     23  O   UNL     1       7.522   6.070  16.016  0.00  0.00    +0.000 OA
BRANCH  22  24
ATOM     24  O   UNL     1       8.002   4.133  17.082  0.00  0.00    +0.000 OA
ATOM     25  H   UNL     1       7.497   3.323  17.311  0.00  0.00    +0.000 HD
ENDBRANCH  22  24
ENDBRANCH  21  22
ENDBRANCH  20  21
ENDBRANCH   6  20
TORSDOF 6
ENDMDL
MODEL 4
REMARK VINA RESULT:      -7.3      3.907      7.466
REMARK  Name = 
REMARK  7 active torsions:
REMARK  status: ('A' for Active; 'I' for Inactive)
REMARK    1  A    between atoms: C_1  and  O_2
REMARK    2  A    between atoms: O_2  and  C_3
REMARK    3  A    between atoms: C_8  and  C_9
REMARK    4  A    between atoms: C_14  and  O_15
REMARK    5  A    between atoms: O_15  and  C_16
REMARK    6  A    between atoms: C_16  and  C_17
REMARK    7  A    between atoms: C_17  and  O_19
REMARK                            x       y       z     vdW  Elec       q    Type
REMARK                         _______ _______ _______ _____ _____    ______ ____
ROOT
ATOM      1  C   UNL     1       4.108   4.128  18.815  0.00  0.00    +0.000 C 
ATOM      2  C   UNL     1       3.082   4.979  18.908  0.00  0.00    +0.000 C 
ATOM      3  O   UNL     1       2.748   5.911  17.938  0.00  0.00    +0.000 OA
ATOM      4  C   UNL     1       2.124   6.927  18.612  0.00  0.00    +0.000 A 
ATOM      5  C   UNL     1       1.889   8.166  18.073  0.00  0.00    +0.000 A 
ATOM      6  C   UNL     1       1.507   9.192  18.938  0.00  0.00    +0.000 A 
ATOM      7  C   UNL     1       1.311   8.943  20.311  0.00  0.00    +0.000 A 
ATOM      8  C   UNL     1       1.506   7.650  20.836  0.00  0.00    +0.000 A 
ATOM      9  C   UNL     1       1.919   6.661  19.961  0.00  0.00    +0.000 A 
ATOM     10  C   UNL     1       2.423   5.306  20.211  0.00  0.00    +0.000 C 
ATOM     11  O   UNL     1       2.398   4.680  21.244  0.00  0.00    +0.000 OA
ENDROOT
BRANCH   1  17
ATOM     12  C   UNL     1       6.390   4.770  18.026  0.00  0.00    +0.000 A 
ATOM     13  C   UNL     1       7.333   4.908  17.003  0.00  0.00    +0.000 A 
ATOM     14  C   UNL     1       6.996   4.580  15.689  0.00  0.00    +0.000 A 
ATOM     15  C   UNL     1       5.718   4.118  15.390  0.00  0.00    +0.000 A 
ATOM     16  C   UNL     1       4.770   3.962  16.406  0.00  0.00    +0.000 A 
ATOM     17  C   UNL     1       5.101   4.268  17.732  0.00  0.00    +0.000 A 
BRANCH  12  19
ATOM     18  C   UNL     1       7.908   5.698  19.606  0.00  0.00    +0.000 C 
ATOM     19  O   UNL     1       6.653   5.078  19.341  0.00  0.00    +0.000 OA
ENDBRANCH  12  19
ENDBRANCH   1  17
BRANCH   6  20
ATOM     20  O   UNL     1       1.501  10.411  18.328  0.00  0.00    +0.000 OA
BRANCH  20  21
ATOM     21  C   UNL     1       0.767  11.470  18.937  0.00  0.00    +0.000 C 
BRANCH  21  22
ATOM     22  C   UNL     1      -0.623  11.419  18.324  0.00  0.00    +0.000 C 
ATOM     23  O   UNL     1      -1.427  10.520  18.523  0.00  0.00    +0.000 OA
BRANCH  22  24
ATOM     24  O   UNL     1      -0.904  12.483  17.527  0.00  0.00    +0.000 OA
ATOM     25  H   UNL     1      -0.141  12.660  16.935  0.00  0.00    +0.000 HD
ENDBRANCH  22  24
ENDBRANCH  21  22
ENDBRANCH  20  21
ENDBRANCH   6  20
TORSDOF 6
ENDMDL
MODEL 5
REMARK VINA RESULT:      -7.2      0.952      1.865
REMARK  Name = 
REMARK  7 active torsions:
REMARK  status: ('A' for Active; 'I' for Inactive)
REMARK    1  A    between atoms: C_1  and  O_2
REMARK    2  A    between atoms: O_2  and  C_3
REMARK    3  A    between atoms: C_8  and  C_9
REMARK    4  A    between atoms: C_14  and  O_15
REMARK    5  A    between atoms: O_15  and  C_16
REMARK    6  A    between atoms: C_16  and  C_17
REMARK    7  A    between atoms: C_17  and  O_19
REMARK                            x       y       z     vdW  Elec       q    Type
REMARK                         _______ _______ _______ _____ _____    ______ ____
ROOT
ATOM      1  C   UNL     1       4.448   4.481  19.781  0.00  0.00    +0.000 C 
ATOM      2  C   UNL     1       4.965   4.991  18.659  0.00  0.00    +0.000 C 
ATOM      3  O   UNL     1       4.271   5.121  17.466  0.00  0.00    +0.000 OA
ATOM      4  C   UNL     1       5.227   5.069  16.486  0.00  0.00    +0.000 A 
ATOM      5  C   UNL     1       4.942   4.876  15.157  0.00  0.00    +0.000 A 
ATOM      6  C   UNL     1       6.000   4.563  14.303  0.00  0.00    +0.000 A 
ATOM      7  C   UNL     1       7.324   4.509  14.784  0.00  0.00    +0.000 A 
ATOM      8  C   UNL     1       7.600   4.762  16.141  0.00  0.00    +0.000 A 
ATOM      9  C   UNL     1       6.528   5.034  16.972  0.00  0.00    +0.000 A 
ATOM     10  C   UNL     1       6.440   5.112  18.434  0.00  0.00    +0.000 C 
ATOM     11  O   UNL     1       7.344   5.151  19.235  0.00  0.00    +0.000 OA
ENDROOT
BRANCH   1  17
ATOM     12  C   UNL     1       2.033   4.427  20.415  0.00  0.00    +0.000 A 
ATOM     13  C   UNL     1       0.783   3.802  20.404  0.00  0.00    +0.000 A 
ATOM     14  C   UNL     1       0.622   2.564  19.780  0.00  0.00    +0.000 A 
ATOM     15  C   UNL     1       1.708   1.944  19.169  0.00  0.00    +0.000 A 
ATOM     16  C   UNL     1       2.960   2.566  19.159  0.00  0.00    +0.000 A 
ATOM     17  C   UNL     1       3.131   3.818  19.764  0.00  0.00    +0.000 A 
BRANCH  12  19
ATOM     18  C   UNL     1       1.771   6.791  20.324  0.00  0.00    +0.000 C 
ATOM     19  O   UNL     1       2.262   5.645  21.013  0.00  0.00    +0.000 OA
ENDBRANCH  12  19
ENDBRANCH   1  17
BRANCH   6  20
ATOM     20  O   UNL     1       5.575   4.197  13.061  0.00  0.00    +0.000 OA
BRANCH  20  21
ATOM     21  C   UNL     1       6.402   3.329  12.290  0.00  0.00    +0.000 C 
BRANCH  21  22
ATOM     22  C   UNL     1       5.454   2.389  11.563  0.00  0.00    +0.000 C 
ATOM     23  O   UNL     1       4.328   2.698  11.197  0.00  0.00    +0.000 OA
BRANCH  22  24
ATOM     24  O   UNL     1       5.976   1.155  11.342  0.00  0.00    +0.000 OA
ATOM     25  H   UNL     1       5.386   0.474  11.731  0.00  0.00    +0.000 HD
ENDBRANCH  22  24
ENDBRANCH  21  22
ENDBRANCH  20  21
ENDBRANCH   6  20
TORSDOF 6
ENDMDL
MODEL 6
REMARK VINA RESULT:      -7.1      4.750      8.404
REMARK  Name = 
REMARK  7 active torsions:
REMARK  status: ('A' for Active; 'I' for Inactive)
REMARK    1  A    between atoms: C_1  and  O_2
REMARK    2  A    between atoms: O_2  and  C_3
REMARK    3  A    between atoms: C_8  and  C_9
REMARK    4  A    between atoms: C_14  and  O_15
REMARK    5  A    between atoms: O_15  and  C_16
REMARK    6  A    between atoms: C_16  and  C_17
REMARK    7  A    between atoms: C_17  and  O_19
REMARK                            x       y       z     vdW  Elec       q    Type
REMARK                         _______ _______ _______ _____ _____    ______ ____
ROOT
ATOM      1  C   UNL     1       3.103   5.704  17.735  0.00  0.00    +0.000 C 
ATOM      2  C   UNL     1       2.873   6.770  18.508  0.00  0.00    +0.000 C 
ATOM      3  O   UNL     1       2.488   6.703  19.837  0.00  0.00    +0.000 OA
ATOM      4  C   UNL     1       1.784   7.856  20.068  0.00  0.00    +0.000 A 
ATOM      5  C   UNL     1       0.989   8.053  21.169  0.00  0.00    +0.000 A 
ATOM      6  C   UNL     1       0.111   9.138  21.153  0.00  0.00    +0.000 A 
ATOM      7  C   UNL     1       0.090  10.033  20.064  0.00  0.00    +0.000 A 
ATOM      8  C   UNL     1       0.952   9.842  18.967  0.00  0.00    +0.000 A 
ATOM      9  C   UNL     1       1.786   8.738  18.993  0.00  0.00    +0.000 A 
ATOM     10  C   UNL     1       2.613   8.132  17.945  0.00  0.00    +0.000 C 
ATOM     11  O   UNL     1       2.905   8.592  16.866  0.00  0.00    +0.000 OA
ENDROOT
BRANCH   1  17
ATOM     12  C   UNL     1       3.779   3.395  18.402  0.00  0.00    +0.000 A 
ATOM     13  C   UNL     1       3.456   2.109  18.844  0.00  0.00    +0.000 A 
ATOM     14  C   UNL     1       2.122   1.756  19.062  0.00  0.00    +0.000 A 
ATOM     15  C   UNL     1       1.109   2.682  18.835  0.00  0.00    +0.000 A 
ATOM     16  C   UNL     1       1.421   3.976  18.407  0.00  0.00    +0.000 A 
ATOM     17  C   UNL     1       2.756   4.350  18.205  0.00  0.00    +0.000 A 
BRANCH  12  19
ATOM     18  C   UNL     1       5.704   4.535  19.215  0.00  0.00    +0.000 C 
ATOM     19  O   UNL     1       5.071   3.808  18.166  0.00  0.00    +0.000 OA
ENDBRANCH  12  19
ENDBRANCH   1  17
BRANCH   6  20
ATOM     20  O   UNL     1      -0.762   9.117  22.199  0.00  0.00    +0.000 OA
BRANCH  20  21
ATOM     21  C   UNL     1      -0.456   9.895  23.353  0.00  0.00    +0.000 C 
BRANCH  21  22
ATOM     22  C   UNL     1      -1.168  11.225  23.158  0.00  0.00    +0.000 C 
ATOM     23  O   UNL     1      -2.366  11.393  23.337  0.00  0.00    +0.000 OA
BRANCH  22  24
ATOM     24  O   UNL     1      -0.342  12.230  22.768  0.00  0.00    +0.000 OA
ATOM     25  H   UNL     1       0.200  11.933  22.005  0.00  0.00    +0.000 HD
ENDBRANCH  22  24
ENDBRANCH  21  22
ENDBRANCH  20  21
ENDBRANCH   6  20
TORSDOF 6
ENDMDL
MODEL 7
REMARK VINA RESULT:      -7.1      3.254      7.216
REMARK  Name = 
REMARK  7 active torsions:
REMARK  status: ('A' for Active; 'I' for Inactive)
REMARK    1  A    between atoms: C_1  and  O_2
REMARK    2  A    between atoms: O_2  and  C_3
REMARK    3  A    between atoms: C_8  and  C_9
REMARK    4  A    between atoms: C_14  and  O_15
REMARK    5  A    between atoms: O_15  and  C_16
REMARK    6  A    between atoms: C_16  and  C_17
REMARK    7  A    between atoms: C_17  and  O_19
REMARK                            x       y       z     vdW  Elec       q    Type
REMARK                         _______ _______ _______ _____ _____    ______ ____
ROOT
ATOM      1  C   UNL     1       4.421   3.328  17.493  0.00  0.00    +0.000 C 
ATOM      2  C   UNL     1       3.388   4.069  17.904  0.00  0.00    +0.000 C 
ATOM      3  O   UNL     1       3.039   5.295  17.360  0.00  0.00    +0.000 OA
ATOM      4  C   UNL     1       2.410   5.973  18.371  0.00  0.00    +0.000 A 
ATOM      5  C   UNL     1       2.161   7.322  18.341  0.00  0.00    +0.000 A 
ATOM      6  C   UNL     1       1.775   7.940  19.532  0.00  0.00    +0.000 A 
ATOM      7  C   UNL     1       1.589   7.186  20.708  0.00  0.00    +0.000 A 
ATOM      8  C   UNL     1       1.799   5.794  20.704  0.00  0.00    +0.000 A 
ATOM      9  C   UNL     1       2.216   5.214  19.519  0.00  0.00    +0.000 A 
ATOM     10  C   UNL     1       2.733   3.871  19.236  0.00  0.00    +0.000 C 
ATOM     11  O   UNL     1       2.719   2.900  19.954  0.00  0.00    +0.000 OA
ENDROOT
BRANCH   1  17
ATOM     12  C   UNL     1       6.587   4.483  17.031  0.00  0.00    +0.000 A 
ATOM     13  C   UNL     1       7.522   5.009  16.135  0.00  0.00    +0.000 A 
ATOM     14  C   UNL     1       7.279   4.966  14.761  0.00  0.00    +0.000 A 
ATOM     15  C   UNL     1       6.102   4.403  14.278  0.00  0.00    +0.000 A 
ATOM     16  C   UNL     1       5.165   3.860  15.163  0.00  0.00    +0.000 A 
ATOM     17  C   UNL     1       5.406   3.878  16.543  0.00  0.00    +0.000 A 
BRANCH  12  19
ATOM     18  C   UNL     1       7.267   5.703  18.959  0.00  0.00    +0.000 C 
ATOM     19  O   UNL     1       6.761   4.495  18.397  0.00  0.00    +0.000 OA
ENDBRANCH  12  19
ENDBRANCH   1  17
BRANCH   6  20
ATOM     20  O   UNL     1       1.754   9.299  19.430  0.00  0.00    +0.000 OA
BRANCH  20  21
ATOM     21  C   UNL     1       1.809   9.882  18.131  0.00  0.00    +0.000 C 
BRANCH  21  22
ATOM     22  C   UNL     1       1.821  11.386  18.351  0.00  0.00    +0.000 C 
ATOM     23  O   UNL     1       1.177  11.957  19.219  0.00  0.00    +0.000 OA
BRANCH  22  24
ATOM     24  O   UNL     1       2.632  12.054  17.490  0.00  0.00    +0.000 OA
ATOM     25  H   UNL     1       2.507  11.702  16.582  0.00  0.00    +0.000 HD
ENDBRANCH  22  24
ENDBRANCH  21  22
ENDBRANCH  20  21
ENDBRANCH   6  20
TORSDOF 6
ENDMDL
MODEL 8
REMARK VINA RESULT:      -7.1      3.386      5.386
REMARK  Name = 
REMARK  7 active torsions:
REMARK  status: ('A' for Active; 'I' for Inactive)
REMARK    1  A    between atoms: C_1  and  O_2
REMARK    2  A    between atoms: O_2  and  C_3
REMARK    3  A    between atoms: C_8  and  C_9
REMARK    4  A    between atoms: C_14  and  O_15
REMARK    5  A    between atoms: O_15  and  C_16
REMARK    6  A    between atoms: C_16  and  C_17
REMARK    7  A    between atoms: C_17  and  O_19
REMARK                            x       y       z     vdW  Elec       q    Type
REMARK                         _______ _______ _______ _____ _____    ______ ____
ROOT
ATOM      1  C   UNL     1       1.409   6.948  20.662  0.00  0.00    +0.000 C 
ATOM      2  C   UNL     1       2.319   6.025  20.338  0.00  0.00    +0.000 C 
ATOM      3  O   UNL     1       3.429   6.264  19.542  0.00  0.00    +0.000 OA
ATOM      4  C   UNL     1       3.721   5.060  18.959  0.00  0.00    +0.000 A 
ATOM      5  C   UNL     1       4.566   4.920  17.887  0.00  0.00    +0.000 A 
ATOM      6  C   UNL     1       4.565   3.699  17.211  0.00  0.00    +0.000 A 
ATOM      7  C   UNL     1       3.765   2.628  17.657  0.00  0.00    +0.000 A 
ATOM      8  C   UNL     1       2.944   2.776  18.792  0.00  0.00    +0.000 A 
ATOM      9  C   UNL     1       2.938   4.008  19.421  0.00  0.00    +0.000 A 
ATOM     10  C   UNL     1       2.053   4.556  20.453  0.00  0.00    +0.000 C 
ATOM     11  O   UNL     1       1.245   3.968  21.133  0.00  0.00    +0.000 OA
ENDROOT
BRANCH   1  17
ATOM     12  C   UNL     1       1.042   9.418  20.743  0.00  0.00    +0.000 A 
ATOM     13  C   UNL     1       1.047  10.673  20.127  0.00  0.00    +0.000 A 
ATOM     14  C   UNL     1       1.395  10.793  18.780  0.00  0.00    +0.000 A 
ATOM     15  C   UNL     1       1.733   9.662  18.044  0.00  0.00    +0.000 A 
ATOM     16  C   UNL     1       1.747   8.403  18.652  0.00  0.00    +0.000 A 
ATOM     17  C   UNL     1       1.420   8.271  20.007  0.00  0.00    +0.000 A 
BRANCH  12  19
ATOM     18  C   UNL     1      -0.473   9.883  22.519  0.00  0.00    +0.000 C 
ATOM     19  O   UNL     1       0.707   9.227  22.065  0.00  0.00    +0.000 OA
ENDBRANCH  12  19
ENDBRANCH   1  17
BRANCH   6  20
ATOM     20  O   UNL     1       5.284   3.744  16.054  0.00  0.00    +0.000 OA
BRANCH  20  21
ATOM     21  C   UNL     1       6.538   4.420  16.061  0.00  0.00    +0.000 C 
BRANCH  21  22
ATOM     22  C   UNL     1       6.942   4.562  14.602  0.00  0.00    +0.000 C 
ATOM     23  O   UNL     1       7.656   5.458  14.173  0.00  0.00    +0.000 OA
BRANCH  22  24
ATOM     24  O   UNL     1       6.440   3.586  13.802  0.00  0.00    +0.000 OA
ATOM     25  H   UNL     1       7.018   2.793  13.850  0.00  0.00    +0.000 HD
ENDBRANCH  22  24
ENDBRANCH  21  22
ENDBRANCH  20  21
ENDBRANCH   6  20
TORSDOF 6
ENDMDL
MODEL 9
REMARK VINA RESULT:      -7.0      3.189      7.329
REMARK  Name = 
REMARK  7 active torsions:
REMARK  status: ('A' for Active; 'I' for Inactive)
REMARK    1  A    between atoms: C_1  and  O_2
REMARK    2  A    between atoms: O_2  and  C_3
REMARK    3  A    between atoms: C_8  and  C_9
REMARK    4  A    between atoms: C_14  and  O_15
REMARK    5  A    between atoms: O_15  and  C_16
REMARK    6  A    between atoms: C_16  and  C_17
REMARK    7  A    between atoms: C_17  and  O_19
REMARK                            x       y       z     vdW  Elec       q    Type
REMARK                         _______ _______ _______ _____ _____    ______ ____
ROOT
ATOM      1  C   UNL     1       4.348   3.312  17.605  0.00  0.00    +0.000 C 
ATOM      2  C   UNL     1       3.323   4.066  18.011  0.00  0.00    +0.000 C 
ATOM      3  O   UNL     1       2.989   5.295  17.462  0.00  0.00    +0.000 OA
ATOM      4  C   UNL     1       2.365   5.983  18.469  0.00  0.00    +0.000 A 
ATOM      5  C   UNL     1       2.132   7.334  18.435  0.00  0.00    +0.000 A 
ATOM      6  C   UNL     1       1.750   7.960  19.622  0.00  0.00    +0.000 A 
ATOM      7  C   UNL     1       1.551   7.213  20.800  0.00  0.00    +0.000 A 
ATOM      8  C   UNL     1       1.745   5.818  20.800  0.00  0.00    +0.000 A 
ATOM      9  C   UNL     1       2.159   5.229  19.618  0.00  0.00    +0.000 A 
ATOM     10  C   UNL     1       2.661   3.880  19.341  0.00  0.00    +0.000 C 
ATOM     11  O   UNL     1       2.634   2.911  20.062  0.00  0.00    +0.000 OA
ENDROOT
BRANCH   1  17
ATOM     12  C   UNL     1       6.538   4.422  17.145  0.00  0.00    +0.000 A 
ATOM     13  C   UNL     1       7.481   4.935  16.251  0.00  0.00    +0.000 A 
ATOM     14  C   UNL     1       7.233   4.908  14.877  0.00  0.00    +0.000 A 
ATOM     15  C   UNL     1       6.043   4.375  14.393  0.00  0.00    +0.000 A 
ATOM     16  C   UNL     1       5.097   3.846  15.277  0.00  0.00    +0.000 A 
ATOM     17  C   UNL     1       5.342   3.848  16.656  0.00  0.00    +0.000 A 
BRANCH  12  19
ATOM     18  C   UNL     1       7.113   5.655  19.099  0.00  0.00    +0.000 C 
ATOM     19  O   UNL     1       6.716   4.419  18.511  0.00  0.00    +0.000 OA
ENDBRANCH  12  19
ENDBRANCH   1  17
BRANCH   6  20
ATOM     20  O   UNL     1       1.745   9.319  19.516  0.00  0.00    +0.000 OA
BRANCH  20  21
ATOM     21  C   UNL     1       0.665  10.041  20.101  0.00  0.00    +0.000 C 
BRANCH  21  22
ATOM     22  C   UNL     1      -0.293  10.352  18.962  0.00  0.00    +0.000 C 
ATOM     23  O   UNL     1      -1.508  10.241  19.039  0.00  0.00    +0.000 OA
BRANCH  22  24
ATOM     24  O   UNL     1       0.328  10.781  17.833  0.00  0.00    +0.000 OA
ATOM     25  H   UNL     1      -0.270  10.661  17.063  0.00  0.00    +0.000 HD
ENDBRANCH  22  24
ENDBRANCH  21  22
ENDBRANCH  20  21
ENDBRANCH   6  20
TORSDOF 6
ENDMDL
