MODEL 1
REMARK VINA RESULT:      -8.0      0.000      0.000
REMARK  Name = 
REMARK  4 active torsions:
REMARK  status: ('A' for Active; 'I' for Inactive)
REMARK    1  A    between atoms: C_1  and  O_2
REMARK    2  A    between atoms: O_2  and  C_3
REMARK    3  A    between atoms: C_6  and  N_7
REMARK    4  A    between atoms: C_8  and  C_10
REMARK                            x       y       z     vdW  Elec       q    Type
REMARK                         _______ _______ _______ _____ _____    ______ ____
ROOT
ATOM      1  N   UNL     1       1.791   7.921  20.808  0.00  0.00    +0.000 N 
ATOM      2  C   UNL     1       2.258   7.479  19.525  0.00  0.00    +0.000 C 
ATOM      3  O   UNL     1       2.199   8.134  18.493  0.00  0.00    +0.000 OA
ATOM      4  H   UNL     1       2.004   7.261  21.554  0.00  0.00    +0.000 HD
ENDROOT
BRANCH   2   5
ATOM      5  C   UNL     1       2.769   5.954  19.634  0.00  0.00    +0.000 C 
ATOM      6  N   UNL     1       2.414   5.610  21.068  0.00  0.00    +0.000 NA
ATOM      7  C   UNL     1       1.922   4.248  21.281  0.00  0.00    +0.000 C 
ATOM      8  C   UNL     1       0.850   3.891  20.261  0.00  0.00    +0.000 C 
ATOM      9  C   UNL     1       1.639   3.716  19.005  0.00  0.00    +0.000 A 
ATOM     10  C   UNL     1       1.758   2.418  18.464  0.00  0.00    +0.000 A 
ATOM     11  C   UNL     1       2.683   2.157  17.472  0.00  0.00    +0.000 A 
ATOM     12  C   UNL     1       3.418   3.231  16.947  0.00  0.00    +0.000 A 
ATOM     13  C   UNL     1       3.299   4.534  17.497  0.00  0.00    +0.000 A 
ATOM     14  C   UNL     1       2.467   4.798  18.603  0.00  0.00    +0.000 A 
ATOM     15  H   UNL     1       1.616   6.212  21.294  0.00  0.00    +0.000 HD
ENDBRANCH   2   5
BRANCH   1  19
ATOM     16  C   UNL     1      -0.961  10.932  22.235  0.00  0.00    +0.000 A 
ATOM     17  C   UNL     1      -0.590  10.871  20.880  0.00  0.00    +0.000 A 
ATOM     18  C   UNL     1       0.341   9.915  20.382  0.00  0.00    +0.000 A 
ATOM     19  C   UNL     1       0.924   8.983  21.225  0.00  0.00    +0.000 A 
ATOM     20  C   UNL     1       0.554   9.063  22.600  0.00  0.00    +0.000 A 
ATOM     21  C   UNL     1      -0.363  10.026  23.104  0.00  0.00    +0.000 A 
BRANCH  16  23
ATOM     22  C   UNL     1      -1.382  13.126  23.165  0.00  0.00    +0.000 C 
ATOM     23  O   UNL     1      -1.844  11.923  22.546  0.00  0.00    +0.000 OA
ENDBRANCH  16  23
ENDBRANCH   1  19
TORSDOF 3
ENDMDL
MODEL 2
REMARK VINA RESULT:      -8.0      0.425      1.122
REMARK  Name = 
REMARK  4 active torsions:
REMARK  status: ('A' for Active; 'I' for Inactive)
REMARK    1  A    between atoms: C_1  and  O_2
REMARK    2  A    between atoms: O_2  and  C_3
REMARK    3  A    between atoms: C_6  and  N_7
REMARK    4  A    between atoms: C_8  and  C_10
REMARK                            x       y       z     vdW  Elec       q    Type
REMARK                         _______ _______ _______ _____ _____    ______ ____
ROOT
ATOM      1  N   UNL     1       1.736   7.900  20.874  0.00  0.00    +0.000 N 
ATOM      2  C   UNL     1       2.221   7.484  19.589  0.00  0.00    +0.000 C 
ATOM      3  O   UNL     1       2.163   8.154  18.567  0.00  0.00    +0.000 OA
ATOM      4  H   UNL     1       1.950   7.232  21.612  0.00  0.00    +0.000 HD
ENDROOT
BRANCH   2   5
ATOM      5  C   UNL     1       2.752   5.965  19.680  0.00  0.00    +0.000 C 
ATOM      6  N   UNL     1       2.392   5.596  21.106  0.00  0.00    +0.000 NA
ATOM      7  C   UNL     1       1.917   4.224  21.296  0.00  0.00    +0.000 C 
ATOM      8  C   UNL     1       0.857   3.867  20.263  0.00  0.00    +0.000 C 
ATOM      9  C   UNL     1       1.658   3.721  19.011  0.00  0.00    +0.000 A 
ATOM     10  C   UNL     1       1.798   2.433  18.452  0.00  0.00    +0.000 A 
ATOM     11  C   UNL     1       2.734   2.199  17.463  0.00  0.00    +0.000 A 
ATOM     12  C   UNL     1       3.458   3.290  16.959  0.00  0.00    +0.000 A 
ATOM     13  C   UNL     1       3.317   4.582  17.527  0.00  0.00    +0.000 A 
ATOM     14  C   UNL     1       2.474   4.820  18.631  0.00  0.00    +0.000 A 
ATOM     15  H   UNL     1       1.584   6.183  21.335  0.00  0.00    +0.000 HD
ENDBRANCH   2   5
BRANCH   1  19
ATOM     16  C   UNL     1      -0.779  11.232  21.992  0.00  0.00    +0.000 A 
ATOM     17  C   UNL     1      -0.401  10.258  22.935  0.00  0.00    +0.000 A 
ATOM     18  C   UNL     1       0.397   9.130  22.593  0.00  0.00    +0.000 A 
ATOM     19  C   UNL     1       0.849   8.944  21.298  0.00  0.00    +0.000 A 
ATOM     20  C   UNL     1       0.448   9.927  20.346  0.00  0.00    +0.000 A 
ATOM     21  C   UNL     1      -0.362  11.047  20.679  0.00  0.00    +0.000 A 
BRANCH  16  23
ATOM     22  C   UNL     1      -2.671  11.924  23.332  0.00  0.00    +0.000 C 
ATOM     23  O   UNL     1      -1.564  12.233  22.482  0.00  0.00    +0.000 OA
ENDBRANCH  16  23
ENDBRANCH   1  19
TORSDOF 3
ENDMDL
MODEL 3
REMARK VINA RESULT:      -7.6      1.816      2.798
REMARK  Name = 
REMARK  4 active torsions:
REMARK  status: ('A' for Active; 'I' for Inactive)
REMARK    1  A    between atoms: C_1  and  O_2
REMARK    2  A    between atoms: O_2  and  C_3
REMARK    3  A    between atoms: C_6  and  N_7
REMARK    4  A    between atoms: C_8  and  C_10
REMARK                            x       y       z     vdW  Elec       q    Type
REMARK                         _______ _______ _______ _____ _____    ______ ____
ROOT
ATOM      1  N   UNL     1       2.144   7.381  19.751  0.00  0.00    +0.000 N 
ATOM      2  C   UNL     1       2.260   5.973  20.007  0.00  0.00    +0.000 C 
ATOM      3  O   UNL     1       1.487   5.319  20.694  0.00  0.00    +0.000 OA
ATOM      4  H   UNL     1       2.842   7.721  19.092  0.00  0.00    +0.000 HD
ENDROOT
BRANCH   2   5
ATOM      5  C   UNL     1       3.619   5.415  19.344  0.00  0.00    +0.000 C 
ATOM      6  N   UNL     1       3.682   4.008  19.907  0.00  0.00    +0.000 NA
ATOM      7  C   UNL     1       4.171   2.986  18.980  0.00  0.00    +0.000 C 
ATOM      8  C   UNL     1       3.475   3.097  17.631  0.00  0.00    +0.000 C 
ATOM      9  C   UNL     1       4.088   4.328  17.048  0.00  0.00    +0.000 A 
ATOM     10  C   UNL     1       4.944   4.186  15.935  0.00  0.00    +0.000 A 
ATOM     11  C   UNL     1       5.740   5.240  15.528  0.00  0.00    +0.000 A 
ATOM     12  C   UNL     1       5.593   6.475  16.177  0.00  0.00    +0.000 A 
ATOM     13  C   UNL     1       4.734   6.612  17.298  0.00  0.00    +0.000 A 
ATOM     14  C   UNL     1       4.019   5.516  17.822  0.00  0.00    +0.000 A 
ATOM     15  H   UNL     1       2.706   3.751  20.085  0.00  0.00    +0.000 HD
ENDBRANCH   2   5
BRANCH   1  19
ATOM     16  C   UNL     1       0.033  10.743  21.459  0.00  0.00    +0.000 A 
ATOM     17  C   UNL     1       0.458   9.669  22.262  0.00  0.00    +0.000 A 
ATOM     18  C   UNL     1       1.125   8.530  21.727  0.00  0.00    +0.000 A 
ATOM     19  C   UNL     1       1.394   8.434  20.372  0.00  0.00    +0.000 A 
ATOM     20  C   UNL     1       0.944   9.520  19.564  0.00  0.00    +0.000 A 
ATOM     21  C   UNL     1       0.265  10.651  20.091  0.00  0.00    +0.000 A 
BRANCH  16  23
ATOM     22  C   UNL     1      -1.582  11.424  23.127  0.00  0.00    +0.000 C 
ATOM     23  O   UNL     1      -0.611  11.742  22.128  0.00  0.00    +0.000 OA
ENDBRANCH  16  23
ENDBRANCH   1  19
TORSDOF 3
ENDMDL
MODEL 4
REMARK VINA RESULT:      -7.5      1.738      2.469
REMARK  Name = 
REMARK  4 active torsions:
REMARK  status: ('A' for Active; 'I' for Inactive)
REMARK    1  A    between atoms: C_1  and  O_2
REMARK    2  A    between atoms: O_2  and  C_3
REMARK    3  A    between atoms: C_6  and  N_7
REMARK    4  A    between atoms: C_8  and  C_10
REMARK                            x       y       z     vdW  Elec       q    Type
REMARK                         _______ _______ _______ _____ _____    ______ ____
ROOT
ATOM      1  N   UNL     1       2.069   7.607  19.846  0.00  0.00    +0.000 N 
ATOM      2  C   UNL     1       2.194   6.185  19.998  0.00  0.00    +0.000 C 
ATOM      3  O   UNL     1       1.414   5.475  20.621  0.00  0.00    +0.000 OA
ATOM      4  H   UNL     1       2.775   8.000  19.226  0.00  0.00    +0.000 HD
ENDROOT
BRANCH   2   5
ATOM      5  C   UNL     1       3.569   5.688  19.320  0.00  0.00    +0.000 C 
ATOM      6  N   UNL     1       3.796   4.361  20.018  0.00  0.00    +0.000 NA
ATOM      7  C   UNL     1       4.340   3.296  19.174  0.00  0.00    +0.000 C 
ATOM      8  C   UNL     1       3.574   3.198  17.861  0.00  0.00    +0.000 C 
ATOM      9  C   UNL     1       4.036   4.411  17.123  0.00  0.00    +0.000 A 
ATOM     10  C   UNL     1       4.850   4.232  15.984  0.00  0.00    +0.000 A 
ATOM     11  C   UNL     1       5.518   5.306  15.428  0.00  0.00    +0.000 A 
ATOM     12  C   UNL     1       5.280   6.584  15.956  0.00  0.00    +0.000 A 
ATOM     13  C   UNL     1       4.465   6.759  17.103  0.00  0.00    +0.000 A 
ATOM     14  C   UNL     1       3.886   5.664  17.775  0.00  0.00    +0.000 A 
ATOM     15  H   UNL     1       2.860   4.035  20.276  0.00  0.00    +0.000 HD
ENDBRANCH   2   5
BRANCH   1  19
ATOM     16  C   UNL     1      -0.349  10.404  22.083  0.00  0.00    +0.000 A 
ATOM     17  C   UNL     1      -0.261  10.479  20.681  0.00  0.00    +0.000 A 
ATOM     18  C   UNL     1       0.553   9.597  19.916  0.00  0.00    +0.000 A 
ATOM     19  C   UNL     1       1.299   8.604  20.529  0.00  0.00    +0.000 A 
ATOM     20  C   UNL     1       1.216   8.546  21.952  0.00  0.00    +0.000 A 
ATOM     21  C   UNL     1       0.416   9.435  22.721  0.00  0.00    +0.000 A 
BRANCH  16  23
ATOM     22  C   UNL     1      -0.875  12.731  22.487  0.00  0.00    +0.000 C 
ATOM     23  O   UNL     1      -1.156  11.340  22.660  0.00  0.00    +0.000 OA
ENDBRANCH  16  23
ENDBRANCH   1  19
TORSDOF 3
ENDMDL
MODEL 5
REMARK VINA RESULT:      -7.5      1.596      2.198
REMARK  Name = 
REMARK  4 active torsions:
REMARK  status: ('A' for Active; 'I' for Inactive)
REMARK    1  A    between atoms: C_1  and  O_2
REMARK    2  A    between atoms: O_2  and  C_3
REMARK    3  A    between atoms: C_6  and  N_7
REMARK    4  A    between atoms: C_8  and  C_10
REMARK                            x       y       z     vdW  Elec       q    Type
REMARK                         _______ _______ _______ _____ _____    ______ ____
ROOT
ATOM      1  N   UNL     1       2.068   7.989  19.574  0.00  0.00    +0.000 N 
ATOM      2  C   UNL     1       2.390   8.022  18.175  0.00  0.00    +0.000 C 
ATOM      3  O   UNL     1       2.213   8.982  17.438  0.00  0.00    +0.000 OA
ATOM      4  H   UNL     1       2.366   7.126  20.026  0.00  0.00    +0.000 HD
ENDROOT
BRANCH   2   5
ATOM      5  C   UNL     1       2.917   6.572  17.709  0.00  0.00    +0.000 C 
ATOM      6  N   UNL     1       4.385   6.847  17.445  0.00  0.00    +0.000 NA
ATOM      7  C   UNL     1       5.302   5.776  17.842  0.00  0.00    +0.000 C 
ATOM      8  C   UNL     1       4.992   5.289  19.251  0.00  0.00    +0.000 C 
ATOM      9  C   UNL     1       3.725   4.523  19.059  0.00  0.00    +0.000 A 
ATOM     10  C   UNL     1       3.761   3.120  19.213  0.00  0.00    +0.000 A 
ATOM     11  C   UNL     1       2.698   2.344  18.790  0.00  0.00    +0.000 A 
ATOM     12  C   UNL     1       1.550   2.991  18.310  0.00  0.00    +0.000 A 
ATOM     13  C   UNL     1       1.520   4.401  18.153  0.00  0.00    +0.000 A 
ATOM     14  C   UNL     1       2.641   5.203  18.443  0.00  0.00    +0.000 A 
ATOM     15  H   UNL     1       4.622   7.632  18.061  0.00  0.00    +0.000 HD
ENDBRANCH   2   5
BRANCH   1  19
ATOM     16  C   UNL     1      -0.466  10.234  22.259  0.00  0.00    +0.000 A 
ATOM     17  C   UNL     1      -0.498  10.461  20.871  0.00  0.00    +0.000 A 
ATOM     18  C   UNL     1       0.348   9.764  19.962  0.00  0.00    +0.000 A 
ATOM     19  C   UNL     1       1.247   8.812  20.412  0.00  0.00    +0.000 A 
ATOM     20  C   UNL     1       1.283   8.601  21.823  0.00  0.00    +0.000 A 
ATOM     21  C   UNL     1       0.452   9.305  22.735  0.00  0.00    +0.000 A 
BRANCH  16  23
ATOM     22  C   UNL     1      -1.296  12.427  22.858  0.00  0.00    +0.000 C 
ATOM     23  O   UNL     1      -1.325  11.003  22.988  0.00  0.00    +0.000 OA
ENDBRANCH  16  23
ENDBRANCH   1  19
TORSDOF 3
ENDMDL
MODEL 6
REMARK VINA RESULT:      -7.5      5.203      6.749
REMARK  Name = 
REMARK  4 active torsions:
REMARK  status: ('A' for Active; 'I' for Inactive)
REMARK    1  A    between atoms: C_1  and  O_2
REMARK    2  A    between atoms: O_2  and  C_3
REMARK    3  A    between atoms: C_6  and  N_7
REMARK    4  A    between atoms: C_8  and  C_10
REMARK                            x       y       z     vdW  Elec       q    Type
REMARK                         _______ _______ _______ _____ _____    ______ ____
ROOT
ATOM      1  N   UNL     1       5.548   4.871  17.970  0.00  0.00    +0.000 N 
ATOM      2  C   UNL     1       4.703   4.222  17.008  0.00  0.00    +0.000 C 
ATOM      3  O   UNL     1       4.750   4.404  15.799  0.00  0.00    +0.000 OA
ATOM      4  H   UNL     1       5.405   4.524  18.917  0.00  0.00    +0.000 HD
ENDROOT
BRANCH   2   5
ATOM      5  C   UNL     1       3.620   3.306  17.773  0.00  0.00    +0.000 C 
ATOM      6  N   UNL     1       4.246   1.929  17.663  0.00  0.00    +0.000 NA
ATOM      7  C   UNL     1       4.093   1.076  18.843  0.00  0.00    +0.000 C 
ATOM      8  C   UNL     1       4.452   1.836  20.113  0.00  0.00    +0.000 C 
ATOM      9  C   UNL     1       3.293   2.763  20.278  0.00  0.00    +0.000 A 
ATOM     10  C   UNL     1       2.410   2.545  21.357  0.00  0.00    +0.000 A 
ATOM     11  C   UNL     1       1.190   3.193  21.403  0.00  0.00    +0.000 A 
ATOM     12  C   UNL     1       0.904   4.145  20.413  0.00  0.00    +0.000 A 
ATOM     13  C   UNL     1       1.792   4.358  19.328  0.00  0.00    +0.000 A 
ATOM     14  C   UNL     1       2.977   3.608  19.181  0.00  0.00    +0.000 A 
ATOM     15  H   UNL     1       5.254   2.102  17.597  0.00  0.00    +0.000 HD
ENDBRANCH   2   5
BRANCH   1  19
ATOM     16  C   UNL     1       8.114   8.346  18.091  0.00  0.00    +0.000 A 
ATOM     17  C   UNL     1       6.994   8.299  17.241  0.00  0.00    +0.000 A 
ATOM     18  C   UNL     1       6.148   7.158  17.151  0.00  0.00    +0.000 A 
ATOM     19  C   UNL     1       6.391   6.029  17.914  0.00  0.00    +0.000 A 
ATOM     20  C   UNL     1       7.538   6.079  18.761  0.00  0.00    +0.000 A 
ATOM     21  C   UNL     1       8.394   7.211  18.843  0.00  0.00    +0.000 A 
BRANCH  16  23
ATOM     22  C   UNL     1       9.236  10.152  19.245  0.00  0.00    +0.000 C 
ATOM     23  O   UNL     1       8.829   9.506  18.037  0.00  0.00    +0.000 OA
ENDBRANCH  16  23
ENDBRANCH   1  19
TORSDOF 3
ENDMDL
MODEL 7
REMARK VINA RESULT:      -7.4      2.489      3.725
REMARK  Name = 
REMARK  4 active torsions:
REMARK  status: ('A' for Active; 'I' for Inactive)
REMARK    1  A    between atoms: C_1  and  O_2
REMARK    2  A    between atoms: O_2  and  C_3
REMARK    3  A    between atoms: C_6  and  N_7
REMARK    4  A    between atoms: C_8  and  C_10
REMARK                            x       y       z     vdW  Elec       q    Type
REMARK                         _______ _______ _______ _____ _____    ______ ____
ROOT
ATOM      1  N   UNL     1       2.550   6.491  19.259  0.00  0.00    +0.000 N 
ATOM      2  C   UNL     1       2.630   5.299  20.054  0.00  0.00    +0.000 C 
ATOM      3  O   UNL     1       1.911   5.046  21.012  0.00  0.00    +0.000 OA
ATOM      4  H   UNL     1       3.182   6.475  18.460  0.00  0.00    +0.000 HD
ENDROOT
BRANCH   2   5
ATOM      5  C   UNL     1       3.875   4.404  19.560  0.00  0.00    +0.000 C 
ATOM      6  N   UNL     1       3.175   3.177  19.009  0.00  0.00    +0.000 NA
ATOM      7  C   UNL     1       3.770   2.607  17.799  0.00  0.00    +0.000 C 
ATOM      8  C   UNL     1       4.051   3.693  16.768  0.00  0.00    +0.000 C 
ATOM      9  C   UNL     1       5.224   4.406  17.356  0.00  0.00    +0.000 A 
ATOM     10  C   UNL     1       6.472   4.287  16.708  0.00  0.00    +0.000 A 
ATOM     11  C   UNL     1       7.630   4.695  17.343  0.00  0.00    +0.000 A 
ATOM     12  C   UNL     1       7.518   5.324  18.592  0.00  0.00    +0.000 A 
ATOM     13  C   UNL     1       6.262   5.437  19.242  0.00  0.00    +0.000 A 
ATOM     14  C   UNL     1       5.086   4.902  18.680  0.00  0.00    +0.000 A 
ATOM     15  H   UNL     1       2.253   3.510  18.712  0.00  0.00    +0.000 HD
ENDBRANCH   2   5
BRANCH   1  19
ATOM     16  C   UNL     1       0.882  10.453  19.704  0.00  0.00    +0.000 A 
ATOM     17  C   UNL     1       0.929   9.559  20.789  0.00  0.00    +0.000 A 
ATOM     18  C   UNL     1       1.439   8.235  20.669  0.00  0.00    +0.000 A 
ATOM     19  C   UNL     1       1.927   7.766  19.460  0.00  0.00    +0.000 A 
ATOM     20  C   UNL     1       1.859   8.675  18.362  0.00  0.00    +0.000 A 
ATOM     21  C   UNL     1       1.337   9.991  18.474  0.00  0.00    +0.000 A 
BRANCH  16  23
ATOM     22  C   UNL     1      -1.079  11.835  20.019  0.00  0.00    +0.000 C 
ATOM     23  O   UNL     1       0.341  11.673  19.986  0.00  0.00    +0.000 OA
ENDBRANCH  16  23
ENDBRANCH   1  19
TORSDOF 3
ENDMDL
MODEL 8
REMARK VINA RESULT:      -7.4      1.635      2.448
REMARK  Name = 
REMARK  4 active torsions:
REMARK  status: ('A' for Active; 'I' for Inactive)
REMARK    1  A    between atoms: C_1  and  O_2
REMARK    2  A    between atoms: O_2  and  C_3
REMARK    3  A    between atoms: C_6  and  N_7
REMARK    4  A    between atoms: C_8  and  C_10
REMARK                            x       y       z     vdW  Elec       q    Type
REMARK                         _______ _______ _______ _____ _____    ______ ____
ROOT
ATOM      1  N   UNL     1       2.100   7.840  19.566  0.00  0.00    +0.000 N 
ATOM      2  C   UNL     1       2.446   7.941  18.177  0.00  0.00    +0.000 C 
ATOM      3  O   UNL     1       2.254   8.926  17.476  0.00  0.00    +0.000 OA
ATOM      4  H   UNL     1       2.415   6.968  19.988  0.00  0.00    +0.000 HD
ENDROOT
BRANCH   2   5
ATOM      5  C   UNL     1       3.024   6.528  17.661  0.00  0.00    +0.000 C 
ATOM      6  N   UNL     1       4.483   6.861  17.414  0.00  0.00    +0.000 NA
ATOM      7  C   UNL     1       5.435   5.809  17.776  0.00  0.00    +0.000 C 
ATOM      8  C   UNL     1       5.137   5.261  19.164  0.00  0.00    +0.000 C 
ATOM      9  C   UNL     1       3.897   4.459  18.940  0.00  0.00    +0.000 A 
ATOM     10  C   UNL     1       3.981   3.054  19.043  0.00  0.00    +0.000 A 
ATOM     11  C   UNL     1       2.947   2.258  18.588  0.00  0.00    +0.000 A 
ATOM     12  C   UNL     1       1.778   2.883  18.127  0.00  0.00    +0.000 A 
ATOM     13  C   UNL     1       1.700   4.295  18.021  0.00  0.00    +0.000 A 
ATOM     14  C   UNL     1       2.793   5.125  18.344  0.00  0.00    +0.000 A 
ATOM     15  H   UNL     1       4.690   7.631  18.057  0.00  0.00    +0.000 HD
ENDBRANCH   2   5
BRANCH   1  19
ATOM     16  C   UNL     1      -0.425  10.376  21.988  0.00  0.00    +0.000 A 
ATOM     17  C   UNL     1       0.387   9.387  22.574  0.00  0.00    +0.000 A 
ATOM     18  C   UNL     1       1.204   8.512  21.804  0.00  0.00    +0.000 A 
ATOM     19  C   UNL     1       1.240   8.603  20.422  0.00  0.00    +0.000 A 
ATOM     20  C   UNL     1       0.401   9.597  19.837  0.00  0.00    +0.000 A 
ATOM     21  C   UNL     1      -0.427  10.463  20.601  0.00  0.00    +0.000 A 
BRANCH  16  23
ATOM     22  C   UNL     1      -1.083  12.538  22.851  0.00  0.00    +0.000 C 
ATOM     23  O   UNL     1      -1.162  11.111  22.869  0.00  0.00    +0.000 OA
ENDBRANCH  16  23
ENDBRANCH   1  19
TORSDOF 3
ENDMDL
MODEL 9
REMARK VINA RESULT:      -7.4      2.439      3.468
REMARK  Name = 
REMARK  4 active torsions:
REMARK  status: ('A' for Active; 'I' for Inactive)
REMARK    1  A    between atoms: C_1  and  O_2
REMARK    2  A    between atoms: O_2  and  C_3
REMARK    3  A    between atoms: C_6  and  N_7
REMARK    4  A    between atoms: C_8  and  C_10
REMARK                            x       y       z     vdW  Elec       q    Type
REMARK                         _______ _______ _______ _____ _____    ______ ____
ROOT
ATOM      1  N   UNL     1       2.582   6.565  19.249  0.00  0.00    +0.000 N 
ATOM      2  C   UNL     1       2.635   5.369  20.042  0.00  0.00    +0.000 C 
ATOM      3  O   UNL     1       1.909   5.130  20.997  0.00  0.00    +0.000 OA
ATOM      4  H   UNL     1       3.216   6.537  18.451  0.00  0.00    +0.000 HD
ENDROOT
BRANCH   2   5
ATOM      5  C   UNL     1       3.862   4.448  19.548  0.00  0.00    +0.000 C 
ATOM      6  N   UNL     1       3.136   3.237  18.994  0.00  0.00    +0.000 NA
ATOM      7  C   UNL     1       3.721   2.657  17.783  0.00  0.00    +0.000 C 
ATOM      8  C   UNL     1       4.025   3.738  16.755  0.00  0.00    +0.000 C 
ATOM      9  C   UNL     1       5.213   4.425  17.345  0.00  0.00    +0.000 A 
ATOM     10  C   UNL     1       6.459   4.281  16.699  0.00  0.00    +0.000 A 
ATOM     11  C   UNL     1       7.624   4.663  17.336  0.00  0.00    +0.000 A 
ATOM     12  C   UNL     1       7.524   5.292  18.586  0.00  0.00    +0.000 A 
ATOM     13  C   UNL     1       6.270   5.431  19.234  0.00  0.00    +0.000 A 
ATOM     14  C   UNL     1       5.084   4.922  18.669  0.00  0.00    +0.000 A 
ATOM     15  H   UNL     1       2.221   3.591  18.696  0.00  0.00    +0.000 HD
ENDBRANCH   2   5
BRANCH   1  19
ATOM     16  C   UNL     1       0.583  10.317  20.023  0.00  0.00    +0.000 A 
ATOM     17  C   UNL     1       1.096  10.017  18.748  0.00  0.00    +0.000 A 
ATOM     18  C   UNL     1       1.791   8.806  18.467  0.00  0.00    +0.000 A 
ATOM     19  C   UNL     1       1.987   7.853  19.452  0.00  0.00    +0.000 A 
ATOM     20  C   UNL     1       1.477   8.173  20.745  0.00  0.00    +0.000 A 
ATOM     21  C   UNL     1       0.797   9.387  21.033  0.00  0.00    +0.000 A 
BRANCH  16  23
ATOM     22  C   UNL     1      -0.151  12.168  21.398  0.00  0.00    +0.000 C 
ATOM     23  O   UNL     1      -0.033  11.529  20.124  0.00  0.00    +0.000 OA
ENDBRANCH  16  23
ENDBRANCH   1  19
TORSDOF 3
ENDMDL
