MODEL 1
REMARK VINA RESULT:      -8.1      0.000      0.000
REMARK  Name = 
REMARK  4 active torsions:
REMARK  status: ('A' for Active; 'I' for Inactive)
REMARK    1  A    between atoms: C_1  and  O_2
REMARK    2  A    between atoms: O_2  and  C_3
REMARK    3  A    between atoms: C_9  and  C_10
REMARK    4  A    between atoms: C_16  and  C_17
REMARK                            x       y       z     vdW  Elec       q    Type
REMARK                         _______ _______ _______ _____ _____    ______ ____
ROOT
ATOM      1  C   UNL     1       5.267   3.927  17.547  0.00  0.00    +0.000 C 
ATOM      2  C   UNL     1       4.270   4.651  18.097  0.00  0.00    +0.000 C 
ATOM      3  S   UNL     1       3.625   6.054  17.329  0.00  0.00    +0.000 S 
ATOM      4  C   UNL     1       2.764   6.859  18.643  0.00  0.00    +0.000 A 
ATOM      5  C   UNL     1       2.333   8.172  18.423  0.00  0.00    +0.000 A 
ATOM      6  C   UNL     1       1.568   8.846  19.376  0.00  0.00    +0.000 A 
ATOM      7  C   UNL     1       1.210   8.211  20.570  0.00  0.00    +0.000 A 
ATOM      8  C   UNL     1       1.668   6.903  20.805  0.00  0.00    +0.000 A 
ATOM      9  C   UNL     1       2.447   6.233  19.849  0.00  0.00    +0.000 A 
ATOM     10  N   UNL     1       2.874   4.935  20.137  0.00  0.00    +0.000 N 
ATOM     11  C   UNL     1       3.708   4.145  19.394  0.00  0.00    +0.000 C 
ATOM     12  O   UNL     1       3.990   3.028  19.832  0.00  0.00    +0.000 OA
ATOM     13  H   UNL     1       2.592   4.504  21.008  0.00  0.00    +0.000 HD
ENDROOT
BRANCH   1  20
ATOM     14  C   UNL     1       7.065   5.089  16.217  0.00  0.00    +0.000 A 
ATOM     15  C   UNL     1       7.660   5.365  14.980  0.00  0.00    +0.000 A 
ATOM     16  C   UNL     1       7.136   4.821  13.806  0.00  0.00    +0.000 A 
ATOM     17  C   UNL     1       6.022   3.990  13.864  0.00  0.00    +0.000 A 
ATOM     18 BR   UNL     1       5.312   3.266  12.270  0.00  0.00    +0.000 Br
ATOM     19  C   UNL     1       5.427   3.689  15.089  0.00  0.00    +0.000 A 
ATOM     20  C   UNL     1       5.946   4.234  16.273  0.00  0.00    +0.000 A 
BRANCH  14  22
ATOM     21  C   UNL     1       7.426   6.992  17.583  0.00  0.00    +0.000 C 
ATOM     22  O   UNL     1       7.530   5.583  17.411  0.00  0.00    +0.000 OA
ENDBRANCH  14  22
ENDBRANCH   1  20
BRANCH   7  23
ATOM     23  C   UNL     1       0.323   8.904  21.577  0.00  0.00    +0.000 C 
ATOM     24  F   UNL     1      -0.132  10.117  21.156  0.00  0.00    +0.000 F 
ATOM     25  F   UNL     1      -0.785   8.174  21.878  0.00  0.00    +0.000 F 
ATOM     26  F   UNL     1       0.957   9.132  22.760  0.00  0.00    +0.000 F 
ENDBRANCH   7  23
TORSDOF 3
ENDMDL
MODEL 2
REMARK VINA RESULT:      -8.0      3.223      4.840
REMARK  Name = 
REMARK  4 active torsions:
REMARK  status: ('A' for Active; 'I' for Inactive)
REMARK    1  A    between atoms: C_1  and  O_2
REMARK    2  A    between atoms: O_2  and  C_3
REMARK    3  A    between atoms: C_9  and  C_10
REMARK    4  A    between atoms: C_16  and  C_17
REMARK                            x       y       z     vdW  Elec       q    Type
REMARK                         _______ _______ _______ _____ _____    ______ ____
ROOT
ATOM      1  C   UNL     1       2.556   7.085  18.032  0.00  0.00    +0.000 C 
ATOM      2  C   UNL     1       2.062   7.986  18.907  0.00  0.00    +0.000 C 
ATOM      3  S   UNL     1       1.830   7.611  20.575  0.00  0.00    +0.000 S 
ATOM      4  C   UNL     1       0.743   8.892  21.116  0.00  0.00    +0.000 A 
ATOM      5  C   UNL     1       0.143   8.742  22.372  0.00  0.00    +0.000 A 
ATOM      6  C   UNL     1      -0.657   9.749  22.911  0.00  0.00    +0.000 A 
ATOM      7  C   UNL     1      -0.867  10.938  22.203  0.00  0.00    +0.000 A 
ATOM      8  C   UNL     1      -0.291  11.076  20.928  0.00  0.00    +0.000 A 
ATOM      9  C   UNL     1       0.504  10.055  20.385  0.00  0.00    +0.000 A 
ATOM     10  N   UNL     1       1.050  10.249  19.113  0.00  0.00    +0.000 N 
ATOM     11  C   UNL     1       1.770   9.357  18.369  0.00  0.00    +0.000 C 
ATOM     12  O   UNL     1       2.148   9.708  17.249  0.00  0.00    +0.000 OA
ATOM     13  H   UNL     1       0.882  11.123  18.631  0.00  0.00    +0.000 HD
ENDROOT
BRANCH   1  20
ATOM     14  C   UNL     1       4.273   5.294  18.471  0.00  0.00    +0.000 A 
ATOM     15  C   UNL     1       4.573   3.956  18.756  0.00  0.00    +0.000 A 
ATOM     16  C   UNL     1       3.549   3.016  18.897  0.00  0.00    +0.000 A 
ATOM     17  C   UNL     1       2.223   3.413  18.765  0.00  0.00    +0.000 A 
ATOM     18 BR   UNL     1       0.844   2.134  18.948  0.00  0.00    +0.000 Br
ATOM     19  C   UNL     1       1.905   4.743  18.500  0.00  0.00    +0.000 A 
ATOM     20  C   UNL     1       2.927   5.693  18.354  0.00  0.00    +0.000 A 
BRANCH  14  22
ATOM     21  C   UNL     1       6.139   6.094  17.248  0.00  0.00    +0.000 C 
ATOM     22  O   UNL     1       5.227   6.271  18.326  0.00  0.00    +0.000 OA
ENDBRANCH  14  22
ENDBRANCH   1  20
BRANCH   7  23
ATOM     23  C   UNL     1      -1.673  12.063  22.806  0.00  0.00    +0.000 C 
ATOM     24  F   UNL     1      -0.916  12.973  23.480  0.00  0.00    +0.000 F 
ATOM     25  F   UNL     1      -2.356  12.771  21.865  0.00  0.00    +0.000 F 
ATOM     26  F   UNL     1      -2.605  11.620  23.694  0.00  0.00    +0.000 F 
ENDBRANCH   7  23
TORSDOF 3
ENDMDL
MODEL 3
REMARK VINA RESULT:      -7.8      3.526      5.301
REMARK  Name = 
REMARK  4 active torsions:
REMARK  status: ('A' for Active; 'I' for Inactive)
REMARK    1  A    between atoms: C_1  and  O_2
REMARK    2  A    between atoms: O_2  and  C_3
REMARK    3  A    between atoms: C_9  and  C_10
REMARK    4  A    between atoms: C_16  and  C_17
REMARK                            x       y       z     vdW  Elec       q    Type
REMARK                         _______ _______ _______ _____ _____    ______ ____
ROOT
ATOM      1  C   UNL     1       2.456   7.266  18.426  0.00  0.00    +0.000 C 
ATOM      2  C   UNL     1       1.921   8.204  19.234  0.00  0.00    +0.000 C 
ATOM      3  S   UNL     1       1.785   7.974  20.939  0.00  0.00    +0.000 S 
ATOM      4  C   UNL     1       0.614   9.210  21.408  0.00  0.00    +0.000 A 
ATOM      5  C   UNL     1       0.078   9.133  22.698  0.00  0.00    +0.000 A 
ATOM      6  C   UNL     1      -0.784  10.121  23.177  0.00  0.00    +0.000 A 
ATOM      7  C   UNL     1      -1.120  11.215  22.372  0.00  0.00    +0.000 A 
ATOM      8  C   UNL     1      -0.606  11.276  21.065  0.00  0.00    +0.000 A 
ATOM      9  C   UNL     1       0.251  10.275  20.584  0.00  0.00    +0.000 A 
ATOM     10  N   UNL     1       0.731  10.388  19.276  0.00  0.00    +0.000 N 
ATOM     11  C   UNL     1       1.495   9.489  18.586  0.00  0.00    +0.000 C 
ATOM     12  O   UNL     1       1.799   9.761  17.422  0.00  0.00    +0.000 OA
ATOM     13  H   UNL     1       0.472  11.196  18.724  0.00  0.00    +0.000 HD
ENDROOT
BRANCH   1  20
ATOM     14  C   UNL     1       4.224   5.471  18.470  0.00  0.00    +0.000 A 
ATOM     15  C   UNL     1       4.642   4.202  18.890  0.00  0.00    +0.000 A 
ATOM     16  C   UNL     1       3.799   3.399  19.663  0.00  0.00    +0.000 A 
ATOM     17  C   UNL     1       2.542   3.867  20.029  0.00  0.00    +0.000 A 
ATOM     18 BR   UNL     1       1.405   2.771  21.067  0.00  0.00    +0.000 Br
ATOM     19  C   UNL     1       2.117   5.135  19.637  0.00  0.00    +0.000 A 
ATOM     20  C   UNL     1       2.955   5.946  18.858  0.00  0.00    +0.000 A 
BRANCH  14  22
ATOM     21  C   UNL     1       5.233   5.910  16.371  0.00  0.00    +0.000 C 
ATOM     22  O   UNL     1       5.001   6.315  17.715  0.00  0.00    +0.000 OA
ENDBRANCH  14  22
ENDBRANCH   1  20
BRANCH   7  23
ATOM     23  C   UNL     1      -1.994  12.325  22.904  0.00  0.00    +0.000 C 
ATOM     24  F   UNL     1      -2.976  11.890  23.742  0.00  0.00    +0.000 F 
ATOM     25  F   UNL     1      -1.285  13.248  23.609  0.00  0.00    +0.000 F 
ATOM     26  F   UNL     1      -2.626  13.012  21.913  0.00  0.00    +0.000 F 
ENDBRANCH   7  23
TORSDOF 3
ENDMDL
MODEL 4
REMARK VINA RESULT:      -7.7      0.930      1.092
REMARK  Name = 
REMARK  4 active torsions:
REMARK  status: ('A' for Active; 'I' for Inactive)
REMARK    1  A    between atoms: C_1  and  O_2
REMARK    2  A    between atoms: O_2  and  C_3
REMARK    3  A    between atoms: C_9  and  C_10
REMARK    4  A    between atoms: C_16  and  C_17
REMARK                            x       y       z     vdW  Elec       q    Type
REMARK                         _______ _______ _______ _____ _____    ______ ____
ROOT
ATOM      1  C   UNL     1       4.856   4.391  18.211  0.00  0.00    +0.000 C 
ATOM      2  C   UNL     1       3.861   5.215  18.600  0.00  0.00    +0.000 C 
ATOM      3  S   UNL     1       3.358   6.560  17.644  0.00  0.00    +0.000 S 
ATOM      4  C   UNL     1       2.441   7.536  18.793  0.00  0.00    +0.000 A 
ATOM      5  C   UNL     1       2.103   8.839  18.407  0.00  0.00    +0.000 A 
ATOM      6  C   UNL     1       1.303   9.644  19.220  0.00  0.00    +0.000 A 
ATOM      7  C   UNL     1       0.816   9.154  20.437  0.00  0.00    +0.000 A 
ATOM      8  C   UNL     1       1.182   7.857  20.839  0.00  0.00    +0.000 A 
ATOM      9  C   UNL     1       1.995   7.055  20.024  0.00  0.00    +0.000 A 
ATOM     10  N   UNL     1       2.326   5.775  20.475  0.00  0.00    +0.000 N 
ATOM     11  C   UNL     1       3.170   4.874  19.889  0.00  0.00    +0.000 C 
ATOM     12  O   UNL     1       3.354   3.797  20.458  0.00  0.00    +0.000 OA
ATOM     13  H   UNL     1       1.951   5.451  21.358  0.00  0.00    +0.000 HD
ENDROOT
BRANCH   1  20
ATOM     14  C   UNL     1       6.892   5.198  16.964  0.00  0.00    +0.000 A 
ATOM     15  C   UNL     1       7.597   5.322  15.761  0.00  0.00    +0.000 A 
ATOM     16  C   UNL     1       7.064   4.815  14.573  0.00  0.00    +0.000 A 
ATOM     17  C   UNL     1       5.830   4.173  14.586  0.00  0.00    +0.000 A 
ATOM     18 BR   UNL     1       5.112   3.498  12.974  0.00  0.00    +0.000 Br
ATOM     19  C   UNL     1       5.124   4.023  15.778  0.00  0.00    +0.000 A 
ATOM     20  C   UNL     1       5.651   4.531  16.975  0.00  0.00    +0.000 A 
BRANCH  14  22
ATOM     21  C   UNL     1       7.809   7.015  18.178  0.00  0.00    +0.000 C 
ATOM     22  O   UNL     1       7.358   5.665  18.168  0.00  0.00    +0.000 OA
ENDBRANCH  14  22
ENDBRANCH   1  20
BRANCH   7  23
ATOM     23  C   UNL     1      -0.107   9.989  21.290  0.00  0.00    +0.000 C 
ATOM     24  F   UNL     1       0.521  11.016  21.927  0.00  0.00    +0.000 F 
ATOM     25  F   UNL     1      -1.109  10.556  20.564  0.00  0.00    +0.000 F 
ATOM     26  F   UNL     1      -0.717   9.261  22.267  0.00  0.00    +0.000 F 
ENDBRANCH   7  23
TORSDOF 3
ENDMDL
MODEL 5
REMARK VINA RESULT:      -7.4      1.611      2.158
REMARK  Name = 
REMARK  4 active torsions:
REMARK  status: ('A' for Active; 'I' for Inactive)
REMARK    1  A    between atoms: C_1  and  O_2
REMARK    2  A    between atoms: O_2  and  C_3
REMARK    3  A    between atoms: C_9  and  C_10
REMARK    4  A    between atoms: C_16  and  C_17
REMARK                            x       y       z     vdW  Elec       q    Type
REMARK                         _______ _______ _______ _____ _____    ______ ____
ROOT
ATOM      1  C   UNL     1       4.301   4.696  19.109  0.00  0.00    +0.000 C 
ATOM      2  C   UNL     1       3.359   5.656  19.207  0.00  0.00    +0.000 C 
ATOM      3  S   UNL     1       3.181   6.890  18.015  0.00  0.00    +0.000 S 
ATOM      4  C   UNL     1       2.208   8.104  18.850  0.00  0.00    +0.000 A 
ATOM      5  C   UNL     1       2.093   9.363  18.249  0.00  0.00    +0.000 A 
ATOM      6  C   UNL     1       1.271  10.348  18.798  0.00  0.00    +0.000 A 
ATOM      7  C   UNL     1       0.537  10.087  19.960  0.00  0.00    +0.000 A 
ATOM      8  C   UNL     1       0.676   8.833  20.581  0.00  0.00    +0.000 A 
ATOM      9  C   UNL     1       1.513   7.850  20.032  0.00  0.00    +0.000 A 
ATOM     10  N   UNL     1       1.613   6.623  20.693  0.00  0.00    +0.000 N 
ATOM     11  C   UNL     1       2.430   5.572  20.384  0.00  0.00    +0.000 C 
ATOM     12  O   UNL     1       2.391   4.575  21.109  0.00  0.00    +0.000 OA
ATOM     13  H   UNL     1       1.063   6.466  21.528  0.00  0.00    +0.000 HD
ENDROOT
BRANCH   1  20
ATOM     14  C   UNL     1       6.673   4.778  18.263  0.00  0.00    +0.000 A 
ATOM     15  C   UNL     1       7.577   4.679  17.198  0.00  0.00    +0.000 A 
ATOM     16  C   UNL     1       7.119   4.414  15.905  0.00  0.00    +0.000 A 
ATOM     17  C   UNL     1       5.759   4.237  15.675  0.00  0.00    +0.000 A 
ATOM     18 BR   UNL     1       5.148   3.888  13.921  0.00  0.00    +0.000 Br
ATOM     19  C   UNL     1       4.847   4.313  16.726  0.00  0.00    +0.000 A 
ATOM     20  C   UNL     1       5.298   4.581  18.027  0.00  0.00    +0.000 A 
BRANCH  14  22
ATOM     21  C   UNL     1       8.228   5.814  19.722  0.00  0.00    +0.000 C 
ATOM     22  O   UNL     1       7.052   5.029  19.559  0.00  0.00    +0.000 OA
ENDBRANCH  14  22
ENDBRANCH   1  20
BRANCH   7  23
ATOM     23  C   UNL     1      -0.410  11.119  20.523  0.00  0.00    +0.000 C 
ATOM     24  F   UNL     1       0.138  12.362  20.624  0.00  0.00    +0.000 F 
ATOM     25  F   UNL     1      -1.528  11.266  19.759  0.00  0.00    +0.000 F 
ATOM     26  F   UNL     1      -0.848  10.800  21.772  0.00  0.00    +0.000 F 
ENDBRANCH   7  23
TORSDOF 3
ENDMDL
MODEL 6
REMARK VINA RESULT:      -7.3      6.141      9.771
REMARK  Name = 
REMARK  4 active torsions:
REMARK  status: ('A' for Active; 'I' for Inactive)
REMARK    1  A    between atoms: C_1  and  O_2
REMARK    2  A    between atoms: O_2  and  C_3
REMARK    3  A    between atoms: C_9  and  C_10
REMARK    4  A    between atoms: C_16  and  C_17
REMARK                            x       y       z     vdW  Elec       q    Type
REMARK                         _______ _______ _______ _____ _____    ______ ____
ROOT
ATOM      1  C   UNL     1      -0.970  11.577  22.554  0.00  0.00    +0.000 C 
ATOM      2  C   UNL     1      -0.099  10.813  21.863  0.00  0.00    +0.000 C 
ATOM      3  S   UNL     1       0.357  11.184  20.241  0.00  0.00    +0.000 S 
ATOM      4  C   UNL     1       1.065   9.668  19.677  0.00  0.00    +0.000 A 
ATOM      5  C   UNL     1       1.309   9.541  18.305  0.00  0.00    +0.000 A 
ATOM      6  C   UNL     1       1.949   8.412  17.791  0.00  0.00    +0.000 A 
ATOM      7  C   UNL     1       2.367   7.388  18.647  0.00  0.00    +0.000 A 
ATOM      8  C   UNL     1       2.094   7.501  20.021  0.00  0.00    +0.000 A 
ATOM      9  C   UNL     1       1.440   8.632  20.532  0.00  0.00    +0.000 A 
ATOM     10  N   UNL     1       1.196   8.689  21.907  0.00  0.00    +0.000 N 
ATOM     11  C   UNL     1       0.500   9.646  22.593  0.00  0.00    +0.000 C 
ATOM     12  O   UNL     1       0.370   9.506  23.810  0.00  0.00    +0.000 OA
ATOM     13  H   UNL     1       1.516   7.933  22.497  0.00  0.00    +0.000 HD
ENDROOT
BRANCH   1  20
ATOM     14  C   UNL     1      -1.083  14.059  22.134  0.00  0.00    +0.000 A 
ATOM     15  C   UNL     1      -1.785  15.167  21.645  0.00  0.00    +0.000 A 
ATOM     16  C   UNL     1      -3.058  15.010  21.091  0.00  0.00    +0.000 A 
ATOM     17  C   UNL     1      -3.627  13.744  21.012  0.00  0.00    +0.000 A 
ATOM     18 BR   UNL     1      -5.353  13.541  20.270  0.00  0.00    +0.000 Br
ATOM     19  C   UNL     1      -2.935  12.627  21.476  0.00  0.00    +0.000 A 
ATOM     20  C   UNL     1      -1.657  12.776  22.037  0.00  0.00    +0.000 A 
BRANCH  14  22
ATOM     21  C   UNL     1       1.186  14.679  21.844  0.00  0.00    +0.000 C 
ATOM     22  O   UNL     1       0.173  14.138  22.684  0.00  0.00    +0.000 OA
ENDBRANCH  14  22
ENDBRANCH   1  20
BRANCH   7  23
ATOM     23  C   UNL     1       3.123   6.196  18.112  0.00  0.00    +0.000 C 
ATOM     24  F   UNL     1       3.906   6.487  17.036  0.00  0.00    +0.000 F 
ATOM     25  F   UNL     1       3.955   5.651  19.042  0.00  0.00    +0.000 F 
ATOM     26  F   UNL     1       2.297   5.190  17.711  0.00  0.00    +0.000 F 
ENDBRANCH   7  23
TORSDOF 3
ENDMDL
MODEL 7
REMARK VINA RESULT:      -6.9      6.143     10.117
REMARK  Name = 
REMARK  4 active torsions:
REMARK  status: ('A' for Active; 'I' for Inactive)
REMARK    1  A    between atoms: C_1  and  O_2
REMARK    2  A    between atoms: O_2  and  C_3
REMARK    3  A    between atoms: C_9  and  C_10
REMARK    4  A    between atoms: C_16  and  C_17
REMARK                            x       y       z     vdW  Elec       q    Type
REMARK                         _______ _______ _______ _____ _____    ______ ____
ROOT
ATOM      1  C   UNL     1      -1.099  11.623  22.653  0.00  0.00    +0.000 C 
ATOM      2  C   UNL     1      -0.221  10.886  21.943  0.00  0.00    +0.000 C 
ATOM      3  S   UNL     1       0.193  11.273  20.313  0.00  0.00    +0.000 S 
ATOM      4  C   UNL     1       0.933   9.779  19.732  0.00  0.00    +0.000 A 
ATOM      5  C   UNL     1       1.153   9.662  18.355  0.00  0.00    +0.000 A 
ATOM      6  C   UNL     1       1.814   8.553  17.825  0.00  0.00    +0.000 A 
ATOM      7  C   UNL     1       2.278   7.539  18.670  0.00  0.00    +0.000 A 
ATOM      8  C   UNL     1       2.028   7.641  20.049  0.00  0.00    +0.000 A 
ATOM      9  C   UNL     1       1.353   8.752  20.576  0.00  0.00    +0.000 A 
ATOM     10  N   UNL     1       1.134   8.799  21.956  0.00  0.00    +0.000 N 
ATOM     11  C   UNL     1       0.425   9.734  22.657  0.00  0.00    +0.000 C 
ATOM     12  O   UNL     1       0.323   9.588  23.877  0.00  0.00    +0.000 OA
ATOM     13  H   UNL     1       1.487   8.050  22.538  0.00  0.00    +0.000 HD
ENDROOT
BRANCH   1  20
ATOM     14  C   UNL     1      -3.201  12.992  22.414  0.00  0.00    +0.000 A 
ATOM     15  C   UNL     1      -3.852  14.119  21.898  0.00  0.00    +0.000 A 
ATOM     16  C   UNL     1      -3.158  15.037  21.107  0.00  0.00    +0.000 A 
ATOM     17  C   UNL     1      -1.808  14.838  20.838  0.00  0.00    +0.000 A 
ATOM     18 BR   UNL     1      -0.878  16.080  19.759  0.00  0.00    +0.000 Br
ATOM     19  C   UNL     1      -1.138  13.732  21.359  0.00  0.00    +0.000 A 
ATOM     20  C   UNL     1      -1.829  12.804  22.153  0.00  0.00    +0.000 A 
BRANCH  14  22
ATOM     21  C   UNL     1      -4.256  12.506  24.480  0.00  0.00    +0.000 C 
ATOM     22  O   UNL     1      -3.818  12.053  23.204  0.00  0.00    +0.000 OA
ENDBRANCH  14  22
ENDBRANCH   1  20
BRANCH   7  23
ATOM     23  C   UNL     1       3.056   6.370  18.116  0.00  0.00    +0.000 C 
ATOM     24  F   UNL     1       3.879   6.704  17.084  0.00  0.00    +0.000 F 
ATOM     25  F   UNL     1       3.852   5.789  19.055  0.00  0.00    +0.000 F 
ATOM     26  F   UNL     1       2.248   5.381  17.644  0.00  0.00    +0.000 F 
ENDBRANCH   7  23
TORSDOF 3
ENDMDL
MODEL 8
REMARK VINA RESULT:      -6.6      2.445      3.531
REMARK  Name = 
REMARK  4 active torsions:
REMARK  status: ('A' for Active; 'I' for Inactive)
REMARK    1  A    between atoms: C_1  and  O_2
REMARK    2  A    between atoms: O_2  and  C_3
REMARK    3  A    between atoms: C_9  and  C_10
REMARK    4  A    between atoms: C_16  and  C_17
REMARK                            x       y       z     vdW  Elec       q    Type
REMARK                         _______ _______ _______ _____ _____    ______ ____
ROOT
ATOM      1  C   UNL     1       3.484   5.265  19.229  0.00  0.00    +0.000 C 
ATOM      2  C   UNL     1       2.567   6.193  19.573  0.00  0.00    +0.000 C 
ATOM      3  S   UNL     1       2.357   7.650  18.675  0.00  0.00    +0.000 S 
ATOM      4  C   UNL     1       1.450   8.672  19.793  0.00  0.00    +0.000 A 
ATOM      5  C   UNL     1       1.332  10.030  19.474  0.00  0.00    +0.000 A 
ATOM      6  C   UNL     1       0.557  10.887  20.258  0.00  0.00    +0.000 A 
ATOM      7  C   UNL     1      -0.126  10.395  21.375  0.00  0.00    +0.000 A 
ATOM      8  C   UNL     1       0.018   9.038  21.713  0.00  0.00    +0.000 A 
ATOM      9  C   UNL     1       0.808   8.183  20.929  0.00  0.00    +0.000 A 
ATOM     10  N   UNL     1       0.914   6.844  21.314  0.00  0.00    +0.000 N 
ATOM     11  C   UNL     1       1.694   5.873  20.753  0.00  0.00    +0.000 C 
ATOM     12  O   UNL     1       1.669   4.747  21.254  0.00  0.00    +0.000 OA
ATOM     13  H   UNL     1       0.402   6.522  22.126  0.00  0.00    +0.000 HD
ENDROOT
BRANCH   1  20
ATOM     14  C   UNL     1       4.341   4.512  16.983  0.00  0.00    +0.000 A 
ATOM     15  C   UNL     1       5.272   4.638  15.944  0.00  0.00    +0.000 A 
ATOM     16  C   UNL     1       6.295   5.587  16.023  0.00  0.00    +0.000 A 
ATOM     17  C   UNL     1       6.384   6.419  17.134  0.00  0.00    +0.000 A 
ATOM     18 BR   UNL     1       7.776   7.693  17.237  0.00  0.00    +0.000 Br
ATOM     19  C   UNL     1       5.454   6.321  18.168  0.00  0.00    +0.000 A 
ATOM     20  C   UNL     1       4.425   5.369  18.098  0.00  0.00    +0.000 A 
BRANCH  14  22
ATOM     21  C   UNL     1       3.566   2.359  17.599  0.00  0.00    +0.000 C 
ATOM     22  O   UNL     1       3.307   3.608  16.969  0.00  0.00    +0.000 OA
ENDBRANCH  14  22
ENDBRANCH   1  20
BRANCH   7  23
ATOM     23  C   UNL     1      -1.024  11.296  22.188  0.00  0.00    +0.000 C 
ATOM     24  F   UNL     1      -1.557  10.687  23.284  0.00  0.00    +0.000 F 
ATOM     25  F   UNL     1      -0.368  12.394  22.654  0.00  0.00    +0.000 F 
ATOM     26  F   UNL     1      -2.081  11.766  21.470  0.00  0.00    +0.000 F 
ENDBRANCH   7  23
TORSDOF 3
ENDMDL
MODEL 9
REMARK VINA RESULT:      -6.6      6.256     10.029
REMARK  Name = 
REMARK  4 active torsions:
REMARK  status: ('A' for Active; 'I' for Inactive)
REMARK    1  A    between atoms: C_1  and  O_2
REMARK    2  A    between atoms: O_2  and  C_3
REMARK    3  A    between atoms: C_9  and  C_10
REMARK    4  A    between atoms: C_16  and  C_17
REMARK                            x       y       z     vdW  Elec       q    Type
REMARK                         _______ _______ _______ _____ _____    ______ ____
ROOT
ATOM      1  C   UNL     1      -0.792  11.983  22.440  0.00  0.00    +0.000 C 
ATOM      2  C   UNL     1       0.015  11.113  21.797  0.00  0.00    +0.000 C 
ATOM      3  S   UNL     1       0.639  11.436  20.222  0.00  0.00    +0.000 S 
ATOM      4  C   UNL     1       1.171   9.844  19.677  0.00  0.00    +0.000 A 
ATOM      5  C   UNL     1       1.498   9.701  18.323  0.00  0.00    +0.000 A 
ATOM      6  C   UNL     1       2.012   8.500  17.832  0.00  0.00    +0.000 A 
ATOM      7  C   UNL     1       2.219   7.417  18.693  0.00  0.00    +0.000 A 
ATOM      8  C   UNL     1       1.861   7.550  20.045  0.00  0.00    +0.000 A 
ATOM      9  C   UNL     1       1.333   8.755  20.533  0.00  0.00    +0.000 A 
ATOM     10  N   UNL     1       0.996   8.829  21.887  0.00  0.00    +0.000 N 
ATOM     11  C   UNL     1       0.390   9.864  22.542  0.00  0.00    +0.000 C 
ATOM     12  O   UNL     1       0.150   9.729  23.743  0.00  0.00    +0.000 OA
ATOM     13  H   UNL     1       1.163   8.027  22.482  0.00  0.00    +0.000 HD
ENDROOT
BRANCH   1  20
ATOM     14  C   UNL     1      -2.591  13.448  21.459  0.00  0.00    +0.000 A 
ATOM     15  C   UNL     1      -2.984  14.686  20.936  0.00  0.00    +0.000 A 
ATOM     16  C   UNL     1      -2.065  15.732  20.826  0.00  0.00    +0.000 A 
ATOM     17  C   UNL     1      -0.753  15.548  21.250  0.00  0.00    +0.000 A 
ATOM     18 BR   UNL     1       0.487  16.965  21.090  0.00  0.00    +0.000 Br
ATOM     19  C   UNL     1      -0.348  14.329  21.791  0.00  0.00    +0.000 A 
ATOM     20  C   UNL     1      -1.265  13.272  21.902  0.00  0.00    +0.000 A 
BRANCH  14  22
ATOM     21  C   UNL     1      -4.831  12.688  21.602  0.00  0.00    +0.000 C 
ATOM     22  O   UNL     1      -3.441  12.380  21.602  0.00  0.00    +0.000 OA
ENDBRANCH  14  22
ENDBRANCH   1  20
BRANCH   7  23
ATOM     23  C   UNL     1       2.841   6.137  18.187  0.00  0.00    +0.000 C 
ATOM     24  F   UNL     1       3.488   5.428  19.153  0.00  0.00    +0.000 F 
ATOM     25  F   UNL     1       1.918   5.289  17.656  0.00  0.00    +0.000 F 
ATOM     26  F   UNL     1       3.759   6.356  17.205  0.00  0.00    +0.000 F 
ENDBRANCH   7  23
TORSDOF 3
ENDMDL
