MODEL 1
REMARK VINA RESULT:      -6.9      0.000      0.000
REMARK  Name = 
REMARK  4 active torsions:
REMARK  status: ('A' for Active; 'I' for Inactive)
REMARK    1  A    between atoms: C_5  and  C_6
REMARK    2  A    between atoms: C_6  and  S_7
REMARK    3  A    between atoms: S_7  and  C_8
REMARK    4  A    between atoms: C_8  and  C_9
REMARK                            x       y       z     vdW  Elec       q    Type
REMARK                         _______ _______ _______ _____ _____    ______ ____
ROOT
ATOM      1  C   UNL     1       6.391   6.242  17.846  0.00  0.00    +0.000 C 
ENDROOT
BRANCH   1   6
ATOM      2  N   UNL     1       6.308   3.474  13.499  0.00  0.00    +0.000 N 
ATOM      3  C   UNL     1       6.554   4.330  14.508  0.00  0.00    +0.000 A 
ATOM      4  N   UNL     1       7.540   5.197  14.524  0.00  0.00    +0.000 NA
ATOM      5  N   UNL     1       7.568   5.951  15.678  0.00  0.00    +0.000 NA
ATOM      6  C   UNL     1       6.605   5.612  16.512  0.00  0.00    +0.000 A 
ATOM      7  S   UNL     1       5.583   4.361  15.926  0.00  0.00    +0.000 S 
ATOM      8  H   UNL     1       7.064   3.341  12.835  0.00  0.00    +0.000 HD
ATOM      9  H   UNL     1       5.768   2.640  13.691  0.00  0.00    +0.000 HD
ENDBRANCH   1   6
BRANCH   1  10
ATOM     10  S   UNL     1       5.773   5.068  19.099  0.00  0.00    +0.000 S 
BRANCH  10  11
ATOM     11  C   UNL     1       4.134   5.799  19.447  0.00  0.00    +0.000 C 
BRANCH  11  12
ATOM     12  C   UNL     1       3.040   4.771  19.257  0.00  0.00    +0.000 A 
ATOM     13  C   UNL     1       2.604   4.436  17.964  0.00  0.00    +0.000 A 
ATOM     14  C   UNL     1       1.578   3.507  17.778  0.00  0.00    +0.000 A 
ATOM     15  C   UNL     1       0.984   2.912  18.884  0.00  0.00    +0.000 A 
ATOM     16  F   UNL     1      -0.003   2.024  18.705  0.00  0.00    +0.000 F 
ATOM     17  C   UNL     1       1.395   3.228  20.172  0.00  0.00    +0.000 A 
ATOM     18  C   UNL     1       2.422   4.159  20.360  0.00  0.00    +0.000 A 
ENDBRANCH  11  12
ENDBRANCH  10  11
ENDBRANCH   1  10
TORSDOF 4
ENDMDL
MODEL 2
REMARK VINA RESULT:      -6.8      0.979      1.549
REMARK  Name = 
REMARK  4 active torsions:
REMARK  status: ('A' for Active; 'I' for Inactive)
REMARK    1  A    between atoms: C_5  and  C_6
REMARK    2  A    between atoms: C_6  and  S_7
REMARK    3  A    between atoms: S_7  and  C_8
REMARK    4  A    between atoms: C_8  and  C_9
REMARK                            x       y       z     vdW  Elec       q    Type
REMARK                         _______ _______ _______ _____ _____    ______ ____
ROOT
ATOM      1  C   UNL     1       5.553   6.227  17.829  0.00  0.00    +0.000 C 
ENDROOT
BRANCH   1   6
ATOM      2  N   UNL     1       6.516   3.506  13.559  0.00  0.00    +0.000 N 
ATOM      3  C   UNL     1       6.510   4.353  14.604  0.00  0.00    +0.000 A 
ATOM      4  N   UNL     1       7.456   5.228  14.858  0.00  0.00    +0.000 NA
ATOM      5  N   UNL     1       7.206   5.969  15.994  0.00  0.00    +0.000 NA
ATOM      6  C   UNL     1       6.079   5.614  16.576  0.00  0.00    +0.000 A 
ATOM      7  S   UNL     1       5.235   4.362  15.757  0.00  0.00    +0.000 S 
ATOM      8  H   UNL     1       7.408   3.387  13.089  0.00  0.00    +0.000 HD
ATOM      9  H   UNL     1       5.955   2.666  13.612  0.00  0.00    +0.000 HD
ENDBRANCH   1   6
BRANCH   1  10
ATOM     10  S   UNL     1       3.947   7.063  17.596  0.00  0.00    +0.000 S 
BRANCH  10  11
ATOM     11  C   UNL     1       3.145   6.674  19.192  0.00  0.00    +0.000 C 
BRANCH  11  12
ATOM     12  C   UNL     1       2.348   5.392  19.090  0.00  0.00    +0.000 A 
ATOM     13  C   UNL     1       1.791   4.814  20.244  0.00  0.00    +0.000 A 
ATOM     14  C   UNL     1       1.075   3.618  20.165  0.00  0.00    +0.000 A 
ATOM     15  C   UNL     1       0.915   2.996  18.934  0.00  0.00    +0.000 A 
ATOM     16  F   UNL     1       0.231   1.846  18.859  0.00  0.00    +0.000 F 
ATOM     17  C   UNL     1       1.457   3.545  17.779  0.00  0.00    +0.000 A 
ATOM     18  C   UNL     1       2.176   4.743  17.856  0.00  0.00    +0.000 A 
ENDBRANCH  11  12
ENDBRANCH  10  11
ENDBRANCH   1  10
TORSDOF 4
ENDMDL
MODEL 3
REMARK VINA RESULT:      -6.6      0.716      1.326
REMARK  Name = 
REMARK  4 active torsions:
REMARK  status: ('A' for Active; 'I' for Inactive)
REMARK    1  A    between atoms: C_5  and  C_6
REMARK    2  A    between atoms: C_6  and  S_7
REMARK    3  A    between atoms: S_7  and  C_8
REMARK    4  A    between atoms: C_8  and  C_9
REMARK                            x       y       z     vdW  Elec       q    Type
REMARK                         _______ _______ _______ _____ _____    ______ ____
ROOT
ATOM      1  C   UNL     1       6.851   5.739  17.246  0.00  0.00    +0.000 C 
ENDROOT
BRANCH   1   6
ATOM      2  N   UNL     1       6.085   3.210  12.821  0.00  0.00    +0.000 N 
ATOM      3  C   UNL     1       6.468   4.029  13.817  0.00  0.00    +0.000 A 
ATOM      4  N   UNL     1       7.367   4.979  13.696  0.00  0.00    +0.000 NA
ATOM      5  N   UNL     1       7.575   5.669  14.871  0.00  0.00    +0.000 NA
ATOM      6  C   UNL     1       6.834   5.203  15.855  0.00  0.00    +0.000 A 
ATOM      7  S   UNL     1       5.810   3.899  15.400  0.00  0.00    +0.000 S 
ATOM      8  H   UNL     1       6.696   3.180  12.011  0.00  0.00    +0.000 HD
ATOM      9  H   UNL     1       5.662   2.322  13.059  0.00  0.00    +0.000 HD
ENDBRANCH   1   6
BRANCH   1  10
ATOM     10  S   UNL     1       6.056   4.624  18.452  0.00  0.00    +0.000 S 
BRANCH  10  11
ATOM     11  C   UNL     1       4.578   5.611  18.881  0.00  0.00    +0.000 C 
BRANCH  11  12
ATOM     12  C   UNL     1       3.344   4.737  18.911  0.00  0.00    +0.000 A 
ATOM     13  C   UNL     1       2.447   4.820  19.991  0.00  0.00    +0.000 A 
ATOM     14  C   UNL     1       1.318   4.000  20.041  0.00  0.00    +0.000 A 
ATOM     15  C   UNL     1       1.084   3.094  19.015  0.00  0.00    +0.000 A 
ATOM     16  F   UNL     1       0.002   2.305  19.066  0.00  0.00    +0.000 F 
ATOM     17  C   UNL     1       1.955   2.991  17.939  0.00  0.00    +0.000 A 
ATOM     18  C   UNL     1       3.088   3.811  17.887  0.00  0.00    +0.000 A 
ENDBRANCH  11  12
ENDBRANCH  10  11
ENDBRANCH   1  10
TORSDOF 4
ENDMDL
MODEL 4
REMARK VINA RESULT:      -6.5      1.379      1.689
REMARK  Name = 
REMARK  4 active torsions:
REMARK  status: ('A' for Active; 'I' for Inactive)
REMARK    1  A    between atoms: C_5  and  C_6
REMARK    2  A    between atoms: C_6  and  S_7
REMARK    3  A    between atoms: S_7  and  C_8
REMARK    4  A    between atoms: C_8  and  C_9
REMARK                            x       y       z     vdW  Elec       q    Type
REMARK                         _______ _______ _______ _____ _____    ______ ____
ROOT
ATOM      1  C   UNL     1       5.579   5.502  18.022  0.00  0.00    +0.000 C 
ENDROOT
BRANCH   1   6
ATOM      2  N   UNL     1       6.613   3.652  13.324  0.00  0.00    +0.000 N 
ATOM      3  C   UNL     1       6.550   4.327  14.486  0.00  0.00    +0.000 A 
ATOM      4  N   UNL     1       7.332   5.332  14.806  0.00  0.00    +0.000 NA
ATOM      5  N   UNL     1       7.060   5.842  16.058  0.00  0.00    +0.000 NA
ATOM      6  C   UNL     1       6.086   5.188  16.656  0.00  0.00    +0.000 A 
ATOM      7  S   UNL     1       5.418   3.916  15.712  0.00  0.00    +0.000 S 
ATOM      8  H   UNL     1       7.460   3.783  12.780  0.00  0.00    +0.000 HD
ATOM      9  H   UNL     1       6.231   2.716  13.285  0.00  0.00    +0.000 HD
ENDBRANCH   1   6
BRANCH   1  10
ATOM     10  S   UNL     1       4.083   6.546  18.008  0.00  0.00    +0.000 S 
BRANCH  10  11
ATOM     11  C   UNL     1       2.818   5.295  17.588  0.00  0.00    +0.000 C 
BRANCH  11  12
ATOM     12  C   UNL     1       2.373   4.550  18.828  0.00  0.00    +0.000 A 
ATOM     13  C   UNL     1       1.720   3.311  18.710  0.00  0.00    +0.000 A 
ATOM     14  C   UNL     1       1.283   2.626  19.846  0.00  0.00    +0.000 A 
ATOM     15  C   UNL     1       1.495   3.180  21.102  0.00  0.00    +0.000 A 
ATOM     16  F   UNL     1       1.072   2.525  22.192  0.00  0.00    +0.000 F 
ATOM     17  C   UNL     1       2.135   4.404  21.246  0.00  0.00    +0.000 A 
ATOM     18  C   UNL     1       2.574   5.091  20.109  0.00  0.00    +0.000 A 
ENDBRANCH  11  12
ENDBRANCH  10  11
ENDBRANCH   1  10
TORSDOF 4
ENDMDL
MODEL 5
REMARK VINA RESULT:      -6.5      1.973      3.104
REMARK  Name = 
REMARK  4 active torsions:
REMARK  status: ('A' for Active; 'I' for Inactive)
REMARK    1  A    between atoms: C_5  and  C_6
REMARK    2  A    between atoms: C_6  and  S_7
REMARK    3  A    between atoms: S_7  and  C_8
REMARK    4  A    between atoms: C_8  and  C_9
REMARK                            x       y       z     vdW  Elec       q    Type
REMARK                         _______ _______ _______ _____ _____    ______ ____
ROOT
ATOM      1  C   UNL     1       5.507   4.639  15.678  0.00  0.00    +0.000 C 
ENDROOT
BRANCH   1   6
ATOM      2  N   UNL     1       8.485   7.224  18.996  0.00  0.00    +0.000 N 
ATOM      3  C   UNL     1       7.656   6.812  18.019  0.00  0.00    +0.000 A 
ATOM      4  N   UNL     1       7.039   7.612  17.181  0.00  0.00    +0.000 NA
ATOM      5  N   UNL     1       6.245   6.932  16.282  0.00  0.00    +0.000 NA
ATOM      6  C   UNL     1       6.274   5.631  16.484  0.00  0.00    +0.000 A 
ATOM      7  S   UNL     1       7.298   5.148  17.777  0.00  0.00    +0.000 S 
ATOM      8  H   UNL     1       8.436   8.210  19.233  0.00  0.00    +0.000 HD
ATOM      9  H   UNL     1       8.648   6.612  19.784  0.00  0.00    +0.000 HD
ENDBRANCH   1   6
BRANCH   1  10
ATOM     10  S   UNL     1       4.388   3.610  16.687  0.00  0.00    +0.000 S 
BRANCH  10  11
ATOM     11  C   UNL     1       3.560   4.906  17.677  0.00  0.00    +0.000 C 
BRANCH  11  12
ATOM     12  C   UNL     1       2.814   4.293  18.841  0.00  0.00    +0.000 A 
ATOM     13  C   UNL     1       2.838   4.914  20.101  0.00  0.00    +0.000 A 
ATOM     14  C   UNL     1       2.173   4.344  21.188  0.00  0.00    +0.000 A 
ATOM     15  C   UNL     1       1.485   3.149  21.019  0.00  0.00    +0.000 A 
ATOM     16  F   UNL     1       0.850   2.600  22.064  0.00  0.00    +0.000 F 
ATOM     17  C   UNL     1       1.448   2.513  19.785  0.00  0.00    +0.000 A 
ATOM     18  C   UNL     1       2.114   3.083  18.695  0.00  0.00    +0.000 A 
ENDBRANCH  11  12
ENDBRANCH  10  11
ENDBRANCH   1  10
TORSDOF 4
ENDMDL
MODEL 6
REMARK VINA RESULT:      -6.5      1.463      1.629
REMARK  Name = 
REMARK  4 active torsions:
REMARK  status: ('A' for Active; 'I' for Inactive)
REMARK    1  A    between atoms: C_5  and  C_6
REMARK    2  A    between atoms: C_6  and  S_7
REMARK    3  A    between atoms: S_7  and  C_8
REMARK    4  A    between atoms: C_8  and  C_9
REMARK                            x       y       z     vdW  Elec       q    Type
REMARK                         _______ _______ _______ _____ _____    ______ ____
ROOT
ATOM      1  C   UNL     1       6.884   5.764  17.155  0.00  0.00    +0.000 C 
ENDROOT
BRANCH   1   6
ATOM      2  N   UNL     1       5.909   3.189  12.798  0.00  0.00    +0.000 N 
ATOM      3  C   UNL     1       6.359   4.001  13.772  0.00  0.00    +0.000 A 
ATOM      4  N   UNL     1       7.335   4.867  13.628  0.00  0.00    +0.000 NA
ATOM      5  N   UNL     1       7.600   5.569  14.785  0.00  0.00    +0.000 NA
ATOM      6  C   UNL     1       6.822   5.194  15.779  0.00  0.00    +0.000 A 
ATOM      7  S   UNL     1       5.692   3.969  15.356  0.00  0.00    +0.000 S 
ATOM      8  H   UNL     1       6.516   3.087  11.991  0.00  0.00    +0.000 HD
ATOM      9  H   UNL     1       5.412   2.348  13.058  0.00  0.00    +0.000 HD
ENDBRANCH   1   6
BRANCH   1  10
ATOM     10  S   UNL     1       6.045   4.725  18.398  0.00  0.00    +0.000 S 
BRANCH  10  11
ATOM     11  C   UNL     1       4.416   5.553  18.466  0.00  0.00    +0.000 C 
BRANCH  11  12
ATOM     12  C   UNL     1       3.465   4.785  19.358  0.00  0.00    +0.000 A 
ATOM     13  C   UNL     1       3.794   3.489  19.791  0.00  0.00    +0.000 A 
ATOM     14  C   UNL     1       2.913   2.762  20.594  0.00  0.00    +0.000 A 
ATOM     15  C   UNL     1       1.698   3.326  20.962  0.00  0.00    +0.000 A 
ATOM     16  F   UNL     1       0.851   2.627  21.728  0.00  0.00    +0.000 F 
ATOM     17  C   UNL     1       1.347   4.604  20.544  0.00  0.00    +0.000 A 
ATOM     18  C   UNL     1       2.229   5.334  19.740  0.00  0.00    +0.000 A 
ENDBRANCH  11  12
ENDBRANCH  10  11
ENDBRANCH   1  10
TORSDOF 4
ENDMDL
MODEL 7
REMARK VINA RESULT:      -6.5      1.711      2.021
REMARK  Name = 
REMARK  4 active torsions:
REMARK  status: ('A' for Active; 'I' for Inactive)
REMARK    1  A    between atoms: C_5  and  C_6
REMARK    2  A    between atoms: C_6  and  S_7
REMARK    3  A    between atoms: S_7  and  C_8
REMARK    4  A    between atoms: C_8  and  C_9
REMARK                            x       y       z     vdW  Elec       q    Type
REMARK                         _______ _______ _______ _____ _____    ______ ____
ROOT
ATOM      1  C   UNL     1       6.840   5.896  16.571  0.00  0.00    +0.000 C 
ENDROOT
BRANCH   1   6
ATOM      2  N   UNL     1       6.015   2.997  12.391  0.00  0.00    +0.000 N 
ATOM      3  C   UNL     1       6.436   3.875  13.318  0.00  0.00    +0.000 A 
ATOM      4  N   UNL     1       7.440   4.707  13.155  0.00  0.00    +0.000 NA
ATOM      5  N   UNL     1       7.666   5.494  14.263  0.00  0.00    +0.000 NA
ATOM      6  C   UNL     1       6.831   5.218  15.244  0.00  0.00    +0.000 A 
ATOM      7  S   UNL     1       5.693   3.987  14.864  0.00  0.00    +0.000 S 
ATOM      8  H   UNL     1       6.657   2.817  11.626  0.00  0.00    +0.000 HD
ATOM      9  H   UNL     1       5.485   2.190  12.692  0.00  0.00    +0.000 HD
ENDBRANCH   1   6
BRANCH   1  10
ATOM     10  S   UNL     1       7.392   4.807  17.927  0.00  0.00    +0.000 S 
BRANCH  10  11
ATOM     11  C   UNL     1       6.187   5.267  19.223  0.00  0.00    +0.000 C 
BRANCH  11  12
ATOM     12  C   UNL     1       4.772   5.039  18.740  0.00  0.00    +0.000 A 
ATOM     13  C   UNL     1       4.362   3.756  18.338  0.00  0.00    +0.000 A 
ATOM     14  C   UNL     1       3.065   3.539  17.868  0.00  0.00    +0.000 A 
ATOM     15  C   UNL     1       2.176   4.604  17.795  0.00  0.00    +0.000 A 
ATOM     16  F   UNL     1       0.933   4.396  17.340  0.00  0.00    +0.000 F 
ATOM     17  C   UNL     1       2.557   5.881  18.184  0.00  0.00    +0.000 A 
ATOM     18  C   UNL     1       3.856   6.101  18.655  0.00  0.00    +0.000 A 
ENDBRANCH  11  12
ENDBRANCH  10  11
ENDBRANCH   1  10
TORSDOF 4
ENDMDL
MODEL 8
REMARK VINA RESULT:      -6.5      1.125      1.289
REMARK  Name = 
REMARK  4 active torsions:
REMARK  status: ('A' for Active; 'I' for Inactive)
REMARK    1  A    between atoms: C_5  and  C_6
REMARK    2  A    between atoms: C_6  and  S_7
REMARK    3  A    between atoms: S_7  and  C_8
REMARK    4  A    between atoms: C_8  and  C_9
REMARK                            x       y       z     vdW  Elec       q    Type
REMARK                         _______ _______ _______ _____ _____    ______ ____
ROOT
ATOM      1  C   UNL     1       6.759   4.773  17.736  0.00  0.00    +0.000 C 
ENDROOT
BRANCH   1   6
ATOM      2  N   UNL     1       6.298   3.795  12.697  0.00  0.00    +0.000 N 
ATOM      3  C   UNL     1       6.597   4.260  13.923  0.00  0.00    +0.000 A 
ATOM      4  N   UNL     1       7.446   5.233  14.163  0.00  0.00    +0.000 NA
ATOM      5  N   UNL     1       7.572   5.510  15.508  0.00  0.00    +0.000 NA
ATOM      6  C   UNL     1       6.822   4.719  16.248  0.00  0.00    +0.000 A 
ATOM      7  S   UNL     1       5.890   3.594  15.342  0.00  0.00    +0.000 S 
ATOM      8  H   UNL     1       6.938   4.056  11.955  0.00  0.00    +0.000 HD
ATOM      9  H   UNL     1       5.915   2.862  12.612  0.00  0.00    +0.000 HD
ENDBRANCH   1   6
BRANCH   1  10
ATOM     10  S   UNL     1       5.895   6.253  18.362  0.00  0.00    +0.000 S 
BRANCH  10  11
ATOM     11  C   UNL     1       4.311   6.109  17.461  0.00  0.00    +0.000 C 
BRANCH  11  12
ATOM     12  C   UNL     1       3.303   5.327  18.275  0.00  0.00    +0.000 A 
ATOM     13  C   UNL     1       2.488   4.365  17.654  0.00  0.00    +0.000 A 
ATOM     14  C   UNL     1       1.538   3.655  18.390  0.00  0.00    +0.000 A 
ATOM     15  C   UNL     1       1.397   3.908  19.749  0.00  0.00    +0.000 A 
ATOM     16  F   UNL     1       0.483   3.229  20.455  0.00  0.00    +0.000 F 
ATOM     17  C   UNL     1       2.188   4.855  20.386  0.00  0.00    +0.000 A 
ATOM     18  C   UNL     1       3.141   5.567  19.649  0.00  0.00    +0.000 A 
ENDBRANCH  11  12
ENDBRANCH  10  11
ENDBRANCH   1  10
TORSDOF 4
ENDMDL
MODEL 9
REMARK VINA RESULT:      -6.5      1.914      2.677
REMARK  Name = 
REMARK  4 active torsions:
REMARK  status: ('A' for Active; 'I' for Inactive)
REMARK    1  A    between atoms: C_5  and  C_6
REMARK    2  A    between atoms: C_6  and  S_7
REMARK    3  A    between atoms: S_7  and  C_8
REMARK    4  A    between atoms: C_8  and  C_9
REMARK                            x       y       z     vdW  Elec       q    Type
REMARK                         _______ _______ _______ _____ _____    ______ ____
ROOT
ATOM      1  C   UNL     1       4.230   7.145  16.770  0.00  0.00    +0.000 C 
ENDROOT
BRANCH   1   6
ATOM      2  N   UNL     1       8.281   4.157  17.874  0.00  0.00    +0.000 N 
ATOM      3  C   UNL     1       7.336   4.937  17.318  0.00  0.00    +0.000 A 
ATOM      4  N   UNL     1       7.345   5.342  16.069  0.00  0.00    +0.000 NA
ATOM      5  N   UNL     1       6.261   6.135  15.758  0.00  0.00    +0.000 NA
ATOM      6  C   UNL     1       5.472   6.321  16.796  0.00  0.00    +0.000 A 
ATOM      7  S   UNL     1       5.993   5.514  18.222  0.00  0.00    +0.000 S 
ATOM      8  H   UNL     1       9.153   4.081  17.359  0.00  0.00    +0.000 HD
ATOM      9  H   UNL     1       8.388   4.165  18.879  0.00  0.00    +0.000 HD
ENDBRANCH   1   6
BRANCH   1  10
ATOM     10  S   UNL     1       3.199   6.933  18.261  0.00  0.00    +0.000 S 
BRANCH  10  11
ATOM     11  C   UNL     1       2.223   5.466  17.775  0.00  0.00    +0.000 C 
BRANCH  11  12
ATOM     12  C   UNL     1       1.929   4.599  18.980  0.00  0.00    +0.000 A 
ATOM     13  C   UNL     1       2.372   4.989  20.255  0.00  0.00    +0.000 A 
ATOM     14  C   UNL     1       2.128   4.184  21.370  0.00  0.00    +0.000 A 
ATOM     15  C   UNL     1       1.443   2.986  21.212  0.00  0.00    +0.000 A 
ATOM     16  F   UNL     1       1.212   2.212  22.282  0.00  0.00    +0.000 F 
ATOM     17  C   UNL     1       0.996   2.577  19.963  0.00  0.00    +0.000 A 
ATOM     18  C   UNL     1       1.240   3.382  18.844  0.00  0.00    +0.000 A 
ENDBRANCH  11  12
ENDBRANCH  10  11
ENDBRANCH   1  10
TORSDOF 4
ENDMDL
