MODEL 1
REMARK VINA RESULT:      -6.6      0.000      0.000
REMARK  Name = 
REMARK  11 active torsions:
REMARK  status: ('A' for Active; 'I' for Inactive)
REMARK    1  A    between atoms: C_1  and  C_2
REMARK    2  A    between atoms: C_4  and  C_5
REMARK    3  A    between atoms: C_8  and  N_9
REMARK    4  A    between atoms: C_14  and  C_15
REMARK    5  A    between atoms: C_15  and  C_17
REMARK    6  A    between atoms: C_17  and  C_18
REMARK    7  A    between atoms: C_18  and  C_19
REMARK    8  A    between atoms: C_18  and  C_20
REMARK    9  A    between atoms: C_21  and  C_22
REMARK   10  A    between atoms: C_27  and  O_28
REMARK   11  A    between atoms: O_28  and  C_29
REMARK                            x       y       z     vdW  Elec       q    Type
REMARK                         _______ _______ _______ _____ _____    ______ ____
ROOT
ATOM      1  N   UNL     1       1.165  12.199  19.674  0.00  0.00    +0.000 N 
ATOM      2  C   UNL     1       1.928  13.030  20.455  0.00  0.00    +0.000 C 
ATOM      3  O   UNL     1       2.732  12.757  21.328  0.00  0.00    +0.000 OA
ATOM      4  C   UNL     1       1.624  14.442  20.003  0.00  0.00    +0.000 C 
ATOM      5  O   UNL     1       2.198  15.420  20.445  0.00  0.00    +0.000 OA
ATOM      6  C   UNL     1       0.609  14.431  18.893  0.00  0.00    +0.000 C 
ATOM      7  C   UNL     1       0.325  12.901  18.702  0.00  0.00    +0.000 C 
ENDROOT
BRANCH   1  11
ATOM      8  C   UNL     1       1.713   8.032  20.005  0.00  0.00    +0.000 A 
ATOM      9  C   UNL     1       1.911   8.697  18.787  0.00  0.00    +0.000 A 
ATOM     10  C   UNL     1       1.663  10.066  18.670  0.00  0.00    +0.000 A 
ATOM     11  C   UNL     1       1.232  10.798  19.776  0.00  0.00    +0.000 A 
ATOM     12  C   UNL     1       0.961  10.142  20.980  0.00  0.00    +0.000 A 
ATOM     13  C   UNL     1       1.213   8.764  21.094  0.00  0.00    +0.000 A 
BRANCH   8  17
ATOM     14  C   UNL     1       1.555   3.248  21.169  0.00  0.00    +0.000 C 
ATOM     15  C   UNL     1       1.891   4.589  20.658  0.00  0.00    +0.000 A 
ATOM     16  N   UNL     1       1.273   5.732  20.836  0.00  0.00    +0.000 NA
ATOM     17  C   UNL     1       2.054   6.615  20.116  0.00  0.00    +0.000 A 
ATOM     18  N   UNL     1       3.108   6.038  19.516  0.00  0.00    +0.000 NA
ATOM     19  O   UNL     1       3.002   4.694  19.878  0.00  0.00    +0.000 OA
ENDBRANCH   8  17
ENDBRANCH   1  11
BRANCH   7  20
ATOM     20  C   UNL     1      -1.105  12.373  18.681  0.00  0.00    +0.000 A 
ATOM     21  C   UNL     1      -1.703  12.091  17.433  0.00  0.00    +0.000 A 
ATOM     22  C   UNL     1      -3.013  11.637  17.300  0.00  0.00    +0.000 A 
ATOM     23  C   UNL     1      -3.819  11.543  18.417  0.00  0.00    +0.000 A 
ATOM     24  C   UNL     1      -3.301  11.907  19.655  0.00  0.00    +0.000 A 
ATOM     25  C   UNL     1      -1.959  12.308  19.808  0.00  0.00    +0.000 A 
BRANCH  25  26
ATOM     26  O   UNL     1      -1.751  12.847  21.049  0.00  0.00    +0.000 OA
BRANCH  26  27
ATOM     27  C   UNL     1      -1.773  12.051  22.217  0.00  0.00    +0.000 C 
ATOM     28  F   UNL     1      -0.686  12.377  22.958  0.00  0.00    +0.000 F 
ATOM     29  F   UNL     1      -2.865  12.310  22.974  0.00  0.00    +0.000 F 
ENDBRANCH  26  27
ENDBRANCH  25  26
ENDBRANCH   7  20
BRANCH   6  30
ATOM     30  C   UNL     1      -0.511  15.426  19.176  0.00  0.00    +0.000 C 
ATOM     31  O   UNL     1      -1.201  15.353  20.196  0.00  0.00    +0.000 OA
BRANCH  30  32
ATOM     32  C   UNL     1      -0.738  16.554  18.184  0.00  0.00    +0.000 C 
BRANCH  32  33
ATOM     33  C   UNL     1       0.500  17.459  18.067  0.00  0.00    +0.000 C 
ATOM     34  C   UNL     1       0.469  18.287  16.782  0.00  0.00    +0.000 C 
ATOM     35  C   UNL     1       0.614  18.385  19.279  0.00  0.00    +0.000 C 
ENDBRANCH  32  33
ENDBRANCH  30  32
ENDBRANCH   6  30
TORSDOF 8
ENDMDL
MODEL 2
REMARK VINA RESULT:      -6.5      4.783     10.124
REMARK  Name = 
REMARK  11 active torsions:
REMARK  status: ('A' for Active; 'I' for Inactive)
REMARK    1  A    between atoms: C_1  and  C_2
REMARK    2  A    between atoms: C_4  and  C_5
REMARK    3  A    between atoms: C_8  and  N_9
REMARK    4  A    between atoms: C_14  and  C_15
REMARK    5  A    between atoms: C_15  and  C_17
REMARK    6  A    between atoms: C_17  and  C_18
REMARK    7  A    between atoms: C_18  and  C_19
REMARK    8  A    between atoms: C_18  and  C_20
REMARK    9  A    between atoms: C_21  and  C_22
REMARK   10  A    between atoms: C_27  and  O_28
REMARK   11  A    between atoms: O_28  and  C_29
REMARK                            x       y       z     vdW  Elec       q    Type
REMARK                         _______ _______ _______ _____ _____    ______ ____
ROOT
ATOM      1  N   UNL     1       2.885   5.584  17.836  0.00  0.00    +0.000 N 
ATOM      2  C   UNL     1       2.134   4.436  17.806  0.00  0.00    +0.000 C 
ATOM      3  O   UNL     1       1.120   4.152  18.418  0.00  0.00    +0.000 OA
ATOM      4  C   UNL     1       2.785   3.525  16.788  0.00  0.00    +0.000 C 
ATOM      5  O   UNL     1       2.318   2.450  16.462  0.00  0.00    +0.000 OA
ATOM      6  C   UNL     1       4.001   4.184  16.196  0.00  0.00    +0.000 C 
ATOM      7  C   UNL     1       4.033   5.569  16.930  0.00  0.00    +0.000 C 
ENDROOT
BRANCH   1  11
ATOM      8  C   UNL     1       1.523   8.859  20.117  0.00  0.00    +0.000 A 
ATOM      9  C   UNL     1       1.817   8.994  18.754  0.00  0.00    +0.000 A 
ATOM     10  C   UNL     1       2.330   7.922  18.022  0.00  0.00    +0.000 A 
ATOM     11  C   UNL     1       2.539   6.689  18.637  0.00  0.00    +0.000 A 
ATOM     12  C   UNL     1       2.319   6.552  20.011  0.00  0.00    +0.000 A 
ATOM     13  C   UNL     1       1.802   7.633  20.744  0.00  0.00    +0.000 A 
BRANCH   8  17
ATOM     14  C   UNL     1      -1.457  11.508  23.010  0.00  0.00    +0.000 C 
ATOM     15  C   UNL     1      -0.406  11.016  22.101  0.00  0.00    +0.000 A 
ATOM     16  N   UNL     1      -0.216   9.814  21.614  0.00  0.00    +0.000 NA
ATOM     17  C   UNL     1       0.916   9.976  20.838  0.00  0.00    +0.000 A 
ATOM     18  N   UNL     1       1.403  11.228  20.850  0.00  0.00    +0.000 NA
ATOM     19  O   UNL     1       0.524  11.919  21.685  0.00  0.00    +0.000 OA
ENDBRANCH   8  17
ENDBRANCH   1  11
BRANCH   7  20
ATOM     20  C   UNL     1       5.311   6.063  17.601  0.00  0.00    +0.000 A 
ATOM     21  C   UNL     1       5.938   7.220  17.089  0.00  0.00    +0.000 A 
ATOM     22  C   UNL     1       7.124   7.736  17.607  0.00  0.00    +0.000 A 
ATOM     23  C   UNL     1       7.789   7.049  18.602  0.00  0.00    +0.000 A 
ATOM     24  C   UNL     1       7.258   5.850  19.067  0.00  0.00    +0.000 A 
ATOM     25  C   UNL     1       6.028   5.353  18.593  0.00  0.00    +0.000 A 
BRANCH  25  26
ATOM     26  O   UNL     1       5.835   4.061  19.004  0.00  0.00    +0.000 OA
BRANCH  26  27
ATOM     27  C   UNL     1       4.979   3.746  20.084  0.00  0.00    +0.000 C 
ATOM     28  F   UNL     1       4.277   4.865  20.391  0.00  0.00    +0.000 F 
ATOM     29  F   UNL     1       4.081   2.792  19.744  0.00  0.00    +0.000 F 
ENDBRANCH  26  27
ENDBRANCH  25  26
ENDBRANCH   7  20
BRANCH   6  30
ATOM     30  C   UNL     1       5.194   3.235  16.220  0.00  0.00    +0.000 C 
ATOM     31  O   UNL     1       5.135   2.132  16.769  0.00  0.00    +0.000 OA
BRANCH  30  32
ATOM     32  C   UNL     1       6.466   3.662  15.506  0.00  0.00    +0.000 C 
BRANCH  32  33
ATOM     33  C   UNL     1       6.155   4.448  14.222  0.00  0.00    +0.000 C 
ATOM     34  C   UNL     1       7.327   5.341  13.814  0.00  0.00    +0.000 C 
ATOM     35  C   UNL     1       5.799   3.501  13.075  0.00  0.00    +0.000 C 
ENDBRANCH  32  33
ENDBRANCH  30  32
ENDBRANCH   6  30
TORSDOF 8
ENDMDL
MODEL 3
REMARK VINA RESULT:      -6.5      4.624     10.884
REMARK  Name = 
REMARK  11 active torsions:
REMARK  status: ('A' for Active; 'I' for Inactive)
REMARK    1  A    between atoms: C_1  and  C_2
REMARK    2  A    between atoms: C_4  and  C_5
REMARK    3  A    between atoms: C_8  and  N_9
REMARK    4  A    between atoms: C_14  and  C_15
REMARK    5  A    between atoms: C_15  and  C_17
REMARK    6  A    between atoms: C_17  and  C_18
REMARK    7  A    between atoms: C_18  and  C_19
REMARK    8  A    between atoms: C_18  and  C_20
REMARK    9  A    between atoms: C_21  and  C_22
REMARK   10  A    between atoms: C_27  and  O_28
REMARK   11  A    between atoms: O_28  and  C_29
REMARK                            x       y       z     vdW  Elec       q    Type
REMARK                         _______ _______ _______ _____ _____    ______ ____
ROOT
ATOM      1  N   UNL     1       2.164   5.080  18.483  0.00  0.00    +0.000 N 
ATOM      2  C   UNL     1       1.269   4.209  19.052  0.00  0.00    +0.000 C 
ATOM      3  O   UNL     1       0.364   4.425  19.839  0.00  0.00    +0.000 OA
ATOM      4  C   UNL     1       1.576   2.843  18.478  0.00  0.00    +0.000 C 
ATOM      5  O   UNL     1       0.910   1.854  18.720  0.00  0.00    +0.000 OA
ATOM      6  C   UNL     1       2.733   2.924  17.520  0.00  0.00    +0.000 C 
ATOM      7  C   UNL     1       3.100   4.448  17.553  0.00  0.00    +0.000 C 
ENDROOT
BRANCH   1  11
ATOM      8  C   UNL     1       1.754   9.222  19.157  0.00  0.00    +0.000 A 
ATOM      9  C   UNL     1       1.983   8.713  17.871  0.00  0.00    +0.000 A 
ATOM     10  C   UNL     1       2.183   7.347  17.667  0.00  0.00    +0.000 A 
ATOM     11  C   UNL     1       2.138   6.463  18.744  0.00  0.00    +0.000 A 
ATOM     12  C   UNL     1       1.982   6.956  20.042  0.00  0.00    +0.000 A 
ATOM     13  C   UNL     1       1.779   8.332  20.243  0.00  0.00    +0.000 A 
BRANCH   8  17
ATOM     14  C   UNL     1       1.700  14.105  18.507  0.00  0.00    +0.000 C 
ATOM     15  C   UNL     1       1.507  12.717  18.963  0.00  0.00    +0.000 A 
ATOM     16  N   UNL     1       2.029  11.605  18.505  0.00  0.00    +0.000 NA
ATOM     17  C   UNL     1       1.472  10.646  19.329  0.00  0.00    +0.000 A 
ATOM     18  N   UNL     1       0.639  11.148  20.256  0.00  0.00    +0.000 NA
ATOM     19  O   UNL     1       0.664  12.523  20.015  0.00  0.00    +0.000 OA
ENDBRANCH   8  17
ENDBRANCH   1  11
BRANCH   7  20
ATOM     20  C   UNL     1       4.540   4.895  17.784  0.00  0.00    +0.000 A 
ATOM     21  C   UNL     1       4.967   5.138  19.108  0.00  0.00    +0.000 A 
ATOM     22  C   UNL     1       6.250   5.580  19.426  0.00  0.00    +0.000 A 
ATOM     23  C   UNL     1       7.132   5.897  18.413  0.00  0.00    +0.000 A 
ATOM     24  C   UNL     1       6.718   5.769  17.092  0.00  0.00    +0.000 A 
ATOM     25  C   UNL     1       5.445   5.264  16.760  0.00  0.00    +0.000 A 
BRANCH  25  26
ATOM     26  O   UNL     1       5.174   5.460  15.433  0.00  0.00    +0.000 OA
BRANCH  26  27
ATOM     27  C   UNL     1       5.662   4.581  14.439  0.00  0.00    +0.000 C 
ATOM     28  F   UNL     1       6.779   5.139  13.909  0.00  0.00    +0.000 F 
ATOM     29  F   UNL     1       6.022   3.388  14.964  0.00  0.00    +0.000 F 
ENDBRANCH  26  27
ENDBRANCH  25  26
ENDBRANCH   7  20
BRANCH   6  30
ATOM     30  C   UNL     1       3.764   1.844  17.827  0.00  0.00    +0.000 C 
ATOM     31  O   UNL     1       4.659   1.554  17.028  0.00  0.00    +0.000 OA
BRANCH  30  32
ATOM     32  C   UNL     1       3.695   1.148  19.176  0.00  0.00    +0.000 C 
BRANCH  32  33
ATOM     33  C   UNL     1       4.352   1.992  20.280  0.00  0.00    +0.000 C 
ATOM     34  C   UNL     1       3.311   2.550  21.252  0.00  0.00    +0.000 C 
ATOM     35  C   UNL     1       5.392   1.173  21.046  0.00  0.00    +0.000 C 
ENDBRANCH  32  33
ENDBRANCH  30  32
ENDBRANCH   6  30
TORSDOF 8
ENDMDL
MODEL 4
REMARK VINA RESULT:      -6.3      1.878      3.716
REMARK  Name = 
REMARK  11 active torsions:
REMARK  status: ('A' for Active; 'I' for Inactive)
REMARK    1  A    between atoms: C_1  and  C_2
REMARK    2  A    between atoms: C_4  and  C_5
REMARK    3  A    between atoms: C_8  and  N_9
REMARK    4  A    between atoms: C_14  and  C_15
REMARK    5  A    between atoms: C_15  and  C_17
REMARK    6  A    between atoms: C_17  and  C_18
REMARK    7  A    between atoms: C_18  and  C_19
REMARK    8  A    between atoms: C_18  and  C_20
REMARK    9  A    between atoms: C_21  and  C_22
REMARK   10  A    between atoms: C_27  and  O_28
REMARK   11  A    between atoms: O_28  and  C_29
REMARK                            x       y       z     vdW  Elec       q    Type
REMARK                         _______ _______ _______ _____ _____    ______ ____
ROOT
ATOM      1  N   UNL     1      -0.249  11.308  19.637  0.00  0.00    +0.000 N 
ATOM      2  C   UNL     1      -1.557  11.260  19.226  0.00  0.00    +0.000 C 
ATOM      3  O   UNL     1      -2.146  10.394  18.603  0.00  0.00    +0.000 OA
ATOM      4  C   UNL     1      -2.213  12.523  19.737  0.00  0.00    +0.000 C 
ATOM      5  O   UNL     1      -3.401  12.755  19.609  0.00  0.00    +0.000 OA
ATOM      6  C   UNL     1      -1.218  13.366  20.487  0.00  0.00    +0.000 C 
ATOM      7  C   UNL     1       0.094  12.512  20.395  0.00  0.00    +0.000 C 
ENDROOT
BRANCH   1  11
ATOM      8  C   UNL     1       2.197   7.951  18.907  0.00  0.00    +0.000 A 
ATOM      9  C   UNL     1       1.785   8.283  20.204  0.00  0.00    +0.000 A 
ATOM     10  C   UNL     1       1.031   9.432  20.445  0.00  0.00    +0.000 A 
ATOM     11  C   UNL     1       0.658  10.261  19.388  0.00  0.00    +0.000 A 
ATOM     12  C   UNL     1       1.117   9.987  18.096  0.00  0.00    +0.000 A 
ATOM     13  C   UNL     1       1.875   8.828  17.858  0.00  0.00    +0.000 A 
BRANCH   8  17
ATOM     14  C   UNL     1       4.138   3.469  19.546  0.00  0.00    +0.000 C 
ATOM     15  C   UNL     1       3.699   4.783  19.044  0.00  0.00    +0.000 A 
ATOM     16  N   UNL     1       3.022   5.728  19.651  0.00  0.00    +0.000 NA
ATOM     17  C   UNL     1       2.919   6.702  18.676  0.00  0.00    +0.000 A 
ATOM     18  N   UNL     1       3.507   6.367  17.515  0.00  0.00    +0.000 NA
ATOM     19  O   UNL     1       4.027   5.096  17.760  0.00  0.00    +0.000 OA
ENDBRANCH   8  17
ENDBRANCH   1  11
BRANCH   7  20
ATOM     20  C   UNL     1       1.400  13.142  19.926  0.00  0.00    +0.000 A 
ATOM     21  C   UNL     1       1.930  12.748  18.678  0.00  0.00    +0.000 A 
ATOM     22  C   UNL     1       3.132  13.238  18.171  0.00  0.00    +0.000 A 
ATOM     23  C   UNL     1       3.910  14.072  18.947  0.00  0.00    +0.000 A 
ATOM     24  C   UNL     1       3.474  14.406  20.225  0.00  0.00    +0.000 A 
ATOM     25  C   UNL     1       2.231  13.967  20.723  0.00  0.00    +0.000 A 
BRANCH  25  26
ATOM     26  O   UNL     1       2.132  14.208  22.066  0.00  0.00    +0.000 OA
BRANCH  26  27
ATOM     27  C   UNL     1       1.474  15.355  22.567  0.00  0.00    +0.000 C 
ATOM     28  F   UNL     1       1.369  16.245  21.550  0.00  0.00    +0.000 F 
ATOM     29  F   UNL     1       0.218  15.067  22.979  0.00  0.00    +0.000 F 
ENDBRANCH  26  27
ENDBRANCH  25  26
ENDBRANCH   7  20
BRANCH   6  30
ATOM     30  C   UNL     1      -1.267  14.813  20.009  0.00  0.00    +0.000 C 
ATOM     31  O   UNL     1      -1.829  15.694  20.664  0.00  0.00    +0.000 OA
BRANCH  30  32
ATOM     32  C   UNL     1      -0.562  15.165  18.710  0.00  0.00    +0.000 C 
BRANCH  32  33
ATOM     33  C   UNL     1      -0.018  16.603  18.734  0.00  0.00    +0.000 C 
ATOM     34  C   UNL     1       1.420  16.667  18.220  0.00  0.00    +0.000 C 
ATOM     35  C   UNL     1      -0.908  17.535  17.909  0.00  0.00    +0.000 C 
ENDBRANCH  32  33
ENDBRANCH  30  32
ENDBRANCH   6  30
TORSDOF 8
ENDMDL
MODEL 5
REMARK VINA RESULT:      -6.3      2.347      2.857
REMARK  Name = 
REMARK  11 active torsions:
REMARK  status: ('A' for Active; 'I' for Inactive)
REMARK    1  A    between atoms: C_1  and  C_2
REMARK    2  A    between atoms: C_4  and  C_5
REMARK    3  A    between atoms: C_8  and  N_9
REMARK    4  A    between atoms: C_14  and  C_15
REMARK    5  A    between atoms: C_15  and  C_17
REMARK    6  A    between atoms: C_17  and  C_18
REMARK    7  A    between atoms: C_18  and  C_19
REMARK    8  A    between atoms: C_18  and  C_20
REMARK    9  A    between atoms: C_21  and  C_22
REMARK   10  A    between atoms: C_27  and  O_28
REMARK   11  A    between atoms: O_28  and  C_29
REMARK                            x       y       z     vdW  Elec       q    Type
REMARK                         _______ _______ _______ _____ _____    ______ ____
ROOT
ATOM      1  N   UNL     1       0.960  12.787  19.791  0.00  0.00    +0.000 N 
ATOM      2  C   UNL     1       1.873  13.566  20.456  0.00  0.00    +0.000 C 
ATOM      3  O   UNL     1       2.823  13.238  21.143  0.00  0.00    +0.000 OA
ATOM      4  C   UNL     1       1.513  15.003  20.149  0.00  0.00    +0.000 C 
ATOM      5  O   UNL     1       2.177  15.951  20.526  0.00  0.00    +0.000 OA
ATOM      6  C   UNL     1       0.305  15.063  19.254  0.00  0.00    +0.000 C 
ATOM      7  C   UNL     1      -0.037  13.548  19.038  0.00  0.00    +0.000 C 
ENDROOT
BRANCH   1  11
ATOM      8  C   UNL     1       1.490   8.604  19.837  0.00  0.00    +0.000 A 
ATOM      9  C   UNL     1       1.644   9.344  18.657  0.00  0.00    +0.000 A 
ATOM     10  C   UNL     1       1.402  10.718  18.636  0.00  0.00    +0.000 A 
ATOM     11  C   UNL     1       1.021  11.381  19.802  0.00  0.00    +0.000 A 
ATOM     12  C   UNL     1       0.793  10.651  20.973  0.00  0.00    +0.000 A 
ATOM     13  C   UNL     1       1.039   9.268  20.990  0.00  0.00    +0.000 A 
BRANCH   8  17
ATOM     14  C   UNL     1       1.813   3.870  21.160  0.00  0.00    +0.000 C 
ATOM     15  C   UNL     1       1.898   5.181  20.492  0.00  0.00    +0.000 A 
ATOM     16  N   UNL     1       1.445   6.349  20.880  0.00  0.00    +0.000 NA
ATOM     17  C   UNL     1       1.824   7.181  19.845  0.00  0.00    +0.000 A 
ATOM     18  N   UNL     1       2.482   6.550  18.858  0.00  0.00    +0.000 NA
ATOM     19  O   UNL     1       2.534   5.223  19.289  0.00  0.00    +0.000 OA
ENDBRANCH   8  17
ENDBRANCH   1  11
BRANCH   7  20
ATOM     20  C   UNL     1      -1.455  13.032  19.263  0.00  0.00    +0.000 A 
ATOM     21  C   UNL     1      -2.033  13.184  20.542  0.00  0.00    +0.000 A 
ATOM     22  C   UNL     1      -3.307  12.720  20.863  0.00  0.00    +0.000 A 
ATOM     23  C   UNL     1      -4.020  11.988  19.934  0.00  0.00    +0.000 A 
ATOM     24  C   UNL     1      -3.446  11.728  18.694  0.00  0.00    +0.000 A 
ATOM     25  C   UNL     1      -2.184  12.246  18.339  0.00  0.00    +0.000 A 
BRANCH  25  26
ATOM     26  O   UNL     1      -1.725  11.662  17.189  0.00  0.00    +0.000 OA
BRANCH  26  27
ATOM     27  C   UNL     1      -2.337  10.509  16.648  0.00  0.00    +0.000 C 
ATOM     28  F   UNL     1      -2.460  10.699  15.310  0.00  0.00    +0.000 F 
ATOM     29  F   UNL     1      -1.570   9.409  16.826  0.00  0.00    +0.000 F 
ENDBRANCH  26  27
ENDBRANCH  25  26
ENDBRANCH   7  20
BRANCH   6  30
ATOM     30  C   UNL     1      -0.723  16.047  19.801  0.00  0.00    +0.000 C 
ATOM     31  O   UNL     1      -1.412  16.748  19.055  0.00  0.00    +0.000 OA
BRANCH  30  32
ATOM     32  C   UNL     1      -0.919  16.120  21.306  0.00  0.00    +0.000 C 
BRANCH  32  33
ATOM     33  C   UNL     1      -0.967  17.575  21.800  0.00  0.00    +0.000 C 
ATOM     34  C   UNL     1      -2.319  17.908  22.431  0.00  0.00    +0.000 C 
ATOM     35  C   UNL     1       0.156  17.848  22.802  0.00  0.00    +0.000 C 
ENDBRANCH  32  33
ENDBRANCH  30  32
ENDBRANCH   6  30
TORSDOF 8
ENDMDL
MODEL 6
REMARK VINA RESULT:      -6.3      2.035      2.786
REMARK  Name = 
REMARK  11 active torsions:
REMARK  status: ('A' for Active; 'I' for Inactive)
REMARK    1  A    between atoms: C_1  and  C_2
REMARK    2  A    between atoms: C_4  and  C_5
REMARK    3  A    between atoms: C_8  and  N_9
REMARK    4  A    between atoms: C_14  and  C_15
REMARK    5  A    between atoms: C_15  and  C_17
REMARK    6  A    between atoms: C_17  and  C_18
REMARK    7  A    between atoms: C_18  and  C_19
REMARK    8  A    between atoms: C_18  and  C_20
REMARK    9  A    between atoms: C_21  and  C_22
REMARK   10  A    between atoms: C_27  and  O_28
REMARK   11  A    between atoms: O_28  and  C_29
REMARK                            x       y       z     vdW  Elec       q    Type
REMARK                         _______ _______ _______ _____ _____    ______ ____
ROOT
ATOM      1  N   UNL     1       1.095  12.918  19.081  0.00  0.00    +0.000 N 
ATOM      2  C   UNL     1       2.211  13.690  18.877  0.00  0.00    +0.000 C 
ATOM      3  O   UNL     1       3.380  13.361  18.788  0.00  0.00    +0.000 OA
ATOM      4  C   UNL     1       1.724  15.115  18.730  0.00  0.00    +0.000 C 
ATOM      5  O   UNL     1       2.461  16.045  18.460  0.00  0.00    +0.000 OA
ATOM      6  C   UNL     1       0.227  15.176  18.867  0.00  0.00    +0.000 C 
ATOM      7  C   UNL     1      -0.157  13.675  19.103  0.00  0.00    +0.000 C 
ENDROOT
BRANCH   1  11
ATOM      8  C   UNL     1       1.641   8.753  19.449  0.00  0.00    +0.000 A 
ATOM      9  C   UNL     1       1.746   9.393  18.207  0.00  0.00    +0.000 A 
ATOM     10  C   UNL     1       1.499  10.761  18.083  0.00  0.00    +0.000 A 
ATOM     11  C   UNL     1       1.161  11.517  19.205  0.00  0.00    +0.000 A 
ATOM     12  C   UNL     1       0.982  10.887  20.439  0.00  0.00    +0.000 A 
ATOM     13  C   UNL     1       1.233   9.510  20.560  0.00  0.00    +0.000 A 
BRANCH   8  17
ATOM     14  C   UNL     1       2.052   4.150  21.155  0.00  0.00    +0.000 C 
ATOM     15  C   UNL     1       2.095   5.399  20.373  0.00  0.00    +0.000 A 
ATOM     16  N   UNL     1       1.660   6.596  20.684  0.00  0.00    +0.000 NA
ATOM     17  C   UNL     1       1.979   7.336  19.561  0.00  0.00    +0.000 A 
ATOM     18  N   UNL     1       2.584   6.621  18.597  0.00  0.00    +0.000 NA
ATOM     19  O   UNL     1       2.664   5.336  19.137  0.00  0.00    +0.000 OA
ENDBRANCH   8  17
ENDBRANCH   1  11
BRANCH   7  20
ATOM     20  C   UNL     1      -1.056  13.278  20.270  0.00  0.00    +0.000 A 
ATOM     21  C   UNL     1      -0.524  13.325  21.577  0.00  0.00    +0.000 A 
ATOM     22  C   UNL     1      -1.248  12.953  22.708  0.00  0.00    +0.000 A 
ATOM     23  C   UNL     1      -2.512  12.417  22.563  0.00  0.00    +0.000 A 
ATOM     24  C   UNL     1      -3.035  12.259  21.284  0.00  0.00    +0.000 A 
ATOM     25  C   UNL     1      -2.336  12.689  20.139  0.00  0.00    +0.000 A 
BRANCH  25  26
ATOM     26  O   UNL     1      -2.926  12.211  19.001  0.00  0.00    +0.000 OA
BRANCH  26  27
ATOM     27  C   UNL     1      -2.484  11.020  18.380  0.00  0.00    +0.000 C 
ATOM     28  F   UNL     1      -1.651  11.370  17.368  0.00  0.00    +0.000 F 
ATOM     29  F   UNL     1      -1.773  10.249  19.235  0.00  0.00    +0.000 F 
ENDBRANCH  26  27
ENDBRANCH  25  26
ENDBRANCH   7  20
BRANCH   6  30
ATOM     30  C   UNL     1      -0.180  16.273  19.844  0.00  0.00    +0.000 C 
ATOM     31  O   UNL     1       0.592  16.691  20.710  0.00  0.00    +0.000 OA
BRANCH  30  32
ATOM     32  C   UNL     1      -1.565  16.882  19.702  0.00  0.00    +0.000 C 
BRANCH  32  33
ATOM     33  C   UNL     1      -2.350  16.812  21.023  0.00  0.00    +0.000 C 
ATOM     34  C   UNL     1      -2.643  18.207  21.575  0.00  0.00    +0.000 C 
ATOM     35  C   UNL     1      -3.658  16.041  20.838  0.00  0.00    +0.000 C 
ENDBRANCH  32  33
ENDBRANCH  30  32
ENDBRANCH   6  30
TORSDOF 8
ENDMDL
MODEL 7
REMARK VINA RESULT:      -6.3      4.001      6.877
REMARK  Name = 
REMARK  11 active torsions:
REMARK  status: ('A' for Active; 'I' for Inactive)
REMARK    1  A    between atoms: C_1  and  C_2
REMARK    2  A    between atoms: C_4  and  C_5
REMARK    3  A    between atoms: C_8  and  N_9
REMARK    4  A    between atoms: C_14  and  C_15
REMARK    5  A    between atoms: C_15  and  C_17
REMARK    6  A    between atoms: C_17  and  C_18
REMARK    7  A    between atoms: C_18  and  C_19
REMARK    8  A    between atoms: C_18  and  C_20
REMARK    9  A    between atoms: C_21  and  C_22
REMARK   10  A    between atoms: C_27  and  O_28
REMARK   11  A    between atoms: O_28  and  C_29
REMARK                            x       y       z     vdW  Elec       q    Type
REMARK                         _______ _______ _______ _____ _____    ______ ____
ROOT
ATOM      1  N   UNL     1      -1.687  14.710  20.887  0.00  0.00    +0.000 N 
ATOM      2  C   UNL     1      -2.414  15.551  21.692  0.00  0.00    +0.000 C 
ATOM      3  O   UNL     1      -2.061  16.548  22.297  0.00  0.00    +0.000 OA
ATOM      4  C   UNL     1      -3.836  15.035  21.678  0.00  0.00    +0.000 C 
ATOM      5  O   UNL     1      -4.756  15.604  22.234  0.00  0.00    +0.000 OA
ATOM      6  C   UNL     1      -3.940  13.806  20.816  0.00  0.00    +0.000 C 
ATOM      7  C   UNL     1      -2.470  13.620  20.303  0.00  0.00    +0.000 C 
ENDROOT
BRANCH   1  11
ATOM      8  C   UNL     1       2.445  14.990  20.092  0.00  0.00    +0.000 A 
ATOM      9  C   UNL     1       1.965  14.805  21.396  0.00  0.00    +0.000 A 
ATOM     10  C   UNL     1       0.595  14.780  21.659  0.00  0.00    +0.000 A 
ATOM     11  C   UNL     1      -0.322  14.919  20.618  0.00  0.00    +0.000 A 
ATOM     12  C   UNL     1       0.134  15.175  19.321  0.00  0.00    +0.000 A 
ATOM     13  C   UNL     1       1.514  15.199  19.060  0.00  0.00    +0.000 A 
BRANCH   8  17
ATOM     14  C   UNL     1       6.798  14.860  17.791  0.00  0.00    +0.000 C 
ATOM     15  C   UNL     1       5.690  14.892  18.762  0.00  0.00    +0.000 A 
ATOM     16  N   UNL     1       4.395  14.900  18.555  0.00  0.00    +0.000 NA
ATOM     17  C   UNL     1       3.882  14.936  19.837  0.00  0.00    +0.000 A 
ATOM     18  N   UNL     1       4.825  14.953  20.795  0.00  0.00    +0.000 NA
ATOM     19  O   UNL     1       6.024  14.921  20.081  0.00  0.00    +0.000 OA
ENDBRANCH   8  17
ENDBRANCH   1  11
BRANCH   7  20
ATOM     20  C   UNL     1      -1.770  12.271  20.424  0.00  0.00    +0.000 A 
ATOM     21  C   UNL     1      -1.239  11.896  21.678  0.00  0.00    +0.000 A 
ATOM     22  C   UNL     1      -0.552  10.702  21.890  0.00  0.00    +0.000 A 
ATOM     23  C   UNL     1      -0.280   9.874  20.820  0.00  0.00    +0.000 A 
ATOM     24  C   UNL     1      -0.697  10.254  19.548  0.00  0.00    +0.000 A 
ATOM     25  C   UNL     1      -1.445  11.429  19.334  0.00  0.00    +0.000 A 
BRANCH  25  26
ATOM     26  O   UNL     1      -1.525  11.718  17.999  0.00  0.00    +0.000 OA
BRANCH  26  27
ATOM     27  C   UNL     1      -2.642  11.335  17.223  0.00  0.00    +0.000 C 
ATOM     28  F   UNL     1      -2.396  10.095  16.732  0.00  0.00    +0.000 F 
ATOM     29  F   UNL     1      -3.765  11.252  17.974  0.00  0.00    +0.000 F 
ENDBRANCH  26  27
ENDBRANCH  25  26
ENDBRANCH   7  20
BRANCH   6  30
ATOM     30  C   UNL     1      -4.680  12.693  21.551  0.00  0.00    +0.000 C 
ATOM     31  O   UNL     1      -4.377  12.360  22.699  0.00  0.00    +0.000 OA
BRANCH  30  32
ATOM     32  C   UNL     1      -5.846  12.020  20.847  0.00  0.00    +0.000 C 
BRANCH  32  33
ATOM     33  C   UNL     1      -6.596  13.003  19.932  0.00  0.00    +0.000 C 
ATOM     34  C   UNL     1      -7.233  12.285  18.742  0.00  0.00    +0.000 C 
ATOM     35  C   UNL     1      -7.667  13.765  20.714  0.00  0.00    +0.000 C 
ENDBRANCH  32  33
ENDBRANCH  30  32
ENDBRANCH   6  30
TORSDOF 8
ENDMDL
MODEL 8
REMARK VINA RESULT:      -6.3      3.817      6.812
REMARK  Name = 
REMARK  11 active torsions:
REMARK  status: ('A' for Active; 'I' for Inactive)
REMARK    1  A    between atoms: C_1  and  C_2
REMARK    2  A    between atoms: C_4  and  C_5
REMARK    3  A    between atoms: C_8  and  N_9
REMARK    4  A    between atoms: C_14  and  C_15
REMARK    5  A    between atoms: C_15  and  C_17
REMARK    6  A    between atoms: C_17  and  C_18
REMARK    7  A    between atoms: C_18  and  C_19
REMARK    8  A    between atoms: C_18  and  C_20
REMARK    9  A    between atoms: C_21  and  C_22
REMARK   10  A    between atoms: C_27  and  O_28
REMARK   11  A    between atoms: O_28  and  C_29
REMARK                            x       y       z     vdW  Elec       q    Type
REMARK                         _______ _______ _______ _____ _____    ______ ____
ROOT
ATOM      1  N   UNL     1      -0.869  14.617  21.004  0.00  0.00    +0.000 N 
ATOM      2  C   UNL     1      -1.253  15.128  22.218  0.00  0.00    +0.000 C 
ATOM      3  O   UNL     1      -0.607  15.754  23.039  0.00  0.00    +0.000 OA
ATOM      4  C   UNL     1      -2.723  14.802  22.374  0.00  0.00    +0.000 C 
ATOM      5  O   UNL     1      -3.393  15.185  23.314  0.00  0.00    +0.000 OA
ATOM      6  C   UNL     1      -3.223  14.044  21.174  0.00  0.00    +0.000 C 
ATOM      7  C   UNL     1      -1.942  13.940  20.276  0.00  0.00    +0.000 C 
ENDROOT
BRANCH   1  11
ATOM      8  C   UNL     1       3.034  15.431  19.629  0.00  0.00    +0.000 A 
ATOM      9  C   UNL     1       1.908  15.938  18.965  0.00  0.00    +0.000 A 
ATOM     10  C   UNL     1       0.619  15.610  19.388  0.00  0.00    +0.000 A 
ATOM     11  C   UNL     1       0.433  14.783  20.496  0.00  0.00    +0.000 A 
ATOM     12  C   UNL     1       1.540  14.210  21.128  0.00  0.00    +0.000 A 
ATOM     13  C   UNL     1       2.836  14.544  20.700  0.00  0.00    +0.000 A 
BRANCH   8  17
ATOM     14  C   UNL     1       7.677  15.353  17.986  0.00  0.00    +0.000 C 
ATOM     15  C   UNL     1       6.341  15.715  18.492  0.00  0.00    +0.000 A 
ATOM     16  N   UNL     1       5.329  14.944  18.809  0.00  0.00    +0.000 NA
ATOM     17  C   UNL     1       4.368  15.853  19.210  0.00  0.00    +0.000 A 
ATOM     18  N   UNL     1       4.773  17.133  19.139  0.00  0.00    +0.000 NA
ATOM     19  O   UNL     1       6.083  17.041  18.666  0.00  0.00    +0.000 OA
ENDBRANCH   8  17
ENDBRANCH   1  11
BRANCH   7  20
ATOM     20  C   UNL     1      -1.500  12.596  19.707  0.00  0.00    +0.000 A 
ATOM     21  C   UNL     1      -1.917  12.244  18.404  0.00  0.00    +0.000 A 
ATOM     22  C   UNL     1      -1.597  11.029  17.803  0.00  0.00    +0.000 A 
ATOM     23  C   UNL     1      -0.925  10.065  18.529  0.00  0.00    +0.000 A 
ATOM     24  C   UNL     1      -0.584  10.331  19.850  0.00  0.00    +0.000 A 
ATOM     25  C   UNL     1      -0.848  11.580  20.447  0.00  0.00    +0.000 A 
BRANCH  25  26
ATOM     26  O   UNL     1      -0.653  11.524  21.800  0.00  0.00    +0.000 OA
BRANCH  26  27
ATOM     27  C   UNL     1      -0.719  10.302  22.509  0.00  0.00    +0.000 C 
ATOM     28  F   UNL     1       0.528  10.023  22.964  0.00  0.00    +0.000 F 
ATOM     29  F   UNL     1      -1.527  10.398  23.590  0.00  0.00    +0.000 F 
ENDBRANCH  26  27
ENDBRANCH  25  26
ENDBRANCH   7  20
BRANCH   6  30
ATOM     30  C   UNL     1      -4.004  12.808  21.605  0.00  0.00    +0.000 C 
ATOM     31  O   UNL     1      -3.790  12.248  22.683  0.00  0.00    +0.000 OA
BRANCH  30  32
ATOM     32  C   UNL     1      -5.100  12.295  20.686  0.00  0.00    +0.000 C 
BRANCH  32  33
ATOM     33  C   UNL     1      -6.478  12.351  21.366  0.00  0.00    +0.000 C 
ATOM     34  C   UNL     1      -7.035  13.775  21.386  0.00  0.00    +0.000 C 
ATOM     35  C   UNL     1      -7.467  11.416  20.669  0.00  0.00    +0.000 C 
ENDBRANCH  32  33
ENDBRANCH  30  32
ENDBRANCH   6  30
TORSDOF 8
ENDMDL
MODEL 9
REMARK VINA RESULT:      -6.3      4.022      6.802
REMARK  Name = 
REMARK  11 active torsions:
REMARK  status: ('A' for Active; 'I' for Inactive)
REMARK    1  A    between atoms: C_1  and  C_2
REMARK    2  A    between atoms: C_4  and  C_5
REMARK    3  A    between atoms: C_8  and  N_9
REMARK    4  A    between atoms: C_14  and  C_15
REMARK    5  A    between atoms: C_15  and  C_17
REMARK    6  A    between atoms: C_17  and  C_18
REMARK    7  A    between atoms: C_18  and  C_19
REMARK    8  A    between atoms: C_18  and  C_20
REMARK    9  A    between atoms: C_21  and  C_22
REMARK   10  A    between atoms: C_27  and  O_28
REMARK   11  A    between atoms: O_28  and  C_29
REMARK                            x       y       z     vdW  Elec       q    Type
REMARK                         _______ _______ _______ _____ _____    ______ ____
ROOT
ATOM      1  N   UNL     1      -1.083  14.411  20.573  0.00  0.00    +0.000 N 
ATOM      2  C   UNL     1      -1.736  15.559  20.944  0.00  0.00    +0.000 C 
ATOM      3  O   UNL     1      -1.287  16.662  21.201  0.00  0.00    +0.000 OA
ATOM      4  C   UNL     1      -3.212  15.230  20.949  0.00  0.00    +0.000 C 
ATOM      5  O   UNL     1      -4.079  16.058  21.162  0.00  0.00    +0.000 OA
ATOM      6  C   UNL     1      -3.431  13.792  20.564  0.00  0.00    +0.000 C 
ATOM      7  C   UNL     1      -1.971  13.276  20.319  0.00  0.00    +0.000 C 
ENDROOT
BRANCH   1  11
ATOM      8  C   UNL     1       3.091  14.600  20.005  0.00  0.00    +0.000 A 
ATOM      9  C   UNL     1       2.211  14.542  18.916  0.00  0.00    +0.000 A 
ATOM     10  C   UNL     1       0.835  14.413  19.113  0.00  0.00    +0.000 A 
ATOM     11  C   UNL     1       0.314  14.360  20.405  0.00  0.00    +0.000 A 
ATOM     12  C   UNL     1       1.179  14.345  21.503  0.00  0.00    +0.000 A 
ATOM     13  C   UNL     1       2.563  14.476  21.301  0.00  0.00    +0.000 A 
BRANCH   8  17
ATOM     14  C   UNL     1       7.432  15.221  17.760  0.00  0.00    +0.000 C 
ATOM     15  C   UNL     1       6.320  15.076  18.716  0.00  0.00    +0.000 A 
ATOM     16  N   UNL     1       5.052  14.828  18.494  0.00  0.00    +0.000 NA
ATOM     17  C   UNL     1       4.518  14.812  19.769  0.00  0.00    +0.000 A 
ATOM     18  N   UNL     1       5.422  15.043  20.736  0.00  0.00    +0.000 NA
ATOM     19  O   UNL     1       6.618  15.215  20.038  0.00  0.00    +0.000 OA
ENDBRANCH   8  17
ENDBRANCH   1  11
BRANCH   7  20
ATOM     20  C   UNL     1      -1.479  11.994  20.983  0.00  0.00    +0.000 A 
ATOM     21  C   UNL     1      -1.499  11.913  22.393  0.00  0.00    +0.000 A 
ATOM     22  C   UNL     1      -1.042  10.802  23.099  0.00  0.00    +0.000 A 
ATOM     23  C   UNL     1      -0.448   9.758  22.418  0.00  0.00    +0.000 A 
ATOM     24  C   UNL     1      -0.317   9.841  21.036  0.00  0.00    +0.000 A 
ATOM     25  C   UNL     1      -0.831  10.932  20.307  0.00  0.00    +0.000 A 
BRANCH  25  26
ATOM     26  O   UNL     1      -0.372  10.916  19.018  0.00  0.00    +0.000 OA
BRANCH  26  27
ATOM     27  C   UNL     1       0.878  10.346  18.684  0.00  0.00    +0.000 C 
ATOM     28  F   UNL     1       0.680   9.506  17.638  0.00  0.00    +0.000 F 
ATOM     29  F   UNL     1       1.761  11.288  18.278  0.00  0.00    +0.000 F 
ENDBRANCH  26  27
ENDBRANCH  25  26
ENDBRANCH   7  20
BRANCH   6  30
ATOM     30  C   UNL     1      -4.370  13.106  21.550  0.00  0.00    +0.000 C 
ATOM     31  O   UNL     1      -4.846  11.991  21.325  0.00  0.00    +0.000 OA
BRANCH  30  32
ATOM     32  C   UNL     1      -4.680  13.815  22.858  0.00  0.00    +0.000 C 
BRANCH  32  33
ATOM     33  C   UNL     1      -3.799  13.293  24.005  0.00  0.00    +0.000 C 
ATOM     34  C   UNL     1      -3.188  14.441  24.809  0.00  0.00    +0.000 C 
ATOM     35  C   UNL     1      -4.600  12.377  24.932  0.00  0.00    +0.000 C 
ENDBRANCH  32  33
ENDBRANCH  30  32
ENDBRANCH   6  30
TORSDOF 8
ENDMDL
