MODEL 1
REMARK VINA RESULT:      -7.1      0.000      0.000
REMARK  Name = 
REMARK  6 active torsions:
REMARK  status: ('A' for Active; 'I' for Inactive)
REMARK    1  A    between atoms: C_1  and  O_2
REMARK    2  A    between atoms: O_2  and  C_3
REMARK    3  A    between atoms: C_3  and  C_5
REMARK    4  A    between atoms: C_6  and  C_7
REMARK    5  A    between atoms: C_10  and  C_11
REMARK    6  A    between atoms: N_23  and  C_24
REMARK                            x       y       z     vdW  Elec       q    Type
REMARK                         _______ _______ _______ _____ _____    ______ ____
ROOT
ATOM      1  C   UNL     1       5.123   3.903  17.774  0.00  0.00    +0.000 C 
ATOM      2  C   UNL     1       4.034   4.769  17.075  0.00  0.00    +0.000 C 
ATOM      3  C   UNL     1       4.756   5.330  15.805  0.00  0.00    +0.000 C 
ATOM      4  C   UNL     1       6.121   6.007  16.119  0.00  0.00    +0.000 C 
ATOM      5  C   UNL     1       7.369   5.148  15.883  0.00  0.00    +0.000 C 
ATOM      6  C   UNL     1       7.542   4.318  17.162  0.00  0.00    +0.000 C 
ATOM      7  C   UNL     1       6.394   4.781  18.075  0.00  0.00    +0.000 C 
ATOM      8  N   UNL     1       6.158   6.163  17.569  0.00  0.00    +0.000 NA
ATOM      9  C   UNL     1       7.031   7.227  18.032  0.00  0.00    +0.000 C 
ENDROOT
BRANCH   2  10
ATOM     10  C   UNL     1       3.362   5.838  17.970  0.00  0.00    +0.000 A 
ATOM     11  C   UNL     1       3.111   7.152  17.525  0.00  0.00    +0.000 A 
ATOM     12  C   UNL     1       2.457   8.101  18.316  0.00  0.00    +0.000 A 
ATOM     13  C   UNL     1       2.035   7.779  19.605  0.00  0.00    +0.000 A 
ATOM     14  C   UNL     1       2.286   6.476  20.068  0.00  0.00    +0.000 A 
ATOM     15  C   UNL     1       2.949   5.522  19.271  0.00  0.00    +0.000 A 
BRANCH  13  16
ATOM     16  C   UNL     1       1.304   8.737  20.451  0.00  0.00    +0.000 A 
ATOM     17  N   UNL     1       1.169   8.627  21.761  0.00  0.00    +0.000 NA
ATOM     18  C   UNL     1       0.398   9.661  22.251  0.00  0.00    +0.000 A 
ATOM     19  C   UNL     1      -0.033  10.578  21.321  0.00  0.00    +0.000 A 
ATOM     20  S   UNL     1       0.547  10.139  19.774  0.00  0.00    +0.000 S 
ENDBRANCH  13  16
ENDBRANCH   2  10
BRANCH   1  21
ATOM     21  C   UNL     1       4.512   3.028  18.856  0.00  0.00    +0.000 C 
ATOM     22  O   UNL     1       4.834   3.111  20.037  0.00  0.00    +0.000 OA
BRANCH  21  24
ATOM     23  C   UNL     1       2.395   2.150  19.262  0.00  0.00    +0.000 C 
ATOM     24  O   UNL     1       3.540   2.190  18.405  0.00  0.00    +0.000 OA
ENDBRANCH  21  24
ENDBRANCH   1  21
TORSDOF 4
ENDMDL
MODEL 2
REMARK VINA RESULT:      -7.0      2.585      4.106
REMARK  Name = 
REMARK  6 active torsions:
REMARK  status: ('A' for Active; 'I' for Inactive)
REMARK    1  A    between atoms: C_1  and  O_2
REMARK    2  A    between atoms: O_2  and  C_3
REMARK    3  A    between atoms: C_3  and  C_5
REMARK    4  A    between atoms: C_6  and  C_7
REMARK    5  A    between atoms: C_10  and  C_11
REMARK    6  A    between atoms: N_23  and  C_24
REMARK                            x       y       z     vdW  Elec       q    Type
REMARK                         _______ _______ _______ _____ _____    ______ ____
ROOT
ATOM      1  C   UNL     1       4.713   5.446  17.694  0.00  0.00    +0.000 C 
ATOM      2  C   UNL     1       4.242   6.090  19.031  0.00  0.00    +0.000 C 
ATOM      3  C   UNL     1       3.877   4.864  19.933  0.00  0.00    +0.000 C 
ATOM      4  C   UNL     1       2.915   3.855  19.242  0.00  0.00    +0.000 C 
ATOM      5  C   UNL     1       3.572   2.616  18.620  0.00  0.00    +0.000 C 
ATOM      6  C   UNL     1       4.033   3.056  17.224  0.00  0.00    +0.000 C 
ATOM      7  C   UNL     1       3.579   4.521  17.116  0.00  0.00    +0.000 C 
ATOM      8  N   UNL     1       2.418   4.537  18.052  0.00  0.00    +0.000 NA
ATOM      9  C   UNL     1       1.139   4.045  17.574  0.00  0.00    +0.000 C 
ENDROOT
BRANCH   2  10
ATOM     10  C   UNL     1       3.128   7.156  18.897  0.00  0.00    +0.000 A 
ATOM     11  C   UNL     1       2.237   7.459  19.946  0.00  0.00    +0.000 A 
ATOM     12  C   UNL     1       1.265   8.459  19.842  0.00  0.00    +0.000 A 
ATOM     13  C   UNL     1       1.132   9.196  18.667  0.00  0.00    +0.000 A 
ATOM     14  C   UNL     1       2.007   8.902  17.607  0.00  0.00    +0.000 A 
ATOM     15  C   UNL     1       2.982   7.891  17.713  0.00  0.00    +0.000 A 
BRANCH  13  16
ATOM     16  C   UNL     1       0.151  10.287  18.535  0.00  0.00    +0.000 A 
ATOM     17  N   UNL     1      -1.029  10.166  17.950  0.00  0.00    +0.000 NA
ATOM     18  C   UNL     1      -1.692  11.375  17.956  0.00  0.00    +0.000 A 
ATOM     19  C   UNL     1      -1.033  12.415  18.570  0.00  0.00    +0.000 A 
ATOM     20  S   UNL     1       0.471  11.866  19.168  0.00  0.00    +0.000 S 
ENDBRANCH  13  16
ENDBRANCH   2  10
BRANCH   1  21
ATOM     21  C   UNL     1       5.403   6.471  16.809  0.00  0.00    +0.000 C 
ATOM     22  O   UNL     1       5.187   6.559  15.604  0.00  0.00    +0.000 OA
BRANCH  21  24
ATOM     23  C   UNL     1       7.553   6.789  17.642  0.00  0.00    +0.000 C 
ATOM     24  O   UNL     1       6.232   7.314  17.483  0.00  0.00    +0.000 OA
ENDBRANCH  21  24
ENDBRANCH   1  21
TORSDOF 4
ENDMDL
MODEL 3
REMARK VINA RESULT:      -7.0      0.821      1.337
REMARK  Name = 
REMARK  6 active torsions:
REMARK  status: ('A' for Active; 'I' for Inactive)
REMARK    1  A    between atoms: C_1  and  O_2
REMARK    2  A    between atoms: O_2  and  C_3
REMARK    3  A    between atoms: C_3  and  C_5
REMARK    4  A    between atoms: C_6  and  C_7
REMARK    5  A    between atoms: C_10  and  C_11
REMARK    6  A    between atoms: N_23  and  C_24
REMARK                            x       y       z     vdW  Elec       q    Type
REMARK                         _______ _______ _______ _____ _____    ______ ____
ROOT
ATOM      1  C   UNL     1       5.148   3.958  17.867  0.00  0.00    +0.000 C 
ATOM      2  C   UNL     1       4.069   4.727  17.049  0.00  0.00    +0.000 C 
ATOM      3  C   UNL     1       4.836   5.210  15.773  0.00  0.00    +0.000 C 
ATOM      4  C   UNL     1       6.162   5.957  16.095  0.00  0.00    +0.000 C 
ATOM      5  C   UNL     1       7.446   5.125  15.989  0.00  0.00    +0.000 C 
ATOM      6  C   UNL     1       7.580   4.407  17.338  0.00  0.00    +0.000 C 
ATOM      7  C   UNL     1       6.375   4.900  18.155  0.00  0.00    +0.000 C 
ATOM      8  N   UNL     1       6.121   6.229  17.528  0.00  0.00    +0.000 NA
ATOM      9  C   UNL     1       6.937   7.356  17.944  0.00  0.00    +0.000 C 
ENDROOT
BRANCH   2  10
ATOM     10  C   UNL     1       3.321   5.839  17.822  0.00  0.00    +0.000 A 
ATOM     11  C   UNL     1       2.827   5.654  19.130  0.00  0.00    +0.000 A 
ATOM     12  C   UNL     1       2.198   6.676  19.847  0.00  0.00    +0.000 A 
ATOM     13  C   UNL     1       2.019   7.935  19.277  0.00  0.00    +0.000 A 
ATOM     14  C   UNL     1       2.497   8.134  17.970  0.00  0.00    +0.000 A 
ATOM     15  C   UNL     1       3.127   7.102  17.248  0.00  0.00    +0.000 A 
BRANCH  13  16
ATOM     16  C   UNL     1       1.401   9.048  20.017  0.00  0.00    +0.000 A 
ATOM     17  N   UNL     1       1.062  10.206  19.479  0.00  0.00    +0.000 NA
ATOM     18  C   UNL     1       0.545  11.048  20.443  0.00  0.00    +0.000 A 
ATOM     19  C   UNL     1       0.463  10.524  21.711  0.00  0.00    +0.000 A 
ATOM     20  S   UNL     1       1.047   8.918  21.706  0.00  0.00    +0.000 S 
ENDBRANCH  13  16
ENDBRANCH   2  10
BRANCH   1  21
ATOM     21  C   UNL     1       4.511   3.150  18.986  0.00  0.00    +0.000 C 
ATOM     22  O   UNL     1       4.893   3.215  20.150  0.00  0.00    +0.000 OA
BRANCH  21  24
ATOM     23  C   UNL     1       2.504   2.169  19.639  0.00  0.00    +0.000 C 
ATOM     24  O   UNL     1       3.448   2.400  18.589  0.00  0.00    +0.000 OA
ENDBRANCH  21  24
ENDBRANCH   1  21
TORSDOF 4
ENDMDL
MODEL 4
REMARK VINA RESULT:      -6.9      2.484      4.031
REMARK  Name = 
REMARK  6 active torsions:
REMARK  status: ('A' for Active; 'I' for Inactive)
REMARK    1  A    between atoms: C_1  and  O_2
REMARK    2  A    between atoms: O_2  and  C_3
REMARK    3  A    between atoms: C_3  and  C_5
REMARK    4  A    between atoms: C_6  and  C_7
REMARK    5  A    between atoms: C_10  and  C_11
REMARK    6  A    between atoms: N_23  and  C_24
REMARK                            x       y       z     vdW  Elec       q    Type
REMARK                         _______ _______ _______ _____ _____    ______ ____
ROOT
ATOM      1  C   UNL     1       4.626   5.015  18.095  0.00  0.00    +0.000 C 
ATOM      2  C   UNL     1       4.056   5.668  19.388  0.00  0.00    +0.000 C 
ATOM      3  C   UNL     1       3.421   4.469  20.168  0.00  0.00    +0.000 C 
ATOM      4  C   UNL     1       2.448   3.616  19.304  0.00  0.00    +0.000 C 
ATOM      5  C   UNL     1       3.028   2.326  18.713  0.00  0.00    +0.000 C 
ATOM      6  C   UNL     1       3.730   2.750  17.416  0.00  0.00    +0.000 C 
ATOM      7  C   UNL     1       3.479   4.263  17.323  0.00  0.00    +0.000 C 
ATOM      8  N   UNL     1       2.210   4.397  18.094  0.00  0.00    +0.000 NA
ATOM      9  C   UNL     1       0.958   4.090  17.425  0.00  0.00    +0.000 C 
ENDROOT
BRANCH   2  10
ATOM     10  C   UNL     1       3.111   6.873  19.161  0.00  0.00    +0.000 A 
ATOM     11  C   UNL     1       3.079   7.593  17.949  0.00  0.00    +0.000 A 
ATOM     12  C   UNL     1       2.189   8.648  17.725  0.00  0.00    +0.000 A 
ATOM     13  C   UNL     1       1.295   9.042  18.719  0.00  0.00    +0.000 A 
ATOM     14  C   UNL     1       1.320   8.340  19.937  0.00  0.00    +0.000 A 
ATOM     15  C   UNL     1       2.220   7.281  20.161  0.00  0.00    +0.000 A 
BRANCH  13  16
ATOM     16  C   UNL     1       0.313  10.119  18.505  0.00  0.00    +0.000 A 
ATOM     17  N   UNL     1      -0.858   9.957  17.914  0.00  0.00    +0.000 NA
ATOM     18  C   UNL     1      -1.525  11.162  17.833  0.00  0.00    +0.000 A 
ATOM     19  C   UNL     1      -0.877  12.241  18.388  0.00  0.00    +0.000 A 
ATOM     20  S   UNL     1       0.620  11.736  19.040  0.00  0.00    +0.000 S 
ENDBRANCH  13  16
ENDBRANCH   2  10
BRANCH   1  21
ATOM     21  C   UNL     1       5.553   5.972  17.364  0.00  0.00    +0.000 C 
ATOM     22  O   UNL     1       5.427   6.237  16.172  0.00  0.00    +0.000 OA
BRANCH  21  24
ATOM     23  C   UNL     1       7.419   7.361  17.436  0.00  0.00    +0.000 C 
ATOM     24  O   UNL     1       6.492   6.549  18.162  0.00  0.00    +0.000 OA
ENDBRANCH  21  24
ENDBRANCH   1  21
TORSDOF 4
ENDMDL
MODEL 5
REMARK VINA RESULT:      -6.9      2.438      3.960
REMARK  Name = 
REMARK  6 active torsions:
REMARK  status: ('A' for Active; 'I' for Inactive)
REMARK    1  A    between atoms: C_1  and  O_2
REMARK    2  A    between atoms: O_2  and  C_3
REMARK    3  A    between atoms: C_3  and  C_5
REMARK    4  A    between atoms: C_6  and  C_7
REMARK    5  A    between atoms: C_10  and  C_11
REMARK    6  A    between atoms: N_23  and  C_24
REMARK                            x       y       z     vdW  Elec       q    Type
REMARK                         _______ _______ _______ _____ _____    ______ ____
ROOT
ATOM      1  C   UNL     1       4.647   4.900  17.894  0.00  0.00    +0.000 C 
ATOM      2  C   UNL     1       4.236   5.620  19.212  0.00  0.00    +0.000 C 
ATOM      3  C   UNL     1       3.769   4.455  20.147  0.00  0.00    +0.000 C 
ATOM      4  C   UNL     1       2.723   3.513  19.486  0.00  0.00    +0.000 C 
ATOM      5  C   UNL     1       3.270   2.206  18.900  0.00  0.00    +0.000 C 
ATOM      6  C   UNL     1       3.764   2.565  17.492  0.00  0.00    +0.000 C 
ATOM      7  C   UNL     1       3.437   4.059  17.341  0.00  0.00    +0.000 C 
ATOM      8  N   UNL     1       2.284   4.201  18.276  0.00  0.00    +0.000 NA
ATOM      9  C   UNL     1       0.966   3.807  17.812  0.00  0.00    +0.000 C 
ENDROOT
BRANCH   2  10
ATOM     10  C   UNL     1       3.217   6.773  19.046  0.00  0.00    +0.000 A 
ATOM     11  C   UNL     1       2.293   7.120  20.054  0.00  0.00    +0.000 A 
ATOM     12  C   UNL     1       1.409   8.196  19.925  0.00  0.00    +0.000 A 
ATOM     13  C   UNL     1       1.400   8.969  18.765  0.00  0.00    +0.000 A 
ATOM     14  C   UNL     1       2.309   8.631  17.747  0.00  0.00    +0.000 A 
ATOM     15  C   UNL     1       3.195   7.544  17.878  0.00  0.00    +0.000 A 
BRANCH  13  16
ATOM     16  C   UNL     1       0.515  10.135  18.610  0.00  0.00    +0.000 A 
ATOM     17  N   UNL     1      -0.730  10.077  18.172  0.00  0.00    +0.000 NA
ATOM     18  C   UNL     1      -1.275  11.344  18.105  0.00  0.00    +0.000 A 
ATOM     19  C   UNL     1      -0.455  12.367  18.519  0.00  0.00    +0.000 A 
ATOM     20  S   UNL     1       1.051  11.731  19.015  0.00  0.00    +0.000 S 
ENDBRANCH  13  16
ENDBRANCH   2  10
BRANCH   1  21
ATOM     21  C   UNL     1       5.420   5.837  16.980  0.00  0.00    +0.000 C 
ATOM     22  O   UNL     1       6.360   6.520  17.373  0.00  0.00    +0.000 OA
BRANCH  21  24
ATOM     23  C   UNL     1       5.938   5.131  14.823  0.00  0.00    +0.000 C 
ATOM     24  O   UNL     1       5.013   5.804  15.683  0.00  0.00    +0.000 OA
ENDBRANCH  21  24
ENDBRANCH   1  21
TORSDOF 4
ENDMDL
MODEL 6
REMARK VINA RESULT:      -6.8      2.219      3.824
REMARK  Name = 
REMARK  6 active torsions:
REMARK  status: ('A' for Active; 'I' for Inactive)
REMARK    1  A    between atoms: C_1  and  O_2
REMARK    2  A    between atoms: O_2  and  C_3
REMARK    3  A    between atoms: C_3  and  C_5
REMARK    4  A    between atoms: C_6  and  C_7
REMARK    5  A    between atoms: C_10  and  C_11
REMARK    6  A    between atoms: N_23  and  C_24
REMARK                            x       y       z     vdW  Elec       q    Type
REMARK                         _______ _______ _______ _____ _____    ______ ____
ROOT
ATOM      1  C   UNL     1       4.594   4.253  17.823  0.00  0.00    +0.000 C 
ATOM      2  C   UNL     1       4.382   4.978  19.185  0.00  0.00    +0.000 C 
ATOM      3  C   UNL     1       3.886   3.845  20.143  0.00  0.00    +0.000 C 
ATOM      4  C   UNL     1       2.693   3.029  19.569  0.00  0.00    +0.000 C 
ATOM      5  C   UNL     1       3.046   1.688  18.915  0.00  0.00    +0.000 C 
ATOM      6  C   UNL     1       3.443   2.029  17.472  0.00  0.00    +0.000 C 
ATOM      7  C   UNL     1       3.259   3.552  17.375  0.00  0.00    +0.000 C 
ATOM      8  N   UNL     1       2.217   3.787  18.416  0.00  0.00    +0.000 NA
ATOM      9  C   UNL     1       0.828   3.539  18.072  0.00  0.00    +0.000 C 
ENDROOT
BRANCH   2  10
ATOM     10  C   UNL     1       3.477   6.232  19.133  0.00  0.00    +0.000 A 
ATOM     11  C   UNL     1       3.412   7.075  18.004  0.00  0.00    +0.000 A 
ATOM     12  C   UNL     1       2.555   8.178  17.938  0.00  0.00    +0.000 A 
ATOM     13  C   UNL     1       1.730   8.498  19.014  0.00  0.00    +0.000 A 
ATOM     14  C   UNL     1       1.788   7.674  20.151  0.00  0.00    +0.000 A 
ATOM     15  C   UNL     1       2.656   6.566  20.217  0.00  0.00    +0.000 A 
BRANCH  13  16
ATOM     16  C   UNL     1       0.782   9.625  18.964  0.00  0.00    +0.000 A 
ATOM     17  N   UNL     1      -0.075   9.839  17.981  0.00  0.00    +0.000 NA
ATOM     18  C   UNL     1      -0.791  10.995  18.214  0.00  0.00    +0.000 A 
ATOM     19  C   UNL     1      -0.502  11.650  19.388  0.00  0.00    +0.000 A 
ATOM     20  S   UNL     1       0.706  10.793  20.240  0.00  0.00    +0.000 S 
ENDBRANCH  13  16
ENDBRANCH   2  10
BRANCH   1  21
ATOM     21  C   UNL     1       5.373   5.129  16.855  0.00  0.00    +0.000 C 
ATOM     22  O   UNL     1       4.968   5.392  15.727  0.00  0.00    +0.000 OA
BRANCH  21  24
ATOM     23  C   UNL     1       7.577   4.671  17.446  0.00  0.00    +0.000 C 
ATOM     24  O   UNL     1       6.524   5.636  17.373  0.00  0.00    +0.000 OA
ENDBRANCH  21  24
ENDBRANCH   1  21
TORSDOF 4
ENDMDL
MODEL 7
REMARK VINA RESULT:      -6.8      2.279      3.945
REMARK  Name = 
REMARK  6 active torsions:
REMARK  status: ('A' for Active; 'I' for Inactive)
REMARK    1  A    between atoms: C_1  and  O_2
REMARK    2  A    between atoms: O_2  and  C_3
REMARK    3  A    between atoms: C_3  and  C_5
REMARK    4  A    between atoms: C_6  and  C_7
REMARK    5  A    between atoms: C_10  and  C_11
REMARK    6  A    between atoms: N_23  and  C_24
REMARK                            x       y       z     vdW  Elec       q    Type
REMARK                         _______ _______ _______ _____ _____    ______ ____
ROOT
ATOM      1  C   UNL     1       4.562   4.465  17.887  0.00  0.00    +0.000 C 
ATOM      2  C   UNL     1       4.273   5.213  19.221  0.00  0.00    +0.000 C 
ATOM      3  C   UNL     1       3.781   4.085  20.188  0.00  0.00    +0.000 C 
ATOM      4  C   UNL     1       2.639   3.214  19.590  0.00  0.00    +0.000 C 
ATOM      5  C   UNL     1       3.064   1.872  18.982  0.00  0.00    +0.000 C 
ATOM      6  C   UNL     1       3.503   2.194  17.547  0.00  0.00    +0.000 C 
ATOM      7  C   UNL     1       3.269   3.706  17.407  0.00  0.00    +0.000 C 
ATOM      8  N   UNL     1       2.181   3.928  18.402  0.00  0.00    +0.000 NA
ATOM      9  C   UNL     1       0.816   3.623  18.014  0.00  0.00    +0.000 C 
ENDROOT
BRANCH   2  10
ATOM     10  C   UNL     1       3.327   6.433  19.105  0.00  0.00    +0.000 A 
ATOM     11  C   UNL     1       2.443   6.808  20.138  0.00  0.00    +0.000 A 
ATOM     12  C   UNL     1       1.627   7.941  20.054  0.00  0.00    +0.000 A 
ATOM     13  C   UNL     1       1.648   8.745  18.916  0.00  0.00    +0.000 A 
ATOM     14  C   UNL     1       2.517   8.380  17.873  0.00  0.00    +0.000 A 
ATOM     15  C   UNL     1       3.335   7.236  17.959  0.00  0.00    +0.000 A 
BRANCH  13  16
ATOM     16  C   UNL     1       0.836   9.969  18.809  0.00  0.00    +0.000 A 
ATOM     17  N   UNL     1      -0.485   9.990  18.779  0.00  0.00    +0.000 NA
ATOM     18  C   UNL     1      -0.940  11.285  18.634  0.00  0.00    +0.000 A 
ATOM     19  C   UNL     1       0.032  12.256  18.581  0.00  0.00    +0.000 A 
ATOM     20  S   UNL     1       1.574  11.532  18.721  0.00  0.00    +0.000 S 
ENDBRANCH  13  16
ENDBRANCH   2  10
BRANCH   1  21
ATOM     21  C   UNL     1       5.345   5.346  16.926  0.00  0.00    +0.000 C 
ATOM     22  O   UNL     1       4.909   5.682  15.830  0.00  0.00    +0.000 OA
BRANCH  21  24
ATOM     23  C   UNL     1       7.500   4.716  17.538  0.00  0.00    +0.000 C 
ATOM     24  O   UNL     1       6.540   5.770  17.417  0.00  0.00    +0.000 OA
ENDBRANCH  21  24
ENDBRANCH   1  21
TORSDOF 4
ENDMDL
MODEL 8
REMARK VINA RESULT:      -6.8      2.459      3.896
REMARK  Name = 
REMARK  6 active torsions:
REMARK  status: ('A' for Active; 'I' for Inactive)
REMARK    1  A    between atoms: C_1  and  O_2
REMARK    2  A    between atoms: O_2  and  C_3
REMARK    3  A    between atoms: C_3  and  C_5
REMARK    4  A    between atoms: C_6  and  C_7
REMARK    5  A    between atoms: C_10  and  C_11
REMARK    6  A    between atoms: N_23  and  C_24
REMARK                            x       y       z     vdW  Elec       q    Type
REMARK                         _______ _______ _______ _____ _____    ______ ____
ROOT
ATOM      1  C   UNL     1       4.582   4.929  18.081  0.00  0.00    +0.000 C 
ATOM      2  C   UNL     1       4.049   5.608  19.377  0.00  0.00    +0.000 C 
ATOM      3  C   UNL     1       3.403   4.432  20.182  0.00  0.00    +0.000 C 
ATOM      4  C   UNL     1       2.397   3.591  19.345  0.00  0.00    +0.000 C 
ATOM      5  C   UNL     1       2.938   2.282  18.759  0.00  0.00    +0.000 C 
ATOM      6  C   UNL     1       3.625   2.676  17.445  0.00  0.00    +0.000 C 
ATOM      7  C   UNL     1       3.405   4.194  17.339  0.00  0.00    +0.000 C 
ATOM      8  N   UNL     1       2.153   4.363  18.131  0.00  0.00    +0.000 NA
ATOM      9  C   UNL     1       0.884   4.076  17.488  0.00  0.00    +0.000 C 
ENDROOT
BRANCH   2  10
ATOM     10  C   UNL     1       3.127   6.831  19.153  0.00  0.00    +0.000 A 
ATOM     11  C   UNL     1       3.113   7.559  17.945  0.00  0.00    +0.000 A 
ATOM     12  C   UNL     1       2.242   8.631  17.724  0.00  0.00    +0.000 A 
ATOM     13  C   UNL     1       1.350   9.034  18.716  0.00  0.00    +0.000 A 
ATOM     14  C   UNL     1       1.357   8.325  19.930  0.00  0.00    +0.000 A 
ATOM     15  C   UNL     1       2.239   7.248  20.151  0.00  0.00    +0.000 A 
BRANCH  13  16
ATOM     16  C   UNL     1       0.388  10.129  18.504  0.00  0.00    +0.000 A 
ATOM     17  N   UNL     1       0.597  11.386  18.853  0.00  0.00    +0.000 NA
ATOM     18  C   UNL     1      -0.509  12.156  18.556  0.00  0.00    +0.000 A 
ATOM     19  C   UNL     1      -1.553  11.493  17.953  0.00  0.00    +0.000 A 
ATOM     20  S   UNL     1      -1.141   9.847  17.745  0.00  0.00    +0.000 S 
ENDBRANCH  13  16
ENDBRANCH   2  10
BRANCH   1  21
ATOM     21  C   UNL     1       5.516   5.858  17.323  0.00  0.00    +0.000 C 
ATOM     22  O   UNL     1       6.399   6.505  17.876  0.00  0.00    +0.000 OA
BRANCH  21  24
ATOM     23  C   UNL     1       6.348   5.168  15.262  0.00  0.00    +0.000 C 
ATOM     24  O   UNL     1       5.320   5.859  15.977  0.00  0.00    +0.000 OA
ENDBRANCH  21  24
ENDBRANCH   1  21
TORSDOF 4
ENDMDL
MODEL 9
REMARK VINA RESULT:      -6.7      2.266      3.978
REMARK  Name = 
REMARK  6 active torsions:
REMARK  status: ('A' for Active; 'I' for Inactive)
REMARK    1  A    between atoms: C_1  and  O_2
REMARK    2  A    between atoms: O_2  and  C_3
REMARK    3  A    between atoms: C_3  and  C_5
REMARK    4  A    between atoms: C_6  and  C_7
REMARK    5  A    between atoms: C_10  and  C_11
REMARK    6  A    between atoms: N_23  and  C_24
REMARK                            x       y       z     vdW  Elec       q    Type
REMARK                         _______ _______ _______ _____ _____    ______ ____
ROOT
ATOM      1  C   UNL     1       4.132   4.433  19.048  0.00  0.00    +0.000 C 
ATOM      2  C   UNL     1       3.271   5.070  20.179  0.00  0.00    +0.000 C 
ATOM      3  C   UNL     1       2.236   3.954  20.540  0.00  0.00    +0.000 C 
ATOM      4  C   UNL     1       1.487   3.383  19.301  0.00  0.00    +0.000 C 
ATOM      5  C   UNL     1       2.023   2.060  18.740  0.00  0.00    +0.000 C 
ATOM      6  C   UNL     1       3.174   2.451  17.803  0.00  0.00    +0.000 C 
ATOM      7  C   UNL     1       3.205   3.987  17.856  0.00  0.00    +0.000 C 
ATOM      8  N   UNL     1       1.789   4.296  18.204  0.00  0.00    +0.000 NA
ATOM      9  C   UNL     1       0.800   4.296  17.140  0.00  0.00    +0.000 C 
ENDROOT
BRANCH   2  10
ATOM     10  C   UNL     1       2.655   6.450  19.845  0.00  0.00    +0.000 A 
ATOM     11  C   UNL     1       2.839   7.081  18.597  0.00  0.00    +0.000 A 
ATOM     12  C   UNL     1       2.239   8.303  18.278  0.00  0.00    +0.000 A 
ATOM     13  C   UNL     1       1.434   8.960  19.206  0.00  0.00    +0.000 A 
ATOM     14  C   UNL     1       1.247   8.349  20.458  0.00  0.00    +0.000 A 
ATOM     15  C   UNL     1       1.856   7.120  20.779  0.00  0.00    +0.000 A 
BRANCH  13  16
ATOM     16  C   UNL     1       0.749  10.225  18.890  0.00  0.00    +0.000 A 
ATOM     17  N   UNL     1       1.304  11.421  18.989  0.00  0.00    +0.000 NA
ATOM     18  C   UNL     1       0.391  12.402  18.660  0.00  0.00    +0.000 A 
ATOM     19  C   UNL     1      -0.854  11.955  18.283  0.00  0.00    +0.000 A 
ATOM     20  S   UNL     1      -0.890  10.247  18.335  0.00  0.00    +0.000 S 
ENDBRANCH  13  16
ENDBRANCH   2  10
BRANCH   1  21
ATOM     21  C   UNL     1       5.385   5.253  18.790  0.00  0.00    +0.000 C 
ATOM     22  O   UNL     1       6.175   5.553  19.679  0.00  0.00    +0.000 OA
BRANCH  21  24
ATOM     23  C   UNL     1       6.481   6.664  17.299  0.00  0.00    +0.000 C 
ATOM     24  O   UNL     1       5.578   5.570  17.481  0.00  0.00    +0.000 OA
ENDBRANCH  21  24
ENDBRANCH   1  21
TORSDOF 4
ENDMDL
