MODEL 1
REMARK VINA RESULT:      -7.1      0.000      0.000
REMARK  Name = 
REMARK  11 active torsions:
REMARK  status: ('A' for Active; 'I' for Inactive)
REMARK    1  A    between atoms: C_1  and  C_2
REMARK    2  A    between atoms: C_2  and  O_3
REMARK    3  A    between atoms: O_3  and  P_4
REMARK    4  A    between atoms: P_4  and  C_6
REMARK    5  A    between atoms: P_4  and  O_24
REMARK    6  A    between atoms: C_6  and  C_7
REMARK    7  A    between atoms: N_13  and  C_14
REMARK    8  A    between atoms: C_17  and  C_18
REMARK    9  A    between atoms: C_18  and  O_19
REMARK   10  A    between atoms: O_24  and  C_25
REMARK   11  A    between atoms: C_25  and  C_26
REMARK                            x       y       z     vdW  Elec       q    Type
REMARK                         _______ _______ _______ _____ _____    ______ ____
ROOT
ATOM      1  C   UNL     1       4.552   6.238  16.984  0.00  0.00    +0.000 C 
ATOM      2  O   UNL     1       4.813   7.323  16.459  0.00  0.00    +0.000 OA
ATOM      3  N   UNL     1       3.686   6.076  18.062  0.00  0.00    +0.000 N 
ATOM      4  C   UNL     1       2.824   7.019  18.587  0.00  0.00    +0.000 A 
ATOM      5  C   UNL     1       2.367   8.073  17.678  0.00  0.00    +0.000 A 
ATOM      6  C   UNL     1       1.636   9.025  18.246  0.00  0.00    +0.000 A 
ATOM      7  N   UNL     1       1.348   9.019  19.593  0.00  0.00    +0.000 N 
ATOM      8  C   UNL     1       1.667   7.893  20.374  0.00  0.00    +0.000 A 
ATOM      9  O   UNL     1       1.256   7.797  21.532  0.00  0.00    +0.000 OA
ATOM     10  N   UNL     1       2.465   6.904  19.818  0.00  0.00    +0.000 NA
ATOM     11  H   UNL     1       3.865   5.295  18.684  0.00  0.00    +0.000 HD
ENDROOT
BRANCH   7  12
ATOM     12  C   UNL     1       0.506  10.067  20.200  0.00  0.00    +0.000 C 
ATOM     13  C   UNL     1       0.938  11.528  19.964  0.00  0.00    +0.000 C 
ATOM     14  S   UNL     1       0.042  12.086  18.495  0.00  0.00    +0.000 S 
ATOM     15  C   UNL     1      -1.039  10.641  18.524  0.00  0.00    +0.000 C 
ATOM     16  O   UNL     1      -0.872   9.956  19.773  0.00  0.00    +0.000 OA
BRANCH  15  17
ATOM     17  C   UNL     1      -2.516  10.984  18.304  0.00  0.00    +0.000 C 
BRANCH  17  18
ATOM     18  O   UNL     1      -2.690  11.992  17.311  0.00  0.00    +0.000 OA
ATOM     19  H   UNL     1      -1.799  12.320  17.087  0.00  0.00    +0.000 HD
ENDBRANCH  17  18
ENDBRANCH  15  17
ENDBRANCH   7  12
BRANCH   1  20
ATOM     20  C   UNL     1       5.290   5.015  16.527  0.00  0.00    +0.000 C 
BRANCH  20  21
ATOM     21  P   UNL     1       7.107   5.475  16.494  0.00  0.00    +0.000 P 
ATOM     22  O   UNL     1       7.881   4.209  16.884  0.00  0.00    +0.000 OA
BRANCH  21  23
ATOM     23  O   UNL     1       6.958   5.898  18.164  0.00  0.00    +0.000 OA
BRANCH  23  25
ATOM     24  C   UNL     1       7.919   8.065  17.814  0.00  0.00    +0.000 C 
ATOM     25  C   UNL     1       8.002   6.768  18.586  0.00  0.00    +0.000 C 
ENDBRANCH  23  25
ENDBRANCH  21  23
BRANCH  21  26
ATOM     26  O   UNL     1       7.257   5.052  14.823  0.00  0.00    +0.000 OA
BRANCH  26  27
ATOM     27  C   UNL     1       6.226   4.165  14.409  0.00  0.00    +0.000 C 
ATOM     28  C   UNL     1       6.412   3.816  12.949  0.00  0.00    +0.000 C 
ENDBRANCH  26  27
ENDBRANCH  21  26
ENDBRANCH  20  21
ENDBRANCH   1  20
TORSDOF 9
ENDMDL
MODEL 2
REMARK VINA RESULT:      -7.0      1.977      2.776
REMARK  Name = 
REMARK  11 active torsions:
REMARK  status: ('A' for Active; 'I' for Inactive)
REMARK    1  A    between atoms: C_1  and  C_2
REMARK    2  A    between atoms: C_2  and  O_3
REMARK    3  A    between atoms: O_3  and  P_4
REMARK    4  A    between atoms: P_4  and  C_6
REMARK    5  A    between atoms: P_4  and  O_24
REMARK    6  A    between atoms: C_6  and  C_7
REMARK    7  A    between atoms: N_13  and  C_14
REMARK    8  A    between atoms: C_17  and  C_18
REMARK    9  A    between atoms: C_18  and  O_19
REMARK   10  A    between atoms: O_24  and  C_25
REMARK   11  A    between atoms: C_25  and  C_26
REMARK                            x       y       z     vdW  Elec       q    Type
REMARK                         _______ _______ _______ _____ _____    ______ ____
ROOT
ATOM      1  C   UNL     1       3.553   6.241  17.736  0.00  0.00    +0.000 C 
ATOM      2  O   UNL     1       4.075   7.188  17.143  0.00  0.00    +0.000 OA
ATOM      3  N   UNL     1       2.668   6.374  18.801  0.00  0.00    +0.000 N 
ATOM      4  C   UNL     1       2.061   7.534  19.240  0.00  0.00    +0.000 A 
ATOM      5  C   UNL     1       1.881   8.599  18.251  0.00  0.00    +0.000 A 
ATOM      6  C   UNL     1       1.403   9.739  18.734  0.00  0.00    +0.000 A 
ATOM      7  N   UNL     1       1.115   9.902  20.072  0.00  0.00    +0.000 N 
ATOM      8  C   UNL     1       1.143   8.791  20.935  0.00  0.00    +0.000 A 
ATOM      9  O   UNL     1       0.715   8.882  22.087  0.00  0.00    +0.000 OA
ATOM     10  N   UNL     1       1.678   7.600  20.467  0.00  0.00    +0.000 NA
ATOM     11  H   UNL     1       2.646   5.620  19.480  0.00  0.00    +0.000 HD
ENDROOT
BRANCH   7  12
ATOM     12  C   UNL     1       0.552  11.165  20.586  0.00  0.00    +0.000 C 
ATOM     13  C   UNL     1       1.008  12.462  19.888  0.00  0.00    +0.000 C 
ATOM     14  S   UNL     1      -0.215  12.797  18.599  0.00  0.00    +0.000 S 
ATOM     15  C   UNL     1      -1.349  11.557  19.260  0.00  0.00    +0.000 C 
ATOM     16  O   UNL     1      -0.895  11.152  20.558  0.00  0.00    +0.000 OA
BRANCH  15  17
ATOM     17  C   UNL     1      -2.800  12.044  19.337  0.00  0.00    +0.000 C 
BRANCH  17  18
ATOM     18  O   UNL     1      -3.417  12.095  18.052  0.00  0.00    +0.000 OA
ATOM     19  H   UNL     1      -3.218  12.975  17.682  0.00  0.00    +0.000 HD
ENDBRANCH  17  18
ENDBRANCH  15  17
ENDBRANCH   7  12
BRANCH   1  20
ATOM     20  C   UNL     1       3.971   4.845  17.381  0.00  0.00    +0.000 C 
BRANCH  20  21
ATOM     21  P   UNL     1       5.002   4.220  18.817  0.00  0.00    +0.000 P 
ATOM     22  O   UNL     1       5.187   5.409  19.768  0.00  0.00    +0.000 OA
BRANCH  21  23
ATOM     23  O   UNL     1       6.404   4.710  17.932  0.00  0.00    +0.000 OA
BRANCH  23  25
ATOM     24  C   UNL     1       7.526   6.810  17.655  0.00  0.00    +0.000 C 
ATOM     25  C   UNL     1       7.143   5.712  18.621  0.00  0.00    +0.000 C 
ENDBRANCH  23  25
ENDBRANCH  21  23
BRANCH  21  26
ATOM     26  O   UNL     1       3.599   3.729  19.703  0.00  0.00    +0.000 OA
BRANCH  26  27
ATOM     27  C   UNL     1       2.861   2.730  19.011  0.00  0.00    +0.000 C 
ATOM     28  C   UNL     1       1.404   2.807  19.410  0.00  0.00    +0.000 C 
ENDBRANCH  26  27
ENDBRANCH  21  26
ENDBRANCH  20  21
ENDBRANCH   1  20
TORSDOF 9
ENDMDL
MODEL 3
REMARK VINA RESULT:      -6.6      2.203      3.309
REMARK  Name = 
REMARK  11 active torsions:
REMARK  status: ('A' for Active; 'I' for Inactive)
REMARK    1  A    between atoms: C_1  and  C_2
REMARK    2  A    between atoms: C_2  and  O_3
REMARK    3  A    between atoms: O_3  and  P_4
REMARK    4  A    between atoms: P_4  and  C_6
REMARK    5  A    between atoms: P_4  and  O_24
REMARK    6  A    between atoms: C_6  and  C_7
REMARK    7  A    between atoms: N_13  and  C_14
REMARK    8  A    between atoms: C_17  and  C_18
REMARK    9  A    between atoms: C_18  and  O_19
REMARK   10  A    between atoms: O_24  and  C_25
REMARK   11  A    between atoms: C_25  and  C_26
REMARK                            x       y       z     vdW  Elec       q    Type
REMARK                         _______ _______ _______ _____ _____    ______ ____
ROOT
ATOM      1  C   UNL     1       3.595   6.532  17.785  0.00  0.00    +0.000 C 
ATOM      2  O   UNL     1       4.051   7.477  17.136  0.00  0.00    +0.000 OA
ATOM      3  N   UNL     1       2.717   6.666  18.857  0.00  0.00    +0.000 N 
ATOM      4  C   UNL     1       2.048   7.810  19.247  0.00  0.00    +0.000 A 
ATOM      5  C   UNL     1       1.791   8.810  18.208  0.00  0.00    +0.000 A 
ATOM      6  C   UNL     1       1.252   9.943  18.641  0.00  0.00    +0.000 A 
ATOM      7  N   UNL     1       0.972  10.156  19.974  0.00  0.00    +0.000 N 
ATOM      8  C   UNL     1       1.080   9.095  20.892  0.00  0.00    +0.000 A 
ATOM      9  O   UNL     1       0.662   9.220  22.044  0.00  0.00    +0.000 OA
ATOM     10  N   UNL     1       1.678   7.915  20.475  0.00  0.00    +0.000 NA
ATOM     11  H   UNL     1       2.751   5.949  19.573  0.00  0.00    +0.000 HD
ENDROOT
BRANCH   7  12
ATOM     12  C   UNL     1       0.341  11.408  20.432  0.00  0.00    +0.000 C 
ATOM     13  C   UNL     1       0.698  12.690  19.653  0.00  0.00    +0.000 C 
ATOM     14  S   UNL     1      -0.573  12.875  18.380  0.00  0.00    +0.000 S 
ATOM     15  C   UNL     1      -1.610  11.606  19.138  0.00  0.00    +0.000 C 
ATOM     16  O   UNL     1      -1.101  11.304  20.444  0.00  0.00    +0.000 OA
BRANCH  15  17
ATOM     17  C   UNL     1      -3.088  12.004  19.226  0.00  0.00    +0.000 C 
BRANCH  17  18
ATOM     18  O   UNL     1      -3.267  13.262  19.873  0.00  0.00    +0.000 OA
ATOM     19  H   UNL     1      -2.855  13.183  20.753  0.00  0.00    +0.000 HD
ENDBRANCH  17  18
ENDBRANCH  15  17
ENDBRANCH   7  12
BRANCH   1  20
ATOM     20  C   UNL     1       4.091   5.147  17.494  0.00  0.00    +0.000 C 
BRANCH  20  21
ATOM     21  P   UNL     1       4.631   4.422  19.137  0.00  0.00    +0.000 P 
ATOM     22  O   UNL     1       5.854   3.545  18.843  0.00  0.00    +0.000 OA
BRANCH  21  23
ATOM     23  O   UNL     1       3.590   3.081  18.806  0.00  0.00    +0.000 OA
BRANCH  23  25
ATOM     24  C   UNL     1       1.202   3.018  18.610  0.00  0.00    +0.000 C 
ATOM     25  C   UNL     1       2.379   3.153  19.550  0.00  0.00    +0.000 C 
ENDBRANCH  23  25
ENDBRANCH  21  23
BRANCH  21  26
ATOM     26  O   UNL     1       5.672   5.764  19.469  0.00  0.00    +0.000 OA
BRANCH  26  27
ATOM     27  C   UNL     1       7.025   5.472  19.148  0.00  0.00    +0.000 C 
ATOM     28  C   UNL     1       7.596   6.584  18.297  0.00  0.00    +0.000 C 
ENDBRANCH  26  27
ENDBRANCH  21  26
ENDBRANCH  20  21
ENDBRANCH   1  20
TORSDOF 9
ENDMDL
MODEL 4
REMARK VINA RESULT:      -6.6      3.416      8.438
REMARK  Name = 
REMARK  11 active torsions:
REMARK  status: ('A' for Active; 'I' for Inactive)
REMARK    1  A    between atoms: C_1  and  C_2
REMARK    2  A    between atoms: C_2  and  O_3
REMARK    3  A    between atoms: O_3  and  P_4
REMARK    4  A    between atoms: P_4  and  C_6
REMARK    5  A    between atoms: P_4  and  O_24
REMARK    6  A    between atoms: C_6  and  C_7
REMARK    7  A    between atoms: N_13  and  C_14
REMARK    8  A    between atoms: C_17  and  C_18
REMARK    9  A    between atoms: C_18  and  O_19
REMARK   10  A    between atoms: O_24  and  C_25
REMARK   11  A    between atoms: C_25  and  C_26
REMARK                            x       y       z     vdW  Elec       q    Type
REMARK                         _______ _______ _______ _____ _____    ______ ____
ROOT
ATOM      1  C   UNL     1       0.443   9.908  18.911  0.00  0.00    +0.000 C 
ATOM      2  O   UNL     1       0.440   9.801  17.682  0.00  0.00    +0.000 OA
ATOM      3  N   UNL     1       1.029   8.989  19.777  0.00  0.00    +0.000 N 
ATOM      4  C   UNL     1       1.867   7.944  19.441  0.00  0.00    +0.000 A 
ATOM      5  C   UNL     1       2.639   8.090  18.204  0.00  0.00    +0.000 A 
ATOM      6  C   UNL     1       3.342   7.020  17.853  0.00  0.00    +0.000 A 
ATOM      7  N   UNL     1       3.329   5.860  18.597  0.00  0.00    +0.000 N 
ATOM      8  C   UNL     1       2.710   5.844  19.860  0.00  0.00    +0.000 A 
ATOM      9  O   UNL     1       2.845   4.877  20.612  0.00  0.00    +0.000 OA
ATOM     10  N   UNL     1       1.934   6.932  20.233  0.00  0.00    +0.000 NA
ATOM     11  H   UNL     1       0.623   8.905  20.703  0.00  0.00    +0.000 HD
ENDROOT
BRANCH   7  12
ATOM     12  C   UNL     1       4.144   4.694  18.210  0.00  0.00    +0.000 C 
ATOM     13  C   UNL     1       4.382   4.484  16.701  0.00  0.00    +0.000 C 
ATOM     14  S   UNL     1       5.941   5.316  16.317  0.00  0.00    +0.000 S 
ATOM     15  C   UNL     1       6.341   5.518  18.066  0.00  0.00    +0.000 C 
ATOM     16  O   UNL     1       5.443   4.718  18.847  0.00  0.00    +0.000 OA
BRANCH  15  17
ATOM     17  C   UNL     1       7.793   5.161  18.400  0.00  0.00    +0.000 C 
BRANCH  17  18
ATOM     18  O   UNL     1       8.247   4.022  17.674  0.00  0.00    +0.000 OA
ATOM     19  H   UNL     1       7.672   3.944  16.890  0.00  0.00    +0.000 HD
ENDBRANCH  17  18
ENDBRANCH  15  17
ENDBRANCH   7  12
BRANCH   1  20
ATOM     20  C   UNL     1      -0.325  11.029  19.542  0.00  0.00    +0.000 C 
BRANCH  20  21
ATOM     21  P   UNL     1       0.941  12.141  20.365  0.00  0.00    +0.000 P 
ATOM     22  O   UNL     1       0.154  13.283  21.020  0.00  0.00    +0.000 OA
BRANCH  21  23
ATOM     23  O   UNL     1       1.010  13.037  18.887  0.00  0.00    +0.000 OA
BRANCH  23  25
ATOM     24  C   UNL     1       2.405  14.984  18.786  0.00  0.00    +0.000 C 
ATOM     25  C   UNL     1       2.330  13.485  18.600  0.00  0.00    +0.000 C 
ENDBRANCH  23  25
ENDBRANCH  21  23
BRANCH  21  26
ATOM     26  O   UNL     1       0.872  11.245  21.844  0.00  0.00    +0.000 OA
BRANCH  26  27
ATOM     27  C   UNL     1      -0.451  11.178  22.358  0.00  0.00    +0.000 C 
ATOM     28  C   UNL     1      -0.619   9.909  23.163  0.00  0.00    +0.000 C 
ENDBRANCH  26  27
ENDBRANCH  21  26
ENDBRANCH  20  21
ENDBRANCH   1  20
TORSDOF 9
ENDMDL
MODEL 5
REMARK VINA RESULT:      -6.6      2.629      3.631
REMARK  Name = 
REMARK  11 active torsions:
REMARK  status: ('A' for Active; 'I' for Inactive)
REMARK    1  A    between atoms: C_1  and  C_2
REMARK    2  A    between atoms: C_2  and  O_3
REMARK    3  A    between atoms: O_3  and  P_4
REMARK    4  A    between atoms: P_4  and  C_6
REMARK    5  A    between atoms: P_4  and  O_24
REMARK    6  A    between atoms: C_6  and  C_7
REMARK    7  A    between atoms: N_13  and  C_14
REMARK    8  A    between atoms: C_17  and  C_18
REMARK    9  A    between atoms: C_18  and  O_19
REMARK   10  A    between atoms: O_24  and  C_25
REMARK   11  A    between atoms: C_25  and  C_26
REMARK                            x       y       z     vdW  Elec       q    Type
REMARK                         _______ _______ _______ _____ _____    ______ ____
ROOT
ATOM      1  C   UNL     1       3.350   6.206  19.038  0.00  0.00    +0.000 C 
ATOM      2  O   UNL     1       3.828   6.963  18.189  0.00  0.00    +0.000 OA
ATOM      3  N   UNL     1       2.494   6.611  20.058  0.00  0.00    +0.000 N 
ATOM      4  C   UNL     1       1.871   7.838  20.185  0.00  0.00    +0.000 A 
ATOM      5  C   UNL     1       1.633   8.587  18.949  0.00  0.00    +0.000 A 
ATOM      6  C   UNL     1       1.140   9.808  19.119  0.00  0.00    +0.000 A 
ATOM      7  N   UNL     1       0.888  10.326  20.371  0.00  0.00    +0.000 N 
ATOM      8  C   UNL     1       0.973   9.496  21.504  0.00  0.00    +0.000 A 
ATOM      9  O   UNL     1       0.578   9.893  22.601  0.00  0.00    +0.000 OA
ATOM     10  N   UNL     1       1.524   8.231  21.360  0.00  0.00    +0.000 NA
ATOM     11  H   UNL     1       2.514   6.073  20.918  0.00  0.00    +0.000 HD
ENDROOT
BRANCH   7  12
ATOM     12  C   UNL     1       0.308  11.672  20.539  0.00  0.00    +0.000 C 
ATOM     13  C   UNL     1       0.645  12.713  19.453  0.00  0.00    +0.000 C 
ATOM     14  S   UNL     1      -0.692  12.623  18.238  0.00  0.00    +0.000 S 
ATOM     15  C   UNL     1      -1.709  11.611  19.334  0.00  0.00    +0.000 C 
ATOM     16  O   UNL     1      -1.133  11.619  20.648  0.00  0.00    +0.000 OA
BRANCH  15  17
ATOM     17  C   UNL     1      -3.171  12.066  19.396  0.00  0.00    +0.000 C 
BRANCH  17  18
ATOM     18  O   UNL     1      -3.306  13.365  19.967  0.00  0.00    +0.000 OA
ATOM     19  H   UNL     1      -2.414  13.762  19.970  0.00  0.00    +0.000 HD
ENDBRANCH  17  18
ENDBRANCH  15  17
ENDBRANCH   7  12
BRANCH   1  20
ATOM     20  C   UNL     1       3.794   4.775  19.064  0.00  0.00    +0.000 C 
BRANCH  20  21
ATOM     21  P   UNL     1       2.539   3.813  18.055  0.00  0.00    +0.000 P 
ATOM     22  O   UNL     1       1.499   4.832  17.572  0.00  0.00    +0.000 OA
BRANCH  21  23
ATOM     23  O   UNL     1       1.641   3.589  19.516  0.00  0.00    +0.000 OA
BRANCH  23  25
ATOM     24  C   UNL     1       1.720   2.958  21.827  0.00  0.00    +0.000 C 
ATOM     25  C   UNL     1       2.359   2.809  20.465  0.00  0.00    +0.000 C 
ENDBRANCH  23  25
ENDBRANCH  21  23
BRANCH  21  26
ATOM     26  O   UNL     1       3.437   4.037  16.593  0.00  0.00    +0.000 OA
BRANCH  26  27
ATOM     27  C   UNL     1       4.825   3.797  16.785  0.00  0.00    +0.000 C 
ATOM     28  C   UNL     1       5.608   4.396  15.638  0.00  0.00    +0.000 C 
ENDBRANCH  26  27
ENDBRANCH  21  26
ENDBRANCH  20  21
ENDBRANCH   1  20
TORSDOF 9
ENDMDL
MODEL 6
REMARK VINA RESULT:      -6.5      2.808      4.119
REMARK  Name = 
REMARK  11 active torsions:
REMARK  status: ('A' for Active; 'I' for Inactive)
REMARK    1  A    between atoms: C_1  and  C_2
REMARK    2  A    between atoms: C_2  and  O_3
REMARK    3  A    between atoms: O_3  and  P_4
REMARK    4  A    between atoms: P_4  and  C_6
REMARK    5  A    between atoms: P_4  and  O_24
REMARK    6  A    between atoms: C_6  and  C_7
REMARK    7  A    between atoms: N_13  and  C_14
REMARK    8  A    between atoms: C_17  and  C_18
REMARK    9  A    between atoms: C_18  and  O_19
REMARK   10  A    between atoms: O_24  and  C_25
REMARK   11  A    between atoms: C_25  and  C_26
REMARK                            x       y       z     vdW  Elec       q    Type
REMARK                         _______ _______ _______ _____ _____    ______ ____
ROOT
ATOM      1  C   UNL     1       3.132   6.316  18.950  0.00  0.00    +0.000 C 
ATOM      2  O   UNL     1       3.569   7.086  18.091  0.00  0.00    +0.000 OA
ATOM      3  N   UNL     1       2.355   6.710  20.036  0.00  0.00    +0.000 N 
ATOM      4  C   UNL     1       1.769   7.944  20.236  0.00  0.00    +0.000 A 
ATOM      5  C   UNL     1       1.465   8.732  19.039  0.00  0.00    +0.000 A 
ATOM      6  C   UNL     1       1.011   9.957  19.274  0.00  0.00    +0.000 A 
ATOM      7  N   UNL     1       0.855  10.446  20.553  0.00  0.00    +0.000 N 
ATOM      8  C   UNL     1       0.997   9.584  21.655  0.00  0.00    +0.000 A 
ATOM      9  O   UNL     1       0.685   9.958  22.787  0.00  0.00    +0.000 OA
ATOM     10  N   UNL     1       1.510   8.313  21.442  0.00  0.00    +0.000 NA
ATOM     11  H   UNL     1       2.420   6.148  20.878  0.00  0.00    +0.000 HD
ENDROOT
BRANCH   7  12
ATOM     12  C   UNL     1       0.317  11.798  20.795  0.00  0.00    +0.000 C 
ATOM     13  C   UNL     1       0.708  12.892  19.781  0.00  0.00    +0.000 C 
ATOM     14  S   UNL     1      -0.608  12.922  18.541  0.00  0.00    +0.000 S 
ATOM     15  C   UNL     1      -1.678  11.881  19.556  0.00  0.00    +0.000 C 
ATOM     16  O   UNL     1      -1.127  11.789  20.876  0.00  0.00    +0.000 OA
BRANCH  15  17
ATOM     17  C   UNL     1      -3.125  12.381  19.621  0.00  0.00    +0.000 C 
BRANCH  17  18
ATOM     18  O   UNL     1      -3.209  13.720  20.103  0.00  0.00    +0.000 OA
ATOM     19  H   UNL     1      -2.292  14.039  20.201  0.00  0.00    +0.000 HD
ENDBRANCH  17  18
ENDBRANCH  15  17
ENDBRANCH   7  12
BRANCH   1  20
ATOM     20  C   UNL     1       3.545   4.875  18.909  0.00  0.00    +0.000 C 
BRANCH  20  21
ATOM     21  P   UNL     1       2.119   3.938  18.133  0.00  0.00    +0.000 P 
ATOM     22  O   UNL     1       2.393   2.449  18.380  0.00  0.00    +0.000 OA
BRANCH  21  23
ATOM     23  O   UNL     1       3.050   3.867  16.677  0.00  0.00    +0.000 OA
BRANCH  23  25
ATOM     24  C   UNL     1       5.178   4.392  15.706  0.00  0.00    +0.000 C 
ATOM     25  C   UNL     1       4.448   3.911  16.940  0.00  0.00    +0.000 C 
ENDBRANCH  23  25
ENDBRANCH  21  23
BRANCH  21  26
ATOM     26  O   UNL     1       1.186   4.008  19.589  0.00  0.00    +0.000 OA
BRANCH  26  27
ATOM     27  C   UNL     1       1.202   2.769  20.285  0.00  0.00    +0.000 C 
ATOM     28  C   UNL     1       1.775   2.972  21.670  0.00  0.00    +0.000 C 
ENDBRANCH  26  27
ENDBRANCH  21  26
ENDBRANCH  20  21
ENDBRANCH   1  20
TORSDOF 9
ENDMDL
MODEL 7
REMARK VINA RESULT:      -6.5      1.260      1.266
REMARK  Name = 
REMARK  11 active torsions:
REMARK  status: ('A' for Active; 'I' for Inactive)
REMARK    1  A    between atoms: C_1  and  C_2
REMARK    2  A    between atoms: C_2  and  O_3
REMARK    3  A    between atoms: O_3  and  P_4
REMARK    4  A    between atoms: P_4  and  C_6
REMARK    5  A    between atoms: P_4  and  O_24
REMARK    6  A    between atoms: C_6  and  C_7
REMARK    7  A    between atoms: N_13  and  C_14
REMARK    8  A    between atoms: C_17  and  C_18
REMARK    9  A    between atoms: C_18  and  O_19
REMARK   10  A    between atoms: O_24  and  C_25
REMARK   11  A    between atoms: C_25  and  C_26
REMARK                            x       y       z     vdW  Elec       q    Type
REMARK                         _______ _______ _______ _____ _____    ______ ____
ROOT
ATOM      1  C   UNL     1       4.169   6.301  17.651  0.00  0.00    +0.000 C 
ATOM      2  O   UNL     1       4.411   7.319  16.997  0.00  0.00    +0.000 OA
ATOM      3  N   UNL     1       3.315   6.259  18.749  0.00  0.00    +0.000 N 
ATOM      4  C   UNL     1       2.447   7.248  19.169  0.00  0.00    +0.000 A 
ATOM      5  C   UNL     1       1.968   8.182  18.147  0.00  0.00    +0.000 A 
ATOM      6  C   UNL     1       1.231   9.186  18.606  0.00  0.00    +0.000 A 
ATOM      7  N   UNL     1       0.957   9.337  19.948  0.00  0.00    +0.000 N 
ATOM      8  C   UNL     1       1.297   8.315  20.853  0.00  0.00    +0.000 A 
ATOM      9  O   UNL     1       0.899   8.353  22.018  0.00  0.00    +0.000 OA
ATOM     10  N   UNL     1       2.102   7.276  20.409  0.00  0.00    +0.000 NA
ATOM     11  H   UNL     1       3.510   5.560  19.458  0.00  0.00    +0.000 HD
ENDROOT
BRANCH   7  12
ATOM     12  C   UNL     1       0.108  10.440  20.435  0.00  0.00    +0.000 C 
ATOM     13  C   UNL     1       0.764  11.444  21.404  0.00  0.00    +0.000 C 
ATOM     14  S   UNL     1       1.397  12.792  20.378  0.00  0.00    +0.000 S 
ATOM     15  C   UNL     1       0.492  12.204  18.930  0.00  0.00    +0.000 C 
ATOM     16  O   UNL     1      -0.451  11.205  19.342  0.00  0.00    +0.000 OA
BRANCH  15  17
ATOM     17  C   UNL     1      -0.224  13.324  18.167  0.00  0.00    +0.000 C 
BRANCH  17  18
ATOM     18  O   UNL     1      -1.371  13.801  18.866  0.00  0.00    +0.000 OA
ATOM     19  H   UNL     1      -2.113  13.774  18.233  0.00  0.00    +0.000 HD
ENDBRANCH  17  18
ENDBRANCH  15  17
ENDBRANCH   7  12
BRANCH   1  20
ATOM     20  C   UNL     1       4.917   5.042  17.334  0.00  0.00    +0.000 C 
BRANCH  20  21
ATOM     21  P   UNL     1       6.619   5.569  16.750  0.00  0.00    +0.000 P 
ATOM     22  O   UNL     1       7.483   4.302  16.734  0.00  0.00    +0.000 OA
BRANCH  21  23
ATOM     23  O   UNL     1       7.030   5.828  18.410  0.00  0.00    +0.000 OA
BRANCH  23  25
ATOM     24  C   UNL     1       7.714   7.982  17.610  0.00  0.00    +0.000 C 
ATOM     25  C   UNL     1       8.015   6.844  18.560  0.00  0.00    +0.000 C 
ENDBRANCH  23  25
ENDBRANCH  21  23
BRANCH  21  26
ATOM     26  O   UNL     1       6.208   5.310  15.089  0.00  0.00    +0.000 OA
BRANCH  26  27
ATOM     27  C   UNL     1       6.193   3.928  14.760  0.00  0.00    +0.000 C 
ATOM     28  C   UNL     1       6.049   3.764  13.263  0.00  0.00    +0.000 C 
ENDBRANCH  26  27
ENDBRANCH  21  26
ENDBRANCH  20  21
ENDBRANCH   1  20
TORSDOF 9
ENDMDL
MODEL 8
REMARK VINA RESULT:      -6.5      2.518      3.588
REMARK  Name = 
REMARK  11 active torsions:
REMARK  status: ('A' for Active; 'I' for Inactive)
REMARK    1  A    between atoms: C_1  and  C_2
REMARK    2  A    between atoms: C_2  and  O_3
REMARK    3  A    between atoms: O_3  and  P_4
REMARK    4  A    between atoms: P_4  and  C_6
REMARK    5  A    between atoms: P_4  and  O_24
REMARK    6  A    between atoms: C_6  and  C_7
REMARK    7  A    between atoms: N_13  and  C_14
REMARK    8  A    between atoms: C_17  and  C_18
REMARK    9  A    between atoms: C_18  and  O_19
REMARK   10  A    between atoms: O_24  and  C_25
REMARK   11  A    between atoms: C_25  and  C_26
REMARK                            x       y       z     vdW  Elec       q    Type
REMARK                         _______ _______ _______ _____ _____    ______ ____
ROOT
ATOM      1  C   UNL     1       3.117   6.704  18.330  0.00  0.00    +0.000 C 
ATOM      2  O   UNL     1       3.554   7.611  17.616  0.00  0.00    +0.000 OA
ATOM      3  N   UNL     1       2.349   6.905  19.473  0.00  0.00    +0.000 N 
ATOM      4  C   UNL     1       1.770   8.088  19.890  0.00  0.00    +0.000 A 
ATOM      5  C   UNL     1       1.464   9.074  18.851  0.00  0.00    +0.000 A 
ATOM      6  C   UNL     1       1.018  10.241  19.300  0.00  0.00    +0.000 A 
ATOM      7  N   UNL     1       0.872  10.499  20.646  0.00  0.00    +0.000 N 
ATOM      8  C   UNL     1       1.016   9.456  21.579  0.00  0.00    +0.000 A 
ATOM      9  O   UNL     1       0.712   9.627  22.761  0.00  0.00    +0.000 OA
ATOM     10  N   UNL     1       1.520   8.240  21.143  0.00  0.00    +0.000 NA
ATOM     11  H   UNL     1       2.416   6.204  20.202  0.00  0.00    +0.000 HD
ENDROOT
BRANCH   7  12
ATOM     12  C   UNL     1       0.343  11.790  21.125  0.00  0.00    +0.000 C 
ATOM     13  C   UNL     1       0.737  13.043  20.318  0.00  0.00    +0.000 C 
ATOM     14  S   UNL     1      -0.584  13.298  19.109  0.00  0.00    +0.000 S 
ATOM     15  C   UNL     1      -1.657  12.100  19.929  0.00  0.00    +0.000 C 
ATOM     16  O   UNL     1      -1.101  11.774  21.210  0.00  0.00    +0.000 OA
BRANCH  15  17
ATOM     17  C   UNL     1      -3.100  12.588  20.088  0.00  0.00    +0.000 C 
BRANCH  17  18
ATOM     18  O   UNL     1      -3.184  14.010  20.138  0.00  0.00    +0.000 OA
ATOM     19  H   UNL     1      -2.493  14.308  20.758  0.00  0.00    +0.000 HD
ENDBRANCH  17  18
ENDBRANCH  15  17
ENDBRANCH   7  12
BRANCH   1  20
ATOM     20  C   UNL     1       3.522   5.291  18.034  0.00  0.00    +0.000 C 
BRANCH  20  21
ATOM     21  P   UNL     1       4.343   4.639  19.588  0.00  0.00    +0.000 P 
ATOM     22  O   UNL     1       5.116   3.381  19.174  0.00  0.00    +0.000 OA
BRANCH  21  23
ATOM     23  O   UNL     1       2.926   3.681  19.848  0.00  0.00    +0.000 OA
BRANCH  23  25
ATOM     24  C   UNL     1       1.311   2.817  21.395  0.00  0.00    +0.000 C 
ATOM     25  C   UNL     1       2.455   3.784  21.187  0.00  0.00    +0.000 C 
ENDBRANCH  23  25
ENDBRANCH  21  23
BRANCH  21  26
ATOM     26  O   UNL     1       5.760   5.597  19.328  0.00  0.00    +0.000 OA
BRANCH  26  27
ATOM     27  C   UNL     1       6.531   5.111  18.237  0.00  0.00    +0.000 C 
ATOM     28  C   UNL     1       7.350   6.241  17.653  0.00  0.00    +0.000 C 
ENDBRANCH  26  27
ENDBRANCH  21  26
ENDBRANCH  20  21
ENDBRANCH   1  20
TORSDOF 9
ENDMDL
MODEL 9
REMARK VINA RESULT:      -6.5      2.969      4.164
REMARK  Name = 
REMARK  11 active torsions:
REMARK  status: ('A' for Active; 'I' for Inactive)
REMARK    1  A    between atoms: C_1  and  C_2
REMARK    2  A    between atoms: C_2  and  O_3
REMARK    3  A    between atoms: O_3  and  P_4
REMARK    4  A    between atoms: P_4  and  C_6
REMARK    5  A    between atoms: P_4  and  O_24
REMARK    6  A    between atoms: C_6  and  C_7
REMARK    7  A    between atoms: N_13  and  C_14
REMARK    8  A    between atoms: C_17  and  C_18
REMARK    9  A    between atoms: C_18  and  O_19
REMARK   10  A    between atoms: O_24  and  C_25
REMARK   11  A    between atoms: C_25  and  C_26
REMARK                            x       y       z     vdW  Elec       q    Type
REMARK                         _______ _______ _______ _____ _____    ______ ____
ROOT
ATOM      1  C   UNL     1       2.495   5.208  20.328  0.00  0.00    +0.000 C 
ATOM      2  O   UNL     1       1.415   5.129  20.918  0.00  0.00    +0.000 OA
ATOM      3  N   UNL     1       2.893   6.300  19.562  0.00  0.00    +0.000 N 
ATOM      4  C   UNL     1       2.282   7.537  19.493  0.00  0.00    +0.000 A 
ATOM      5  C   UNL     1       1.498   7.950  20.660  0.00  0.00    +0.000 A 
ATOM      6  C   UNL     1       0.832   9.089  20.512  0.00  0.00    +0.000 A 
ATOM      7  N   UNL     1       0.869   9.811  19.340  0.00  0.00    +0.000 N 
ATOM      8  C   UNL     1       1.775   9.452  18.324  0.00  0.00    +0.000 A 
ATOM      9  O   UNL     1       1.949  10.189  17.352  0.00  0.00    +0.000 OA
ATOM     10  N   UNL     1       2.452   8.247  18.434  0.00  0.00    +0.000 NA
ATOM     11  H   UNL     1       3.531   6.117  18.795  0.00  0.00    +0.000 HD
ENDROOT
BRANCH   7  12
ATOM     12  C   UNL     1       0.149  11.091  19.206  0.00  0.00    +0.000 C 
ATOM     13  C   UNL     1      -1.112  11.272  20.074  0.00  0.00    +0.000 C 
ATOM     14  S   UNL     1      -0.565  12.088  21.592  0.00  0.00    +0.000 S 
ATOM     15  C   UNL     1       1.052  12.466  20.885  0.00  0.00    +0.000 C 
ATOM     16  O   UNL     1       1.015  12.219  19.473  0.00  0.00    +0.000 OA
BRANCH  15  17
ATOM     17  C   UNL     1       1.512  13.902  21.158  0.00  0.00    +0.000 C 
BRANCH  17  18
ATOM     18  O   UNL     1       2.851  13.953  21.645  0.00  0.00    +0.000 OA
ATOM     19  H   UNL     1       2.940  14.795  22.129  0.00  0.00    +0.000 HD
ENDBRANCH  17  18
ENDBRANCH  15  17
ENDBRANCH   7  12
BRANCH   1  20
ATOM     20  C   UNL     1       3.408   4.019  20.325  0.00  0.00    +0.000 C 
BRANCH  20  21
ATOM     21  P   UNL     1       4.030   3.833  18.566  0.00  0.00    +0.000 P 
ATOM     22  O   UNL     1       4.268   2.333  18.347  0.00  0.00    +0.000 OA
BRANCH  21  23
ATOM     23  O   UNL     1       5.634   3.995  19.192  0.00  0.00    +0.000 OA
BRANCH  23  25
ATOM     24  C   UNL     1       5.601   5.594  17.407  0.00  0.00    +0.000 C 
ATOM     25  C   UNL     1       6.465   4.765  18.330  0.00  0.00    +0.000 C 
ENDBRANCH  23  25
ENDBRANCH  21  23
BRANCH  21  26
ATOM     26  O   UNL     1       2.425   3.671  17.940  0.00  0.00    +0.000 OA
BRANCH  26  27
ATOM     27  C   UNL     1       1.940   2.341  18.072  0.00  0.00    +0.000 C 
ATOM     28  C   UNL     1       0.619   2.354  18.807  0.00  0.00    +0.000 C 
ENDBRANCH  26  27
ENDBRANCH  21  26
ENDBRANCH  20  21
ENDBRANCH   1  20
TORSDOF 9
ENDMDL
