MODEL 1
REMARK VINA RESULT:      -7.6      0.000      0.000
REMARK  Name = 
REMARK  4 active torsions:
REMARK  status: ('A' for Active; 'I' for Inactive)
REMARK    1  A    between atoms: C_1  and  N_2
REMARK    2  A    between atoms: C_9  and  O_10
REMARK    3  A    between atoms: C_11  and  C_12
REMARK    4  A    between atoms: N_13  and  C_14
REMARK                            x       y       z     vdW  Elec       q    Type
REMARK                         _______ _______ _______ _____ _____    ______ ____
ROOT
ATOM      1  C   UNL     1       2.612   2.685  20.529  0.00  0.00    +0.000 C 
ATOM      2  N   UNL     1       2.856   3.751  19.525  0.00  0.00    +0.000 N 
ATOM      3  C   UNL     1       2.621   5.152  19.791  0.00  0.00    +0.000 A 
ATOM      4  C   UNL     1       1.714   5.500  20.815  0.00  0.00    +0.000 A 
ATOM      5  C   UNL     1       1.251   6.801  20.988  0.00  0.00    +0.000 A 
ATOM      6  C   UNL     1       1.671   7.789  20.122  0.00  0.00    +0.000 A 
ATOM      7  C   UNL     1       2.557   7.474  19.088  0.00  0.00    +0.000 A 
ATOM      8  C   UNL     1       3.050   6.160  18.883  0.00  0.00    +0.000 A 
ATOM      9  C   UNL     1       3.962   5.861  17.727  0.00  0.00    +0.000 C 
ATOM     10  C   UNL     1       4.486   4.651  17.475  0.00  0.00    +0.000 C 
ATOM     11  S   UNL     1       4.177   3.341  18.530  0.00  0.00    +0.000 S 
ATOM     12  O   UNL     1       5.313   3.201  19.432  0.00  0.00    +0.000 OA
ATOM     13  O   UNL     1       3.697   2.186  17.788  0.00  0.00    +0.000 OA
ENDROOT
BRANCH   9  14
ATOM     14  O   UNL     1       4.302   6.903  16.864  0.00  0.00    +0.000 OA
ATOM     15  H   UNL     1       3.533   7.258  16.398  0.00  0.00    +0.000 HD
ENDBRANCH   9  14
BRANCH  10  16
ATOM     16  C   UNL     1       5.450   4.414  16.375  0.00  0.00    +0.000 C 
ATOM     17  N   UNL     1       5.130   4.674  15.154  0.00  0.00    +0.000 NA
BRANCH  17  18
ATOM     18  C   UNL     1       5.997   4.419  14.108  0.00  0.00    +0.000 A 
ATOM     19  N   UNL     1       5.646   3.549  13.152  0.00  0.00    +0.000 NA
ATOM     20  C   UNL     1       6.463   3.515  12.078  0.00  0.00    +0.000 A 
ATOM     21  C   UNL     1       7.578   4.307  11.935  0.00  0.00    +0.000 A 
ATOM     22  C   UNL     1       7.843   5.151  12.986  0.00  0.00    +0.000 A 
ATOM     23  N   UNL     1       7.070   5.222  14.079  0.00  0.00    +0.000 NA
ENDBRANCH  17  18
ENDBRANCH  10  16
TORSDOF 3
ENDMDL
MODEL 2
REMARK VINA RESULT:      -7.2      2.828      7.231
REMARK  Name = 
REMARK  4 active torsions:
REMARK  status: ('A' for Active; 'I' for Inactive)
REMARK    1  A    between atoms: C_1  and  N_2
REMARK    2  A    between atoms: C_9  and  O_10
REMARK    3  A    between atoms: C_11  and  C_12
REMARK    4  A    between atoms: N_13  and  C_14
REMARK                            x       y       z     vdW  Elec       q    Type
REMARK                         _______ _______ _______ _____ _____    ______ ____
ROOT
ATOM      1  C   UNL     1       3.517   2.088  18.192  0.00  0.00    +0.000 C 
ATOM      2  N   UNL     1       3.798   3.545  18.183  0.00  0.00    +0.000 N 
ATOM      3  C   UNL     1       4.337   4.237  17.034  0.00  0.00    +0.000 A 
ATOM      4  C   UNL     1       5.054   3.491  16.075  0.00  0.00    +0.000 A 
ATOM      5  C   UNL     1       5.802   4.095  15.068  0.00  0.00    +0.000 A 
ATOM      6  C   UNL     1       5.866   5.472  15.008  0.00  0.00    +0.000 A 
ATOM      7  C   UNL     1       5.179   6.239  15.953  0.00  0.00    +0.000 A 
ATOM      8  C   UNL     1       4.408   5.657  16.991  0.00  0.00    +0.000 A 
ATOM      9  C   UNL     1       3.728   6.524  18.012  0.00  0.00    +0.000 C 
ATOM     10  C   UNL     1       2.966   6.054  19.012  0.00  0.00    +0.000 C 
ATOM     11  S   UNL     1       2.669   4.375  19.153  0.00  0.00    +0.000 S 
ATOM     12  O   UNL     1       1.367   4.089  18.564  0.00  0.00    +0.000 OA
ATOM     13  O   UNL     1       2.971   3.911  20.497  0.00  0.00    +0.000 OA
ENDROOT
BRANCH   9  14
ATOM     14  O   UNL     1       3.881   7.908  17.915  0.00  0.00    +0.000 OA
ATOM     15  H   UNL     1       3.675   8.357  18.746  0.00  0.00    +0.000 HD
ENDBRANCH   9  14
BRANCH  10  16
ATOM     16  C   UNL     1       2.242   6.944  19.949  0.00  0.00    +0.000 C 
ATOM     17  N   UNL     1       1.745   8.061  19.542  0.00  0.00    +0.000 NA
BRANCH  17  18
ATOM     18  C   UNL     1       1.105   8.928  20.407  0.00  0.00    +0.000 A 
ATOM     19  N   UNL     1       0.296   9.878  19.919  0.00  0.00    +0.000 NA
ATOM     20  C   UNL     1      -0.433  10.541  20.841  0.00  0.00    +0.000 A 
ATOM     21  C   UNL     1      -0.383  10.284  22.192  0.00  0.00    +0.000 A 
ATOM     22  C   UNL     1       0.492   9.297  22.573  0.00  0.00    +0.000 A 
ATOM     23  N   UNL     1       1.244   8.610  21.702  0.00  0.00    +0.000 NA
ENDBRANCH  17  18
ENDBRANCH  10  16
TORSDOF 3
ENDMDL
MODEL 3
REMARK VINA RESULT:      -7.1      3.925      6.157
REMARK  Name = 
REMARK  4 active torsions:
REMARK  status: ('A' for Active; 'I' for Inactive)
REMARK    1  A    between atoms: C_1  and  N_2
REMARK    2  A    between atoms: C_9  and  O_10
REMARK    3  A    between atoms: C_11  and  C_12
REMARK    4  A    between atoms: N_13  and  C_14
REMARK                            x       y       z     vdW  Elec       q    Type
REMARK                         _______ _______ _______ _____ _____    ______ ____
ROOT
ATOM      1  C   UNL     1      -0.219  12.264  18.621  0.00  0.00    +0.000 C 
ATOM      2  N   UNL     1       0.417  11.166  19.392  0.00  0.00    +0.000 N 
ATOM      3  C   UNL     1      -0.094  10.693  20.658  0.00  0.00    +0.000 A 
ATOM      4  C   UNL     1      -0.904  11.560  21.422  0.00  0.00    +0.000 A 
ATOM      5  C   UNL     1      -1.247  11.287  22.744  0.00  0.00    +0.000 A 
ATOM      6  C   UNL     1      -0.768  10.141  23.343  0.00  0.00    +0.000 A 
ATOM      7  C   UNL     1       0.049   9.269  22.618  0.00  0.00    +0.000 A 
ATOM      8  C   UNL     1       0.418   9.515  21.270  0.00  0.00    +0.000 A 
ATOM      9  C   UNL     1       1.339   8.574  20.549  0.00  0.00    +0.000 C 
ATOM     10  C   UNL     1       1.720   8.725  19.270  0.00  0.00    +0.000 C 
ATOM     11  S   UNL     1       1.108  10.020  18.336  0.00  0.00    +0.000 S 
ATOM     12  O   UNL     1       0.003   9.522  17.528  0.00  0.00    +0.000 OA
ATOM     13  O   UNL     1       2.192  10.754  17.703  0.00  0.00    +0.000 OA
ENDROOT
BRANCH   9  14
ATOM     14  O   UNL     1       1.824   7.462  21.238  0.00  0.00    +0.000 OA
ATOM     15  H   UNL     1       1.135   6.804  21.401  0.00  0.00    +0.000 HD
ENDBRANCH   9  14
BRANCH  10  16
ATOM     16  C   UNL     1       2.561   7.729  18.567  0.00  0.00    +0.000 C 
ATOM     17  N   UNL     1       2.307   6.469  18.663  0.00  0.00    +0.000 NA
BRANCH  17  18
ATOM     18  C   UNL     1       3.105   5.520  18.052  0.00  0.00    +0.000 A 
ATOM     19  N   UNL     1       2.662   4.263  17.923  0.00  0.00    +0.000 NA
ATOM     20  C   UNL     1       3.420   3.463  17.143  0.00  0.00    +0.000 A 
ATOM     21  C   UNL     1       4.567   3.875  16.504  0.00  0.00    +0.000 A 
ATOM     22  C   UNL     1       4.927   5.183  16.722  0.00  0.00    +0.000 A 
ATOM     23  N   UNL     1       4.215   6.019  17.490  0.00  0.00    +0.000 NA
ENDBRANCH  17  18
ENDBRANCH  10  16
TORSDOF 3
ENDMDL
MODEL 4
REMARK VINA RESULT:      -7.0      3.865      6.204
REMARK  Name = 
REMARK  4 active torsions:
REMARK  status: ('A' for Active; 'I' for Inactive)
REMARK    1  A    between atoms: C_1  and  N_2
REMARK    2  A    between atoms: C_9  and  O_10
REMARK    3  A    between atoms: C_11  and  C_12
REMARK    4  A    between atoms: N_13  and  C_14
REMARK                            x       y       z     vdW  Elec       q    Type
REMARK                         _______ _______ _______ _____ _____    ______ ____
ROOT
ATOM      1  C   UNL     1      -0.002  12.275  18.716  0.00  0.00    +0.000 C 
ATOM      2  N   UNL     1       0.586  11.128  19.451  0.00  0.00    +0.000 N 
ATOM      3  C   UNL     1       0.059  10.641  20.706  0.00  0.00    +0.000 A 
ATOM      4  C   UNL     1      -0.708  11.522  21.499  0.00  0.00    +0.000 A 
ATOM      5  C   UNL     1      -1.058  11.225  22.814  0.00  0.00    +0.000 A 
ATOM      6  C   UNL     1      -0.628  10.042  23.377  0.00  0.00    +0.000 A 
ATOM      7  C   UNL     1       0.145   9.156  22.622  0.00  0.00    +0.000 A 
ATOM      8  C   UNL     1       0.519   9.424  21.281  0.00  0.00    +0.000 A 
ATOM      9  C   UNL     1       1.393   8.464  20.527  0.00  0.00    +0.000 C 
ATOM     10  C   UNL     1       1.776   8.635  19.252  0.00  0.00    +0.000 C 
ATOM     11  S   UNL     1       1.220   9.983  18.359  0.00  0.00    +0.000 S 
ATOM     12  O   UNL     1       0.090   9.560  17.542  0.00  0.00    +0.000 OA
ATOM     13  O   UNL     1       2.334  10.686  17.742  0.00  0.00    +0.000 OA
ENDROOT
BRANCH   9  14
ATOM     14  O   UNL     1       1.830   7.311  21.181  0.00  0.00    +0.000 OA
ATOM     15  H   UNL     1       1.983   6.579  20.568  0.00  0.00    +0.000 HD
ENDBRANCH   9  14
BRANCH  10  16
ATOM     16  C   UNL     1       2.568   7.623  18.515  0.00  0.00    +0.000 C 
ATOM     17  N   UNL     1       2.188   6.392  18.475  0.00  0.00    +0.000 NA
BRANCH  17  18
ATOM     18  C   UNL     1       2.935   5.423  17.832  0.00  0.00    +0.000 A 
ATOM     19  N   UNL     1       4.149   5.727  17.357  0.00  0.00    +0.000 NA
ATOM     20  C   UNL     1       4.878   4.675  16.927  0.00  0.00    +0.000 A 
ATOM     21  C   UNL     1       4.442   3.371  16.964  0.00  0.00    +0.000 A 
ATOM     22  C   UNL     1       3.174   3.186  17.459  0.00  0.00    +0.000 A 
ATOM     23  N   UNL     1       2.406   4.193  17.895  0.00  0.00    +0.000 NA
ENDBRANCH  17  18
ENDBRANCH  10  16
TORSDOF 3
ENDMDL
MODEL 5
REMARK VINA RESULT:      -7.0      2.787      7.181
REMARK  Name = 
REMARK  4 active torsions:
REMARK  status: ('A' for Active; 'I' for Inactive)
REMARK    1  A    between atoms: C_1  and  N_2
REMARK    2  A    between atoms: C_9  and  O_10
REMARK    3  A    between atoms: C_11  and  C_12
REMARK    4  A    between atoms: N_13  and  C_14
REMARK                            x       y       z     vdW  Elec       q    Type
REMARK                         _______ _______ _______ _____ _____    ______ ____
ROOT
ATOM      1  C   UNL     1       3.666   1.961  18.132  0.00  0.00    +0.000 C 
ATOM      2  N   UNL     1       3.884   3.429  18.140  0.00  0.00    +0.000 N 
ATOM      3  C   UNL     1       4.416   4.154  17.008  0.00  0.00    +0.000 A 
ATOM      4  C   UNL     1       5.185   3.446  16.059  0.00  0.00    +0.000 A 
ATOM      5  C   UNL     1       5.926   4.091  15.072  0.00  0.00    +0.000 A 
ATOM      6  C   UNL     1       5.933   5.469  15.024  0.00  0.00    +0.000 A 
ATOM      7  C   UNL     1       5.194   6.199  15.960  0.00  0.00    +0.000 A 
ATOM      8  C   UNL     1       4.427   5.576  16.977  0.00  0.00    +0.000 A 
ATOM      9  C   UNL     1       3.689   6.404  17.990  0.00  0.00    +0.000 C 
ATOM     10  C   UNL     1       2.928   5.892  18.970  0.00  0.00    +0.000 C 
ATOM     11  S   UNL     1       2.700   4.202  19.092  0.00  0.00    +0.000 S 
ATOM     12  O   UNL     1       1.425   3.865  18.474  0.00  0.00    +0.000 OA
ATOM     13  O   UNL     1       2.994   3.740  20.439  0.00  0.00    +0.000 OA
ENDROOT
BRANCH   9  14
ATOM     14  O   UNL     1       3.785   7.793  17.907  0.00  0.00    +0.000 OA
ATOM     15  H   UNL     1       4.702   8.098  17.924  0.00  0.00    +0.000 HD
ENDBRANCH   9  14
BRANCH  10  16
ATOM     16  C   UNL     1       2.147   6.743  19.898  0.00  0.00    +0.000 C 
ATOM     17  N   UNL     1       1.798   7.937  19.559  0.00  0.00    +0.000 NA
BRANCH  17  18
ATOM     18  C   UNL     1       1.108   8.764  20.425  0.00  0.00    +0.000 A 
ATOM     19  N   UNL     1       1.147   8.527  21.743  0.00  0.00    +0.000 NA
ATOM     20  C   UNL     1       0.613   9.494  22.517  0.00  0.00    +0.000 A 
ATOM     21  C   UNL     1       0.066  10.658  22.027  0.00  0.00    +0.000 A 
ATOM     22  C   UNL     1       0.071  10.782  20.659  0.00  0.00    +0.000 A 
ATOM     23  N   UNL     1       0.583   9.851  19.842  0.00  0.00    +0.000 NA
ENDBRANCH  17  18
ENDBRANCH  10  16
TORSDOF 3
ENDMDL
MODEL 6
REMARK VINA RESULT:      -7.0      3.185      7.581
REMARK  Name = 
REMARK  4 active torsions:
REMARK  status: ('A' for Active; 'I' for Inactive)
REMARK    1  A    between atoms: C_1  and  N_2
REMARK    2  A    between atoms: C_9  and  O_10
REMARK    3  A    between atoms: C_11  and  C_12
REMARK    4  A    between atoms: N_13  and  C_14
REMARK                            x       y       z     vdW  Elec       q    Type
REMARK                         _______ _______ _______ _____ _____    ______ ____
ROOT
ATOM      1  C   UNL     1       3.758   2.572  19.326  0.00  0.00    +0.000 C 
ATOM      2  N   UNL     1       3.729   4.035  19.077  0.00  0.00    +0.000 N 
ATOM      3  C   UNL     1       4.224   4.637  17.861  0.00  0.00    +0.000 A 
ATOM      4  C   UNL     1       5.174   3.926  17.097  0.00  0.00    +0.000 A 
ATOM      5  C   UNL     1       5.876   4.513  16.048  0.00  0.00    +0.000 A 
ATOM      6  C   UNL     1       5.659   5.842  15.749  0.00  0.00    +0.000 A 
ATOM      7  C   UNL     1       4.736   6.578  16.497  0.00  0.00    +0.000 A 
ATOM      8  C   UNL     1       4.002   6.012  17.571  0.00  0.00    +0.000 A 
ATOM      9  C   UNL     1       3.059   6.858  18.377  0.00  0.00    +0.000 C 
ATOM     10  C   UNL     1       2.315   6.395  19.395  0.00  0.00    +0.000 C 
ATOM     11  S   UNL     1       2.360   4.737  19.811  0.00  0.00    +0.000 S 
ATOM     12  O   UNL     1       1.213   4.079  19.201  0.00  0.00    +0.000 OA
ATOM     13  O   UNL     1       2.616   4.571  21.233  0.00  0.00    +0.000 OA
ENDROOT
BRANCH   9  14
ATOM     14  O   UNL     1       2.929   8.207  18.047  0.00  0.00    +0.000 OA
ATOM     15  H   UNL     1       2.009   8.459  17.891  0.00  0.00    +0.000 HD
ENDBRANCH   9  14
BRANCH  10  16
ATOM     16  C   UNL     1       1.331   7.240  20.111  0.00  0.00    +0.000 C 
ATOM     17  N   UNL     1       1.660   8.409  20.542  0.00  0.00    +0.000 NA
BRANCH  17  18
ATOM     18  C   UNL     1       0.773   9.196  21.252  0.00  0.00    +0.000 A 
ATOM     19  N   UNL     1       0.472   8.881  22.519  0.00  0.00    +0.000 NA
ATOM     20  C   UNL     1      -0.242   9.811  23.188  0.00  0.00    +0.000 A 
ATOM     21  C   UNL     1      -0.642  11.010  22.646  0.00  0.00    +0.000 A 
ATOM     22  C   UNL     1      -0.286  11.214  21.336  0.00  0.00    +0.000 A 
ATOM     23  N   UNL     1       0.417  10.324  20.622  0.00  0.00    +0.000 NA
ENDBRANCH  17  18
ENDBRANCH  10  16
TORSDOF 3
ENDMDL
MODEL 7
REMARK VINA RESULT:      -6.9      0.238      1.027
REMARK  Name = 
REMARK  4 active torsions:
REMARK  status: ('A' for Active; 'I' for Inactive)
REMARK    1  A    between atoms: C_1  and  N_2
REMARK    2  A    between atoms: C_9  and  O_10
REMARK    3  A    between atoms: C_11  and  C_12
REMARK    4  A    between atoms: N_13  and  C_14
REMARK                            x       y       z     vdW  Elec       q    Type
REMARK                         _______ _______ _______ _____ _____    ______ ____
ROOT
ATOM      1  C   UNL     1       2.569   2.766  20.561  0.00  0.00    +0.000 C 
ATOM      2  N   UNL     1       2.781   3.843  19.562  0.00  0.00    +0.000 N 
ATOM      3  C   UNL     1       2.563   5.242  19.852  0.00  0.00    +0.000 A 
ATOM      4  C   UNL     1       1.697   5.581  20.913  0.00  0.00    +0.000 A 
ATOM      5  C   UNL     1       1.246   6.883  21.119  0.00  0.00    +0.000 A 
ATOM      6  C   UNL     1       1.639   7.879  20.250  0.00  0.00    +0.000 A 
ATOM      7  C   UNL     1       2.484   7.572  19.180  0.00  0.00    +0.000 A 
ATOM      8  C   UNL     1       2.963   6.258  18.941  0.00  0.00    +0.000 A 
ATOM      9  C   UNL     1       3.830   5.969  17.749  0.00  0.00    +0.000 C 
ATOM     10  C   UNL     1       4.338   4.760  17.464  0.00  0.00    +0.000 C 
ATOM     11  S   UNL     1       4.062   3.439  18.514  0.00  0.00    +0.000 S 
ATOM     12  O   UNL     1       5.230   3.282  19.371  0.00  0.00    +0.000 OA
ATOM     13  O   UNL     1       3.550   2.295  17.777  0.00  0.00    +0.000 OA
ENDROOT
BRANCH   9  14
ATOM     14  O   UNL     1       4.143   7.020  16.886  0.00  0.00    +0.000 OA
ATOM     15  H   UNL     1       4.142   7.875  17.336  0.00  0.00    +0.000 HD
ENDBRANCH   9  14
BRANCH  10  16
ATOM     16  C   UNL     1       5.260   4.532  16.326  0.00  0.00    +0.000 C 
ATOM     17  N   UNL     1       4.980   4.986  15.153  0.00  0.00    +0.000 NA
BRANCH  17  18
ATOM     18  C   UNL     1       5.802   4.747  14.068  0.00  0.00    +0.000 A 
ATOM     19  N   UNL     1       7.007   5.329  14.006  0.00  0.00    +0.000 NA
ATOM     20  C   UNL     1       7.811   4.883  13.018  0.00  0.00    +0.000 A 
ATOM     21  C   UNL     1       7.458   3.898  12.125  0.00  0.00    +0.000 A 
ATOM     22  C   UNL     1       6.193   3.386  12.280  0.00  0.00    +0.000 A 
ATOM     23  N   UNL     1       5.351   3.794  13.239  0.00  0.00    +0.000 NA
ENDBRANCH  17  18
ENDBRANCH  10  16
TORSDOF 3
ENDMDL
MODEL 8
REMARK VINA RESULT:      -6.8      3.737      5.781
REMARK  Name = 
REMARK  4 active torsions:
REMARK  status: ('A' for Active; 'I' for Inactive)
REMARK    1  A    between atoms: C_1  and  N_2
REMARK    2  A    between atoms: C_9  and  O_10
REMARK    3  A    between atoms: C_11  and  C_12
REMARK    4  A    between atoms: N_13  and  C_14
REMARK                            x       y       z     vdW  Elec       q    Type
REMARK                         _______ _______ _______ _____ _____    ______ ____
ROOT
ATOM      1  C   UNL     1       0.232  12.170  18.745  0.00  0.00    +0.000 C 
ATOM      2  N   UNL     1       0.753  10.943  19.396  0.00  0.00    +0.000 N 
ATOM      3  C   UNL     1       0.259  10.451  20.662  0.00  0.00    +0.000 A 
ATOM      4  C   UNL     1      -0.374  11.361  21.536  0.00  0.00    +0.000 A 
ATOM      5  C   UNL     1      -0.671  11.039  22.858  0.00  0.00    +0.000 A 
ATOM      6  C   UNL     1      -0.320   9.798  23.346  0.00  0.00    +0.000 A 
ATOM      7  C   UNL     1       0.322   8.880  22.511  0.00  0.00    +0.000 A 
ATOM      8  C   UNL     1       0.638   9.173  21.159  0.00  0.00    +0.000 A 
ATOM      9  C   UNL     1       1.374   8.172  20.316  0.00  0.00    +0.000 C 
ATOM     10  C   UNL     1       1.694   8.364  19.026  0.00  0.00    +0.000 C 
ATOM     11  S   UNL     1       1.213   9.795  18.223  0.00  0.00    +0.000 S 
ATOM     12  O   UNL     1       0.003   9.511  17.463  0.00  0.00    +0.000 OA
ATOM     13  O   UNL     1       2.349  10.421  17.564  0.00  0.00    +0.000 OA
ENDROOT
BRANCH   9  14
ATOM     14  O   UNL     1       1.740   6.957  20.896  0.00  0.00    +0.000 OA
ATOM     15  H   UNL     1       2.222   6.389  20.280  0.00  0.00    +0.000 HD
ENDBRANCH   9  14
BRANCH  10  16
ATOM     16  C   UNL     1       2.344   7.318  18.202  0.00  0.00    +0.000 C 
ATOM     17  N   UNL     1       3.627   7.207  18.174  0.00  0.00    +0.000 NA
BRANCH  17  18
ATOM     18  C   UNL     1       4.257   6.269  17.379  0.00  0.00    +0.000 A 
ATOM     19  N   UNL     1       4.996   6.670  16.336  0.00  0.00    +0.000 NA
ATOM     20  C   UNL     1       5.727   5.702  15.743  0.00  0.00    +0.000 A 
ATOM     21  C   UNL     1       5.744   4.390  16.156  0.00  0.00    +0.000 A 
ATOM     22  C   UNL     1       4.936   4.097  17.227  0.00  0.00    +0.000 A 
ATOM     23  N   UNL     1       4.186   5.016  17.850  0.00  0.00    +0.000 NA
ENDBRANCH  17  18
ENDBRANCH  10  16
TORSDOF 3
ENDMDL
MODEL 9
REMARK VINA RESULT:      -6.7      1.294      3.018
REMARK  Name = 
REMARK  4 active torsions:
REMARK  status: ('A' for Active; 'I' for Inactive)
REMARK    1  A    between atoms: C_1  and  N_2
REMARK    2  A    between atoms: C_9  and  O_10
REMARK    3  A    between atoms: C_11  and  C_12
REMARK    4  A    between atoms: N_13  and  C_14
REMARK                            x       y       z     vdW  Elec       q    Type
REMARK                         _______ _______ _______ _____ _____    ______ ____
ROOT
ATOM      1  C   UNL     1       2.182   7.226  20.009  0.00  0.00    +0.000 C 
ATOM      2  N   UNL     1       2.940   6.041  19.536  0.00  0.00    +0.000 N 
ATOM      3  C   UNL     1       2.723   4.708  20.053  0.00  0.00    +0.000 A 
ATOM      4  C   UNL     1       2.148   4.570  21.335  0.00  0.00    +0.000 A 
ATOM      5  C   UNL     1       2.114   3.352  22.008  0.00  0.00    +0.000 A 
ATOM      6  C   UNL     1       2.678   2.240  21.420  0.00  0.00    +0.000 A 
ATOM      7  C   UNL     1       3.270   2.347  20.159  0.00  0.00    +0.000 A 
ATOM      8  C   UNL     1       3.321   3.571  19.444  0.00  0.00    +0.000 A 
ATOM      9  C   UNL     1       4.012   3.646  18.112  0.00  0.00    +0.000 C 
ATOM     10  C   UNL     1       4.087   4.759  17.365  0.00  0.00    +0.000 C 
ATOM     11  S   UNL     1       3.322   6.198  17.883  0.00  0.00    +0.000 S 
ATOM     12  O   UNL     1       2.041   6.309  17.198  0.00  0.00    +0.000 OA
ATOM     13  O   UNL     1       4.253   7.315  17.855  0.00  0.00    +0.000 OA
ENDROOT
BRANCH   9  14
ATOM     14  O   UNL     1       4.603   2.489  17.605  0.00  0.00    +0.000 OA
ATOM     15  H   UNL     1       3.965   1.920  17.154  0.00  0.00    +0.000 HD
ENDBRANCH   9  14
BRANCH  10  16
ATOM     16  C   UNL     1       4.703   4.774  16.018  0.00  0.00    +0.000 C 
ATOM     17  N   UNL     1       5.858   4.240  15.818  0.00  0.00    +0.000 NA
BRANCH  17  18
ATOM     18  C   UNL     1       6.472   4.282  14.580  0.00  0.00    +0.000 A 
ATOM     19  N   UNL     1       6.000   3.527  13.579  0.00  0.00    +0.000 NA
ATOM     20  C   UNL     1       6.533   3.782  12.366  0.00  0.00    +0.000 A 
ATOM     21  C   UNL     1       7.489   4.744  12.132  0.00  0.00    +0.000 A 
ATOM     22  C   UNL     1       7.904   5.444  13.239  0.00  0.00    +0.000 A 
ATOM     23  N   UNL     1       7.413   5.230  14.467  0.00  0.00    +0.000 NA
ENDBRANCH  17  18
ENDBRANCH  10  16
TORSDOF 3
ENDMDL
