MODEL 1
REMARK VINA RESULT:      -7.4      0.000      0.000
REMARK  Name = 
REMARK  20 active torsions:
REMARK  status: ('A' for Active; 'I' for Inactive)
REMARK    1  A    between atoms: C_1  and  C_2
REMARK    2  A    between atoms: C_2  and  C_4
REMARK    3  A    between atoms: C_4  and  C_5
REMARK    4  A    between atoms: C_5  and  C_6
REMARK    5  A    between atoms: C_6  and  C_7
REMARK    6  A    between atoms: C_7  and  C_8
REMARK    7  A    between atoms: C_7  and  C_9
REMARK    8  A    between atoms: C_7  and  C_10
REMARK    9  A    between atoms: C_10  and  C_12
REMARK   10  A    between atoms: C_12  and  C_13
REMARK   11  A    between atoms: C_13  and  C_14
REMARK   12  A    between atoms: C_14  and  C_15
REMARK   13  A    between atoms: C_16  and  C_17
REMARK   14  A    between atoms: C_17  and  C_18
REMARK   15  A    between atoms: C_18  and  C_19
REMARK   16  A    between atoms: C_19  and  C_20
REMARK   17  A    between atoms: C_21  and  C_22
REMARK   18  A    between atoms: C_22  and  C_23
REMARK   19  A    between atoms: C_23  and  C_24
REMARK   20  A    between atoms: C_29  and  O_30
REMARK                            x       y       z     vdW  Elec       q    Type
REMARK                         _______ _______ _______ _____ _____    ______ ____
ROOT
ATOM      1  C   UNL     1       7.667   6.975  17.781  0.00  0.00    +0.000 C 
ATOM      2  C   UNL     1       8.046   6.273  19.057  0.00  0.00    +0.000 C 
ATOM      3  C   UNL     1       7.946   8.284  17.606  0.00  0.00    +0.000 C 
ENDROOT
BRANCH   1   4
ATOM      4  C   UNL     1       6.980   6.120  16.725  0.00  0.00    +0.000 C 
BRANCH   4   5
ATOM      5  C   UNL     1       5.468   6.320  16.687  0.00  0.00    +0.000 C 
BRANCH   5   6
ATOM      6  C   UNL     1       4.645   5.057  16.816  0.00  0.00    +0.000 C 
ATOM      7  O   UNL     1       4.712   4.153  15.979  0.00  0.00    +0.000 OA
BRANCH   6   8
ATOM      8  C   UNL     1       3.703   4.945  18.042  0.00  0.00    +0.000 C 
ATOM      9  C   UNL     1       2.387   5.734  17.885  0.00  0.00    +0.000 C 
ATOM     10  C   UNL     1       4.453   5.543  19.245  0.00  0.00    +0.000 C 
BRANCH   8  11
ATOM     11  C   UNL     1       3.408   3.444  18.295  0.00  0.00    +0.000 C 
BRANCH  11  12
ATOM     12  C   UNL     1       4.448   2.768  19.196  0.00  0.00    +0.000 C 
BRANCH  12  13
ATOM     13  C   UNL     1       3.848   2.222  20.489  0.00  0.00    +0.000 C 
BRANCH  13  15
ATOM     14  C   UNL     1       2.075   3.736  21.575  0.00  0.00    +0.000 C 
ATOM     15  C   UNL     1       2.389   2.618  20.618  0.00  0.00    +0.000 C 
ATOM     16  O   UNL     1       1.489   2.075  19.973  0.00  0.00    +0.000 OA
ENDBRANCH  13  15
ENDBRANCH  12  13
ENDBRANCH  11  12
ENDBRANCH   8  11
ENDBRANCH   6   8
ENDBRANCH   5   6
ENDBRANCH   4   5
ENDBRANCH   1   4
BRANCH   3  17
ATOM     17  C   UNL     1       8.636   9.148  18.622  0.00  0.00    +0.000 C 
BRANCH  17  18
ATOM     18  C   UNL     1       8.616  10.633  18.239  0.00  0.00    +0.000 C 
BRANCH  18  19
ATOM     19  C   UNL     1       9.911  11.313  18.616  0.00  0.00    +0.000 C 
ATOM     20  C   UNL     1      10.164  11.512  20.090  0.00  0.00    +0.000 C 
ATOM     21  C   UNL     1      10.807  11.676  17.678  0.00  0.00    +0.000 C 
BRANCH  21  22
ATOM     22  C   UNL     1      12.134  12.311  17.978  0.00  0.00    +0.000 C 
BRANCH  22  23
ATOM     23  C   UNL     1      12.333  13.645  17.257  0.00  0.00    +0.000 C 
BRANCH  23  24
ATOM     24  C   UNL     1      11.576  14.740  17.931  0.00  0.00    +0.000 C 
ATOM     25  C   UNL     1      11.762  15.205  19.166  0.00  0.00    +0.000 C 
ATOM     26  C   UNL     1      10.765  16.251  19.367  0.00  0.00    +0.000 C 
ATOM     27  O   UNL     1      10.630  16.883  20.401  0.00  0.00    +0.000 OA
ATOM     28  O   UNL     1      10.040  16.425  18.234  0.00  0.00    +0.000 OA
ATOM     29  C   UNL     1      10.438  15.442  17.291  0.00  0.00    +0.000 C 
BRANCH  29  30
ATOM     30  O   UNL     1      10.816  16.034  16.067  0.00  0.00    +0.000 OA
ATOM     31  H   UNL     1      10.031  16.472  15.703  0.00  0.00    +0.000 HD
ENDBRANCH  29  30
ENDBRANCH  23  24
ENDBRANCH  22  23
ENDBRANCH  21  22
ENDBRANCH  18  19
ENDBRANCH  17  18
ENDBRANCH   3  17
TORSDOF 15
ENDMDL
MODEL 2
REMARK VINA RESULT:      -7.0      7.350      9.783
REMARK  Name = 
REMARK  20 active torsions:
REMARK  status: ('A' for Active; 'I' for Inactive)
REMARK    1  A    between atoms: C_1  and  C_2
REMARK    2  A    between atoms: C_2  and  C_4
REMARK    3  A    between atoms: C_4  and  C_5
REMARK    4  A    between atoms: C_5  and  C_6
REMARK    5  A    between atoms: C_6  and  C_7
REMARK    6  A    between atoms: C_7  and  C_8
REMARK    7  A    between atoms: C_7  and  C_9
REMARK    8  A    between atoms: C_7  and  C_10
REMARK    9  A    between atoms: C_10  and  C_12
REMARK   10  A    between atoms: C_12  and  C_13
REMARK   11  A    between atoms: C_13  and  C_14
REMARK   12  A    between atoms: C_14  and  C_15
REMARK   13  A    between atoms: C_16  and  C_17
REMARK   14  A    between atoms: C_17  and  C_18
REMARK   15  A    between atoms: C_18  and  C_19
REMARK   16  A    between atoms: C_19  and  C_20
REMARK   17  A    between atoms: C_21  and  C_22
REMARK   18  A    between atoms: C_22  and  C_23
REMARK   19  A    between atoms: C_23  and  C_24
REMARK   20  A    between atoms: C_29  and  O_30
REMARK                            x       y       z     vdW  Elec       q    Type
REMARK                         _______ _______ _______ _____ _____    ______ ____
ROOT
ATOM      1  C   UNL     1       1.905   7.624  20.183  0.00  0.00    +0.000 C 
ATOM      2  C   UNL     1       1.510   6.302  20.785  0.00  0.00    +0.000 C 
ATOM      3  C   UNL     1       1.737   8.773  20.872  0.00  0.00    +0.000 C 
ENDROOT
BRANCH   1   4
ATOM      4  C   UNL     1       2.508   7.570  18.786  0.00  0.00    +0.000 C 
BRANCH   4   5
ATOM      5  C   UNL     1       2.485   6.169  18.182  0.00  0.00    +0.000 C 
BRANCH   5   6
ATOM      6  C   UNL     1       3.733   5.770  17.426  0.00  0.00    +0.000 C 
ATOM      7  O   UNL     1       4.418   6.601  16.824  0.00  0.00    +0.000 OA
BRANCH   6   8
ATOM      8  C   UNL     1       4.117   4.268  17.430  0.00  0.00    +0.000 C 
ATOM      9  C   UNL     1       5.245   3.917  16.438  0.00  0.00    +0.000 C 
ATOM     10  C   UNL     1       2.868   3.480  16.997  0.00  0.00    +0.000 C 
BRANCH   8  11
ATOM     11  C   UNL     1       4.520   3.870  18.873  0.00  0.00    +0.000 C 
BRANCH  11  12
ATOM     12  C   UNL     1       4.112   2.439  19.240  0.00  0.00    +0.000 C 
BRANCH  12  13
ATOM     13  C   UNL     1       3.940   2.237  20.743  0.00  0.00    +0.000 C 
BRANCH  13  15
ATOM     14  C   UNL     1       1.436   2.523  20.225  0.00  0.00    +0.000 C 
ATOM     15  C   UNL     1       2.569   2.706  21.197  0.00  0.00    +0.000 C 
ATOM     16  O   UNL     1       2.367   3.203  22.309  0.00  0.00    +0.000 OA
ENDBRANCH  13  15
ENDBRANCH  12  13
ENDBRANCH  11  12
ENDBRANCH   8  11
ENDBRANCH   6   8
ENDBRANCH   5   6
ENDBRANCH   4   5
ENDBRANCH   1   4
BRANCH   3  17
ATOM     17  C   UNL     1       1.161   8.855  22.256  0.00  0.00    +0.000 C 
BRANCH  17  18
ATOM     18  C   UNL     1      -0.341   9.163  22.248  0.00  0.00    +0.000 C 
BRANCH  18  19
ATOM     19  C   UNL     1      -0.634  10.436  21.486  0.00  0.00    +0.000 C 
ATOM     20  C   UNL     1      -0.680  11.709  22.293  0.00  0.00    +0.000 C 
ATOM     21  C   UNL     1      -0.798  10.425  20.149  0.00  0.00    +0.000 C 
BRANCH  21  22
ATOM     22  C   UNL     1      -1.043  11.652  19.319  0.00  0.00    +0.000 C 
BRANCH  22  23
ATOM     23  C   UNL     1      -2.530  11.926  19.084  0.00  0.00    +0.000 C 
BRANCH  23  24
ATOM     24  C   UNL     1      -2.955  11.466  17.729  0.00  0.00    +0.000 C 
ATOM     25  C   UNL     1      -2.170  11.034  16.743  0.00  0.00    +0.000 C 
ATOM     26  C   UNL     1      -3.050  10.726  15.621  0.00  0.00    +0.000 C 
ATOM     27  O   UNL     1      -2.665  10.323  14.536  0.00  0.00    +0.000 OA
ATOM     28  O   UNL     1      -4.343  10.928  15.975  0.00  0.00    +0.000 OA
ATOM     29  C   UNL     1      -4.369  11.482  17.283  0.00  0.00    +0.000 C 
BRANCH  29  30
ATOM     30  O   UNL     1      -5.192  10.723  18.141  0.00  0.00    +0.000 OA
ATOM     31  H   UNL     1      -6.097  11.059  18.045  0.00  0.00    +0.000 HD
ENDBRANCH  29  30
ENDBRANCH  23  24
ENDBRANCH  22  23
ENDBRANCH  21  22
ENDBRANCH  18  19
ENDBRANCH  17  18
ENDBRANCH   3  17
TORSDOF 15
ENDMDL
MODEL 3
REMARK VINA RESULT:      -7.0      6.370      9.773
REMARK  Name = 
REMARK  20 active torsions:
REMARK  status: ('A' for Active; 'I' for Inactive)
REMARK    1  A    between atoms: C_1  and  C_2
REMARK    2  A    between atoms: C_2  and  C_4
REMARK    3  A    between atoms: C_4  and  C_5
REMARK    4  A    between atoms: C_5  and  C_6
REMARK    5  A    between atoms: C_6  and  C_7
REMARK    6  A    between atoms: C_7  and  C_8
REMARK    7  A    between atoms: C_7  and  C_9
REMARK    8  A    between atoms: C_7  and  C_10
REMARK    9  A    between atoms: C_10  and  C_12
REMARK   10  A    between atoms: C_12  and  C_13
REMARK   11  A    between atoms: C_13  and  C_14
REMARK   12  A    between atoms: C_14  and  C_15
REMARK   13  A    between atoms: C_16  and  C_17
REMARK   14  A    between atoms: C_17  and  C_18
REMARK   15  A    between atoms: C_18  and  C_19
REMARK   16  A    between atoms: C_19  and  C_20
REMARK   17  A    between atoms: C_21  and  C_22
REMARK   18  A    between atoms: C_22  and  C_23
REMARK   19  A    between atoms: C_23  and  C_24
REMARK   20  A    between atoms: C_29  and  O_30
REMARK                            x       y       z     vdW  Elec       q    Type
REMARK                         _______ _______ _______ _____ _____    ______ ____
ROOT
ATOM      1  C   UNL     1       2.554   4.646  19.186  0.00  0.00    +0.000 C 
ATOM      2  C   UNL     1       1.801   4.660  17.882  0.00  0.00    +0.000 C 
ATOM      3  C   UNL     1       2.363   5.620  20.101  0.00  0.00    +0.000 C 
ENDROOT
BRANCH   1   4
ATOM      4  C   UNL     1       3.504   3.476  19.398  0.00  0.00    +0.000 C 
BRANCH   4   5
ATOM      5  C   UNL     1       4.782   3.590  18.573  0.00  0.00    +0.000 C 
BRANCH   5   6
ATOM      6  C   UNL     1       5.488   4.926  18.655  0.00  0.00    +0.000 C 
ATOM      7  O   UNL     1       5.939   5.355  19.720  0.00  0.00    +0.000 OA
BRANCH   6   8
ATOM      8  C   UNL     1       5.618   5.743  17.344  0.00  0.00    +0.000 C 
ATOM      9  C   UNL     1       7.036   6.303  17.104  0.00  0.00    +0.000 C 
ATOM     10  C   UNL     1       4.667   6.946  17.465  0.00  0.00    +0.000 C 
BRANCH   8  11
ATOM     11  C   UNL     1       5.185   4.841  16.160  0.00  0.00    +0.000 C 
BRANCH  11  12
ATOM     12  C   UNL     1       6.341   4.031  15.564  0.00  0.00    +0.000 C 
BRANCH  12  13
ATOM     13  C   UNL     1       6.224   3.851  14.052  0.00  0.00    +0.000 C 
BRANCH  13  15
ATOM     14  C   UNL     1       7.317   4.555  11.833  0.00  0.00    +0.000 C 
ATOM     15  C   UNL     1       7.230   4.724  13.325  0.00  0.00    +0.000 C 
ATOM     16  O   UNL     1       7.943   5.548  13.905  0.00  0.00    +0.000 OA
ENDBRANCH  13  15
ENDBRANCH  12  13
ENDBRANCH  11  12
ENDBRANCH   8  11
ENDBRANCH   6   8
ENDBRANCH   5   6
ENDBRANCH   4   5
ENDBRANCH   1   4
BRANCH   3  17
ATOM     17  C   UNL     1       1.422   6.776  19.927  0.00  0.00    +0.000 C 
BRANCH  17  18
ATOM     18  C   UNL     1       1.614   7.855  20.999  0.00  0.00    +0.000 C 
BRANCH  18  19
ATOM     19  C   UNL     1       0.828   9.103  20.667  0.00  0.00    +0.000 C 
ATOM     20  C   UNL     1      -0.009   9.688  21.777  0.00  0.00    +0.000 C 
ATOM     21  C   UNL     1       0.917   9.678  19.452  0.00  0.00    +0.000 C 
BRANCH  21  22
ATOM     22  C   UNL     1       0.206  10.943  19.063  0.00  0.00    +0.000 C 
BRANCH  22  23
ATOM     23  C   UNL     1      -1.087  10.686  18.285  0.00  0.00    +0.000 C 
BRANCH  23  24
ATOM     24  C   UNL     1      -2.228  11.451  18.867  0.00  0.00    +0.000 C 
ATOM     25  C   UNL     1      -2.209  12.219  19.956  0.00  0.00    +0.000 C 
ATOM     26  C   UNL     1      -3.566  12.727  20.125  0.00  0.00    +0.000 C 
ATOM     27  O   UNL     1      -3.920  13.452  21.040  0.00  0.00    +0.000 OA
ATOM     28  O   UNL     1      -4.354  12.296  19.108  0.00  0.00    +0.000 OA
ATOM     29  C   UNL     1      -3.597  11.406  18.302  0.00  0.00    +0.000 C 
BRANCH  29  30
ATOM     30  O   UNL     1      -3.612  11.806  16.949  0.00  0.00    +0.000 OA
ATOM     31  H   UNL     1      -4.160  12.605  16.890  0.00  0.00    +0.000 HD
ENDBRANCH  29  30
ENDBRANCH  23  24
ENDBRANCH  22  23
ENDBRANCH  21  22
ENDBRANCH  18  19
ENDBRANCH  17  18
ENDBRANCH   3  17
TORSDOF 15
ENDMDL
MODEL 4
REMARK VINA RESULT:      -6.9      6.720     10.968
REMARK  Name = 
REMARK  20 active torsions:
REMARK  status: ('A' for Active; 'I' for Inactive)
REMARK    1  A    between atoms: C_1  and  C_2
REMARK    2  A    between atoms: C_2  and  C_4
REMARK    3  A    between atoms: C_4  and  C_5
REMARK    4  A    between atoms: C_5  and  C_6
REMARK    5  A    between atoms: C_6  and  C_7
REMARK    6  A    between atoms: C_7  and  C_8
REMARK    7  A    between atoms: C_7  and  C_9
REMARK    8  A    between atoms: C_7  and  C_10
REMARK    9  A    between atoms: C_10  and  C_12
REMARK   10  A    between atoms: C_12  and  C_13
REMARK   11  A    between atoms: C_13  and  C_14
REMARK   12  A    between atoms: C_14  and  C_15
REMARK   13  A    between atoms: C_16  and  C_17
REMARK   14  A    between atoms: C_17  and  C_18
REMARK   15  A    between atoms: C_18  and  C_19
REMARK   16  A    between atoms: C_19  and  C_20
REMARK   17  A    between atoms: C_21  and  C_22
REMARK   18  A    between atoms: C_22  and  C_23
REMARK   19  A    between atoms: C_23  and  C_24
REMARK   20  A    between atoms: C_29  and  O_30
REMARK                            x       y       z     vdW  Elec       q    Type
REMARK                         _______ _______ _______ _____ _____    ______ ____
ROOT
ATOM      1  C   UNL     1       2.962   7.331  18.055  0.00  0.00    +0.000 C 
ATOM      2  C   UNL     1       2.757   6.453  19.261  0.00  0.00    +0.000 C 
ATOM      3  C   UNL     1       4.138   7.326  17.392  0.00  0.00    +0.000 C 
ENDROOT
BRANCH   1   4
ATOM      4  C   UNL     1       1.773   8.187  17.641  0.00  0.00    +0.000 C 
BRANCH   4   5
ATOM      5  C   UNL     1       1.847   9.612  18.182  0.00  0.00    +0.000 C 
BRANCH   5   6
ATOM      6  C   UNL     1       0.859   9.939  19.279  0.00  0.00    +0.000 C 
ATOM      7  O   UNL     1       0.922   9.403  20.389  0.00  0.00    +0.000 OA
BRANCH   6   8
ATOM      8  C   UNL     1      -0.248  10.975  18.953  0.00  0.00    +0.000 C 
ATOM      9  C   UNL     1       0.296  12.390  18.669  0.00  0.00    +0.000 C 
ATOM     10  C   UNL     1      -1.154  11.074  20.193  0.00  0.00    +0.000 C 
BRANCH   8  11
ATOM     11  C   UNL     1      -1.064  10.454  17.741  0.00  0.00    +0.000 C 
BRANCH  11  12
ATOM     12  C   UNL     1      -2.509  10.091  18.099  0.00  0.00    +0.000 C 
BRANCH  12  13
ATOM     13  C   UNL     1      -3.536  10.948  17.362  0.00  0.00    +0.000 C 
BRANCH  13  15
ATOM     14  C   UNL     1      -5.975  11.013  18.176  0.00  0.00    +0.000 C 
ATOM     15  C   UNL     1      -4.563  11.509  18.328  0.00  0.00    +0.000 C 
ATOM     16  O   UNL     1      -4.277  12.324  19.210  0.00  0.00    +0.000 OA
ENDBRANCH  13  15
ENDBRANCH  12  13
ENDBRANCH  11  12
ENDBRANCH   8  11
ENDBRANCH   6   8
ENDBRANCH   5   6
ENDBRANCH   4   5
ENDBRANCH   1   4
BRANCH   3  17
ATOM     17  C   UNL     1       5.320   6.481  17.768  0.00  0.00    +0.000 C 
BRANCH  17  18
ATOM     18  C   UNL     1       5.940   5.770  16.558  0.00  0.00    +0.000 C 
BRANCH  18  19
ATOM     19  C   UNL     1       5.200   4.493  16.237  0.00  0.00    +0.000 C 
ATOM     20  C   UNL     1       5.645   3.748  15.002  0.00  0.00    +0.000 C 
ATOM     21  C   UNL     1       4.226   4.030  17.044  0.00  0.00    +0.000 C 
BRANCH  21  22
ATOM     22  C   UNL     1       3.480   2.746  16.817  0.00  0.00    +0.000 C 
BRANCH  22  23
ATOM     23  C   UNL     1       3.594   1.774  17.993  0.00  0.00    +0.000 C 
BRANCH  23  24
ATOM     24  C   UNL     1       2.797   2.247  19.162  0.00  0.00    +0.000 C 
ATOM     25  C   UNL     1       3.259   2.590  20.365  0.00  0.00    +0.000 C 
ATOM     26  C   UNL     1       2.095   2.957  21.164  0.00  0.00    +0.000 C 
ATOM     27  O   UNL     1       2.144   3.305  22.331  0.00  0.00    +0.000 OA
ATOM     28  O   UNL     1       0.970   2.876  20.410  0.00  0.00    +0.000 OA
ATOM     29  C   UNL     1       1.318   2.350  19.139  0.00  0.00    +0.000 C 
BRANCH  29  30
ATOM     30  O   UNL     1       0.875   3.194  18.099  0.00  0.00    +0.000 OA
ATOM     31  H   UNL     1       0.536   2.625  17.389  0.00  0.00    +0.000 HD
ENDBRANCH  29  30
ENDBRANCH  23  24
ENDBRANCH  22  23
ENDBRANCH  21  22
ENDBRANCH  18  19
ENDBRANCH  17  18
ENDBRANCH   3  17
TORSDOF 15
ENDMDL
MODEL 5
REMARK VINA RESULT:      -6.9      6.752      9.017
REMARK  Name = 
REMARK  20 active torsions:
REMARK  status: ('A' for Active; 'I' for Inactive)
REMARK    1  A    between atoms: C_1  and  C_2
REMARK    2  A    between atoms: C_2  and  C_4
REMARK    3  A    between atoms: C_4  and  C_5
REMARK    4  A    between atoms: C_5  and  C_6
REMARK    5  A    between atoms: C_6  and  C_7
REMARK    6  A    between atoms: C_7  and  C_8
REMARK    7  A    between atoms: C_7  and  C_9
REMARK    8  A    between atoms: C_7  and  C_10
REMARK    9  A    between atoms: C_10  and  C_12
REMARK   10  A    between atoms: C_12  and  C_13
REMARK   11  A    between atoms: C_13  and  C_14
REMARK   12  A    between atoms: C_14  and  C_15
REMARK   13  A    between atoms: C_16  and  C_17
REMARK   14  A    between atoms: C_17  and  C_18
REMARK   15  A    between atoms: C_18  and  C_19
REMARK   16  A    between atoms: C_19  and  C_20
REMARK   17  A    between atoms: C_21  and  C_22
REMARK   18  A    between atoms: C_22  and  C_23
REMARK   19  A    between atoms: C_23  and  C_24
REMARK   20  A    between atoms: C_29  and  O_30
REMARK                            x       y       z     vdW  Elec       q    Type
REMARK                         _______ _______ _______ _____ _____    ______ ____
ROOT
ATOM      1  C   UNL     1       3.277   6.098  19.295  0.00  0.00    +0.000 C 
ATOM      2  C   UNL     1       2.213   5.714  20.289  0.00  0.00    +0.000 C 
ATOM      3  C   UNL     1       3.035   7.037  18.356  0.00  0.00    +0.000 C 
ENDROOT
BRANCH   1   4
ATOM      4  C   UNL     1       4.613   5.382  19.435  0.00  0.00    +0.000 C 
BRANCH   4   5
ATOM      5  C   UNL     1       5.715   6.004  18.582  0.00  0.00    +0.000 C 
BRANCH   5   6
ATOM      6  C   UNL     1       6.506   5.031  17.737  0.00  0.00    +0.000 C 
ATOM      7  O   UNL     1       7.464   4.404  18.196  0.00  0.00    +0.000 OA
BRANCH   6   8
ATOM      8  C   UNL     1       6.070   4.856  16.260  0.00  0.00    +0.000 C 
ATOM      9  C   UNL     1       7.252   4.793  15.270  0.00  0.00    +0.000 C 
ATOM     10  C   UNL     1       5.228   6.088  15.887  0.00  0.00    +0.000 C 
BRANCH   8  11
ATOM     11  C   UNL     1       5.206   3.573  16.153  0.00  0.00    +0.000 C 
BRANCH  11  12
ATOM     12  C   UNL     1       3.751   3.788  16.584  0.00  0.00    +0.000 C 
BRANCH  12  13
ATOM     13  C   UNL     1       3.200   2.633  17.416  0.00  0.00    +0.000 C 
BRANCH  13  15
ATOM     14  C   UNL     1       1.423   2.254  19.237  0.00  0.00    +0.000 C 
ATOM     15  C   UNL     1       1.837   2.980  17.986  0.00  0.00    +0.000 C 
ATOM     16  O   UNL     1       1.092   3.820  17.474  0.00  0.00    +0.000 OA
ENDBRANCH  13  15
ENDBRANCH  12  13
ENDBRANCH  11  12
ENDBRANCH   8  11
ENDBRANCH   6   8
ENDBRANCH   5   6
ENDBRANCH   4   5
ENDBRANCH   1   4
BRANCH   3  17
ATOM     17  C   UNL     1       1.734   7.770  18.205  0.00  0.00    +0.000 C 
BRANCH  17  18
ATOM     18  C   UNL     1       1.847   9.249  18.595  0.00  0.00    +0.000 C 
BRANCH  18  19
ATOM     19  C   UNL     1       0.885   9.596  19.707  0.00  0.00    +0.000 C 
ATOM     20  C   UNL     1       1.037   8.826  20.996  0.00  0.00    +0.000 C 
ATOM     21  C   UNL     1      -0.027  10.576  19.559  0.00  0.00    +0.000 C 
BRANCH  21  22
ATOM     22  C   UNL     1      -0.983  11.010  20.633  0.00  0.00    +0.000 C 
BRANCH  22  23
ATOM     23  C   UNL     1      -0.417  12.117  21.524  0.00  0.00    +0.000 C 
BRANCH  23  24
ATOM     24  C   UNL     1      -1.444  12.613  22.487  0.00  0.00    +0.000 C 
ATOM     25  C   UNL     1      -2.381  11.894  23.105  0.00  0.00    +0.000 C 
ATOM     26  C   UNL     1      -3.149  12.830  23.918  0.00  0.00    +0.000 C 
ATOM     27  O   UNL     1      -4.105  12.519  24.606  0.00  0.00    +0.000 OA
ATOM     28  O   UNL     1      -2.625  14.077  23.810  0.00  0.00    +0.000 OA
ATOM     29  C   UNL     1      -1.581  14.044  22.849  0.00  0.00    +0.000 C 
BRANCH  29  30
ATOM     30  O   UNL     1      -0.381  14.560  23.382  0.00  0.00    +0.000 OA
ATOM     31  H   UNL     1      -0.328  15.493  23.123  0.00  0.00    +0.000 HD
ENDBRANCH  29  30
ENDBRANCH  23  24
ENDBRANCH  22  23
ENDBRANCH  21  22
ENDBRANCH  18  19
ENDBRANCH  17  18
ENDBRANCH   3  17
TORSDOF 15
ENDMDL
MODEL 6
REMARK VINA RESULT:      -6.9      5.678      8.996
REMARK  Name = 
REMARK  20 active torsions:
REMARK  status: ('A' for Active; 'I' for Inactive)
REMARK    1  A    between atoms: C_1  and  C_2
REMARK    2  A    between atoms: C_2  and  C_4
REMARK    3  A    between atoms: C_4  and  C_5
REMARK    4  A    between atoms: C_5  and  C_6
REMARK    5  A    between atoms: C_6  and  C_7
REMARK    6  A    between atoms: C_7  and  C_8
REMARK    7  A    between atoms: C_7  and  C_9
REMARK    8  A    between atoms: C_7  and  C_10
REMARK    9  A    between atoms: C_10  and  C_12
REMARK   10  A    between atoms: C_12  and  C_13
REMARK   11  A    between atoms: C_13  and  C_14
REMARK   12  A    between atoms: C_14  and  C_15
REMARK   13  A    between atoms: C_16  and  C_17
REMARK   14  A    between atoms: C_17  and  C_18
REMARK   15  A    between atoms: C_18  and  C_19
REMARK   16  A    between atoms: C_19  and  C_20
REMARK   17  A    between atoms: C_21  and  C_22
REMARK   18  A    between atoms: C_22  and  C_23
REMARK   19  A    between atoms: C_23  and  C_24
REMARK   20  A    between atoms: C_29  and  O_30
REMARK                            x       y       z     vdW  Elec       q    Type
REMARK                         _______ _______ _______ _____ _____    ______ ____
ROOT
ATOM      1  C   UNL     1       2.027   4.196  20.468  0.00  0.00    +0.000 C 
ATOM      2  C   UNL     1       0.804   3.972  19.618  0.00  0.00    +0.000 C 
ATOM      3  C   UNL     1       2.368   5.439  20.869  0.00  0.00    +0.000 C 
ENDROOT
BRANCH   1   4
ATOM      4  C   UNL     1       2.815   2.950  20.846  0.00  0.00    +0.000 C 
BRANCH   4   5
ATOM      5  C   UNL     1       3.595   2.360  19.675  0.00  0.00    +0.000 C 
BRANCH   5   6
ATOM      6  C   UNL     1       4.499   3.330  18.946  0.00  0.00    +0.000 C 
ATOM      7  O   UNL     1       5.513   3.792  19.474  0.00  0.00    +0.000 OA
BRANCH   6   8
ATOM      8  C   UNL     1       4.097   3.729  17.503  0.00  0.00    +0.000 C 
ATOM      9  C   UNL     1       2.899   2.927  16.951  0.00  0.00    +0.000 C 
ATOM     10  C   UNL     1       5.303   3.427  16.597  0.00  0.00    +0.000 C 
BRANCH   8  11
ATOM     11  C   UNL     1       3.787   5.248  17.483  0.00  0.00    +0.000 C 
BRANCH  11  12
ATOM     12  C   UNL     1       4.753   6.049  16.604  0.00  0.00    +0.000 C 
BRANCH  12  13
ATOM     13  C   UNL     1       5.524   7.112  17.383  0.00  0.00    +0.000 C 
BRANCH  13  15
ATOM     14  C   UNL     1       7.868   8.134  17.658  0.00  0.00    +0.000 C 
ATOM     15  C   UNL     1       6.999   7.080  17.028  0.00  0.00    +0.000 C 
ATOM     16  O   UNL     1       7.486   6.235  16.273  0.00  0.00    +0.000 OA
ENDBRANCH  13  15
ENDBRANCH  12  13
ENDBRANCH  11  12
ENDBRANCH   8  11
ENDBRANCH   6   8
ENDBRANCH   5   6
ENDBRANCH   4   5
ENDBRANCH   1   4
BRANCH   3  17
ATOM     17  C   UNL     1       1.601   6.682  20.525  0.00  0.00    +0.000 C 
BRANCH  17  18
ATOM     18  C   UNL     1       2.343   7.569  19.518  0.00  0.00    +0.000 C 
BRANCH  18  19
ATOM     19  C   UNL     1       1.541   8.805  19.182  0.00  0.00    +0.000 C 
ATOM     20  C   UNL     1       1.497   9.206  17.728  0.00  0.00    +0.000 C 
ATOM     21  C   UNL     1       0.867   9.477  20.135  0.00  0.00    +0.000 C 
BRANCH  21  22
ATOM     22  C   UNL     1       0.011  10.684  19.871  0.00  0.00    +0.000 C 
BRANCH  22  23
ATOM     23  C   UNL     1      -1.194  10.776  20.809  0.00  0.00    +0.000 C 
BRANCH  23  24
ATOM     24  C   UNL     1      -1.272  12.118  21.457  0.00  0.00    +0.000 C 
ATOM     25  C   UNL     1      -0.700  12.493  22.601  0.00  0.00    +0.000 C 
ATOM     26  C   UNL     1      -1.089  13.882  22.819  0.00  0.00    +0.000 C 
ATOM     27  O   UNL     1      -0.760  14.544  23.789  0.00  0.00    +0.000 OA
ATOM     28  O   UNL     1      -1.840  14.324  21.779  0.00  0.00    +0.000 OA
ATOM     29  C   UNL     1      -2.076  13.233  20.902  0.00  0.00    +0.000 C 
BRANCH  29  30
ATOM     30  O   UNL     1      -1.684  13.547  19.583  0.00  0.00    +0.000 OA
ATOM     31  H   UNL     1      -2.211  14.311  19.299  0.00  0.00    +0.000 HD
ENDBRANCH  29  30
ENDBRANCH  23  24
ENDBRANCH  22  23
ENDBRANCH  21  22
ENDBRANCH  18  19
ENDBRANCH  17  18
ENDBRANCH   3  17
TORSDOF 15
ENDMDL
MODEL 7
REMARK VINA RESULT:      -6.9      2.891      3.807
REMARK  Name = 
REMARK  20 active torsions:
REMARK  status: ('A' for Active; 'I' for Inactive)
REMARK    1  A    between atoms: C_1  and  C_2
REMARK    2  A    between atoms: C_2  and  C_4
REMARK    3  A    between atoms: C_4  and  C_5
REMARK    4  A    between atoms: C_5  and  C_6
REMARK    5  A    between atoms: C_6  and  C_7
REMARK    6  A    between atoms: C_7  and  C_8
REMARK    7  A    between atoms: C_7  and  C_9
REMARK    8  A    between atoms: C_7  and  C_10
REMARK    9  A    between atoms: C_10  and  C_12
REMARK   10  A    between atoms: C_12  and  C_13
REMARK   11  A    between atoms: C_13  and  C_14
REMARK   12  A    between atoms: C_14  and  C_15
REMARK   13  A    between atoms: C_16  and  C_17
REMARK   14  A    between atoms: C_17  and  C_18
REMARK   15  A    between atoms: C_18  and  C_19
REMARK   16  A    between atoms: C_19  and  C_20
REMARK   17  A    between atoms: C_21  and  C_22
REMARK   18  A    between atoms: C_22  and  C_23
REMARK   19  A    between atoms: C_23  and  C_24
REMARK   20  A    between atoms: C_29  and  O_30
REMARK                            x       y       z     vdW  Elec       q    Type
REMARK                         _______ _______ _______ _____ _____    ______ ____
ROOT
ATOM      1  C   UNL     1       7.529   7.345  17.603  0.00  0.00    +0.000 C 
ATOM      2  C   UNL     1       7.894   6.450  18.758  0.00  0.00    +0.000 C 
ATOM      3  C   UNL     1       7.911   8.640  17.587  0.00  0.00    +0.000 C 
ENDROOT
BRANCH   1   4
ATOM      4  C   UNL     1       6.737   6.695  16.477  0.00  0.00    +0.000 C 
BRANCH   4   5
ATOM      5  C   UNL     1       5.690   5.706  16.981  0.00  0.00    +0.000 C 
BRANCH   5   6
ATOM      6  C   UNL     1       4.380   6.319  17.422  0.00  0.00    +0.000 C 
ATOM      7  O   UNL     1       4.011   7.423  17.013  0.00  0.00    +0.000 OA
BRANCH   6   8
ATOM      8  C   UNL     1       3.516   5.506  18.420  0.00  0.00    +0.000 C 
ATOM      9  C   UNL     1       2.435   4.641  17.739  0.00  0.00    +0.000 C 
ATOM     10  C   UNL     1       2.788   6.521  19.319  0.00  0.00    +0.000 C 
BRANCH   8  11
ATOM     11  C   UNL     1       4.458   4.621  19.276  0.00  0.00    +0.000 C 
BRANCH  11  12
ATOM     12  C   UNL     1       4.263   3.121  19.032  0.00  0.00    +0.000 C 
BRANCH  12  13
ATOM     13  C   UNL     1       3.850   2.363  20.291  0.00  0.00    +0.000 C 
BRANCH  13  15
ATOM     14  C   UNL     1       1.939   3.285  21.744  0.00  0.00    +0.000 C 
ATOM     15  C   UNL     1       2.358   2.493  20.535  0.00  0.00    +0.000 C 
ATOM     16  O   UNL     1       1.512   1.996  19.788  0.00  0.00    +0.000 OA
ENDBRANCH  13  15
ENDBRANCH  12  13
ENDBRANCH  11  12
ENDBRANCH   8  11
ENDBRANCH   6   8
ENDBRANCH   5   6
ENDBRANCH   4   5
ENDBRANCH   1   4
BRANCH   3  17
ATOM     17  C   UNL     1       8.707   9.303  18.675  0.00  0.00    +0.000 C 
BRANCH  17  18
ATOM     18  C   UNL     1       9.345  10.619  18.214  0.00  0.00    +0.000 C 
BRANCH  18  19
ATOM     19  C   UNL     1       9.348  11.644  19.325  0.00  0.00    +0.000 C 
ATOM     20  C   UNL     1       9.016  13.062  18.933  0.00  0.00    +0.000 C 
ATOM     21  C   UNL     1       9.590  11.287  20.601  0.00  0.00    +0.000 C 
BRANCH  21  22
ATOM     22  C   UNL     1       9.562  12.238  21.763  0.00  0.00    +0.000 C 
BRANCH  22  23
ATOM     23  C   UNL     1       8.362  12.019  22.685  0.00  0.00    +0.000 C 
BRANCH  23  24
ATOM     24  C   UNL     1       7.543  13.260  22.808  0.00  0.00    +0.000 C 
ATOM     25  C   UNL     1       7.738  14.418  22.178  0.00  0.00    +0.000 C 
ATOM     26  C   UNL     1       6.694  15.323  22.648  0.00  0.00    +0.000 C 
ATOM     27  O   UNL     1       6.580  16.484  22.294  0.00  0.00    +0.000 OA
ATOM     28  O   UNL     1       5.868  14.675  23.507  0.00  0.00    +0.000 OA
ATOM     29  C   UNL     1       6.387  13.372  23.730  0.00  0.00    +0.000 C 
BRANCH  29  30
ATOM     30  O   UNL     1       5.415  12.384  23.465  0.00  0.00    +0.000 OA
ATOM     31  H   UNL     1       4.606  12.642  23.934  0.00  0.00    +0.000 HD
ENDBRANCH  29  30
ENDBRANCH  23  24
ENDBRANCH  22  23
ENDBRANCH  21  22
ENDBRANCH  18  19
ENDBRANCH  17  18
ENDBRANCH   3  17
TORSDOF 15
ENDMDL
MODEL 8
REMARK VINA RESULT:      -6.8      6.881     10.578
REMARK  Name = 
REMARK  20 active torsions:
REMARK  status: ('A' for Active; 'I' for Inactive)
REMARK    1  A    between atoms: C_1  and  C_2
REMARK    2  A    between atoms: C_2  and  C_4
REMARK    3  A    between atoms: C_4  and  C_5
REMARK    4  A    between atoms: C_5  and  C_6
REMARK    5  A    between atoms: C_6  and  C_7
REMARK    6  A    between atoms: C_7  and  C_8
REMARK    7  A    between atoms: C_7  and  C_9
REMARK    8  A    between atoms: C_7  and  C_10
REMARK    9  A    between atoms: C_10  and  C_12
REMARK   10  A    between atoms: C_12  and  C_13
REMARK   11  A    between atoms: C_13  and  C_14
REMARK   12  A    between atoms: C_14  and  C_15
REMARK   13  A    between atoms: C_16  and  C_17
REMARK   14  A    between atoms: C_17  and  C_18
REMARK   15  A    between atoms: C_18  and  C_19
REMARK   16  A    between atoms: C_19  and  C_20
REMARK   17  A    between atoms: C_21  and  C_22
REMARK   18  A    between atoms: C_22  and  C_23
REMARK   19  A    between atoms: C_23  and  C_24
REMARK   20  A    between atoms: C_29  and  O_30
REMARK                            x       y       z     vdW  Elec       q    Type
REMARK                         _______ _______ _______ _____ _____    ______ ____
ROOT
ATOM      1  C   UNL     1       2.107   8.095  18.753  0.00  0.00    +0.000 C 
ATOM      2  C   UNL     1       2.103   7.320  20.044  0.00  0.00    +0.000 C 
ATOM      3  C   UNL     1       1.371   9.220  18.622  0.00  0.00    +0.000 C 
ENDROOT
BRANCH   1   4
ATOM      4  C   UNL     1       2.991   7.542  17.643  0.00  0.00    +0.000 C 
BRANCH   4   5
ATOM      5  C   UNL     1       3.964   6.475  18.134  0.00  0.00    +0.000 C 
BRANCH   5   6
ATOM      6  C   UNL     1       5.165   6.237  17.246  0.00  0.00    +0.000 C 
ATOM      7  O   UNL     1       5.779   7.171  16.723  0.00  0.00    +0.000 OA
BRANCH   6   8
ATOM      8  C   UNL     1       5.597   4.767  17.012  0.00  0.00    +0.000 C 
ATOM      9  C   UNL     1       7.100   4.518  17.252  0.00  0.00    +0.000 C 
ATOM     10  C   UNL     1       5.311   4.442  15.535  0.00  0.00    +0.000 C 
BRANCH   8  11
ATOM     11  C   UNL     1       4.742   3.854  17.929  0.00  0.00    +0.000 C 
BRANCH  11  12
ATOM     12  C   UNL     1       3.756   2.974  17.153  0.00  0.00    +0.000 C 
BRANCH  12  13
ATOM     13  C   UNL     1       2.598   2.477  18.016  0.00  0.00    +0.000 C 
BRANCH  13  15
ATOM     14  C   UNL     1       1.142   3.774  19.693  0.00  0.00    +0.000 C 
ATOM     15  C   UNL     1       1.598   3.588  18.271  0.00  0.00    +0.000 C 
ATOM     16  O   UNL     1       1.174   4.325  17.377  0.00  0.00    +0.000 OA
ENDBRANCH  13  15
ENDBRANCH  12  13
ENDBRANCH  11  12
ENDBRANCH   8  11
ENDBRANCH   6   8
ENDBRANCH   5   6
ENDBRANCH   4   5
ENDBRANCH   1   4
BRANCH   3  17
ATOM     17  C   UNL     1       0.504   9.796  19.704  0.00  0.00    +0.000 C 
BRANCH  17  18
ATOM     18  C   UNL     1       0.493  11.330  19.689  0.00  0.00    +0.000 C 
BRANCH  18  19
ATOM     19  C   UNL     1      -0.622  11.860  18.817  0.00  0.00    +0.000 C 
ATOM     20  C   UNL     1      -0.472  13.275  18.316  0.00  0.00    +0.000 C 
ATOM     21  C   UNL     1      -1.668  11.082  18.474  0.00  0.00    +0.000 C 
BRANCH  21  22
ATOM     22  C   UNL     1      -2.787  11.522  17.574  0.00  0.00    +0.000 C 
BRANCH  22  23
ATOM     23  C   UNL     1      -4.093  10.769  17.836  0.00  0.00    +0.000 C 
BRANCH  23  24
ATOM     24  C   UNL     1      -5.082  11.634  18.543  0.00  0.00    +0.000 C 
ATOM     25  C   UNL     1      -4.856  12.419  19.595  0.00  0.00    +0.000 C 
ATOM     26  C   UNL     1      -6.134  13.037  19.930  0.00  0.00    +0.000 C 
ATOM     27  O   UNL     1      -6.304  13.805  20.862  0.00  0.00    +0.000 OA
ATOM     28  O   UNL     1      -7.084  12.651  19.042  0.00  0.00    +0.000 OA
ATOM     29  C   UNL     1      -6.515  11.687  18.169  0.00  0.00    +0.000 C 
BRANCH  29  30
ATOM     30  O   UNL     1      -6.685  12.061  16.819  0.00  0.00    +0.000 OA
ATOM     31  H   UNL     1      -7.638  12.147  16.660  0.00  0.00    +0.000 HD
ENDBRANCH  29  30
ENDBRANCH  23  24
ENDBRANCH  22  23
ENDBRANCH  21  22
ENDBRANCH  18  19
ENDBRANCH  17  18
ENDBRANCH   3  17
TORSDOF 15
ENDMDL
MODEL 9
REMARK VINA RESULT:      -6.7      5.896     11.445
REMARK  Name = 
REMARK  20 active torsions:
REMARK  status: ('A' for Active; 'I' for Inactive)
REMARK    1  A    between atoms: C_1  and  C_2
REMARK    2  A    between atoms: C_2  and  C_4
REMARK    3  A    between atoms: C_4  and  C_5
REMARK    4  A    between atoms: C_5  and  C_6
REMARK    5  A    between atoms: C_6  and  C_7
REMARK    6  A    between atoms: C_7  and  C_8
REMARK    7  A    between atoms: C_7  and  C_9
REMARK    8  A    between atoms: C_7  and  C_10
REMARK    9  A    between atoms: C_10  and  C_12
REMARK   10  A    between atoms: C_12  and  C_13
REMARK   11  A    between atoms: C_13  and  C_14
REMARK   12  A    between atoms: C_14  and  C_15
REMARK   13  A    between atoms: C_16  and  C_17
REMARK   14  A    between atoms: C_17  and  C_18
REMARK   15  A    between atoms: C_18  and  C_19
REMARK   16  A    between atoms: C_19  and  C_20
REMARK   17  A    between atoms: C_21  and  C_22
REMARK   18  A    between atoms: C_22  and  C_23
REMARK   19  A    between atoms: C_23  and  C_24
REMARK   20  A    between atoms: C_29  and  O_30
REMARK                            x       y       z     vdW  Elec       q    Type
REMARK                         _______ _______ _______ _____ _____    ______ ____
ROOT
ATOM      1  C   UNL     1       2.812   7.635  18.168  0.00  0.00    +0.000 C 
ATOM      2  C   UNL     1       2.523   6.706  19.317  0.00  0.00    +0.000 C 
ATOM      3  C   UNL     1       3.992   7.575  17.513  0.00  0.00    +0.000 C 
ENDROOT
BRANCH   1   4
ATOM      4  C   UNL     1       1.701   8.607  17.798  0.00  0.00    +0.000 C 
BRANCH   4   5
ATOM      5  C   UNL     1       1.267   9.488  18.966  0.00  0.00    +0.000 C 
BRANCH   5   6
ATOM      6  C   UNL     1       0.339  10.628  18.607  0.00  0.00    +0.000 C 
ATOM      7  O   UNL     1      -0.766  10.427  18.096  0.00  0.00    +0.000 OA
BRANCH   6   8
ATOM      8  C   UNL     1       0.834  12.067  18.901  0.00  0.00    +0.000 C 
ATOM      9  C   UNL     1       2.223  12.377  18.304  0.00  0.00    +0.000 C 
ATOM     10  C   UNL     1       0.954  12.201  20.429  0.00  0.00    +0.000 C 
BRANCH   8  11
ATOM     11  C   UNL     1      -0.222  13.067  18.363  0.00  0.00    +0.000 C 
BRANCH  11  12
ATOM     12  C   UNL     1      -0.540  14.196  19.349  0.00  0.00    +0.000 C 
BRANCH  12  13
ATOM     13  C   UNL     1      -0.166  15.576  18.813  0.00  0.00    +0.000 C 
BRANCH  13  15
ATOM     14  C   UNL     1       1.408  16.474  20.638  0.00  0.00    +0.000 C 
ATOM     15  C   UNL     1       1.241  15.957  19.236  0.00  0.00    +0.000 C 
ATOM     16  O   UNL     1       2.217  15.845  18.489  0.00  0.00    +0.000 OA
ENDBRANCH  13  15
ENDBRANCH  12  13
ENDBRANCH  11  12
ENDBRANCH   8  11
ENDBRANCH   6   8
ENDBRANCH   5   6
ENDBRANCH   4   5
ENDBRANCH   1   4
BRANCH   3  17
ATOM     17  C   UNL     1       5.098   6.616  17.845  0.00  0.00    +0.000 C 
BRANCH  17  18
ATOM     18  C   UNL     1       5.637   5.892  16.605  0.00  0.00    +0.000 C 
BRANCH  18  19
ATOM     19  C   UNL     1       4.826   4.655  16.298  0.00  0.00    +0.000 C 
ATOM     20  C   UNL     1       5.239   3.862  15.083  0.00  0.00    +0.000 C 
ATOM     21  C   UNL     1       3.818   4.266  17.103  0.00  0.00    +0.000 C 
BRANCH  21  22
ATOM     22  C   UNL     1       2.999   3.024  16.890  0.00  0.00    +0.000 C 
BRANCH  22  23
ATOM     23  C   UNL     1       3.449   1.856  17.769  0.00  0.00    +0.000 C 
BRANCH  23  24
ATOM     24  C   UNL     1       3.176   2.130  19.211  0.00  0.00    +0.000 C 
ATOM     25  C   UNL     1       1.985   2.211  19.803  0.00  0.00    +0.000 C 
ATOM     26  C   UNL     1       2.242   2.517  21.206  0.00  0.00    +0.000 C 
ATOM     27  O   UNL     1       1.373   2.683  22.044  0.00  0.00    +0.000 OA
ATOM     28  O   UNL     1       3.579   2.562  21.434  0.00  0.00    +0.000 OA
ATOM     29  C   UNL     1       4.251   2.407  20.193  0.00  0.00    +0.000 C 
BRANCH  29  30
ATOM     30  O   UNL     1       5.186   1.351  20.249  0.00  0.00    +0.000 OA
ATOM     31  H   UNL     1       5.563   1.346  21.143  0.00  0.00    +0.000 HD
ENDBRANCH  29  30
ENDBRANCH  23  24
ENDBRANCH  22  23
ENDBRANCH  21  22
ENDBRANCH  18  19
ENDBRANCH  17  18
ENDBRANCH   3  17
TORSDOF 15
ENDMDL
