MODEL 1
REMARK VINA RESULT:      -6.0      0.000      0.000
REMARK  Name = 
REMARK  1 active torsions:
REMARK  status: ('A' for Active; 'I' for Inactive)
REMARK    1  A    between atoms: C_3  and  O_4
REMARK                            x       y       z     vdW  Elec       q    Type
REMARK                         _______ _______ _______ _____ _____    ______ ____
ROOT
ATOM      1  O   UNL     1       5.250   4.281  14.952  0.00  0.00    +0.000 OA
ATOM      2  C   UNL     1       5.461   4.479  16.145  0.00  0.00    +0.000 C 
ATOM      3  C   UNL     1       6.559   5.390  16.543  0.00  0.00    +0.000 C 
ATOM      4  C   UNL     1       6.818   5.630  17.834  0.00  0.00    +0.000 C 
ATOM      5 CL   UNL     1       8.099   6.694  18.309  0.00  0.00    +0.000 Cl
ATOM      6  C   UNL     1       6.028   5.002  18.930  0.00  0.00    +0.000 C 
ATOM      7  O   UNL     1       6.267   5.226  20.112  0.00  0.00    +0.000 OA
ATOM      8  C   UNL     1       4.928   4.086  18.527  0.00  0.00    +0.000 A 
ATOM      9  N   UNL     1       4.212   3.515  19.533  0.00  0.00    +0.000 NA
ATOM     10  C   UNL     1       3.208   2.680  19.188  0.00  0.00    +0.000 A 
ATOM     11  C   UNL     1       2.878   2.382  17.876  0.00  0.00    +0.000 A 
ATOM     12  C   UNL     1       3.621   2.975  16.860  0.00  0.00    +0.000 A 
ATOM     13  C   UNL     1       4.664   3.841  17.192  0.00  0.00    +0.000 A 
ENDROOT
BRANCH   3  14
ATOM     14  O   UNL     1       7.282   5.966  15.509  0.00  0.00    +0.000 OA
ATOM     15  H   UNL     1       8.210   6.015  15.826  0.00  0.00    +0.000 HD
ENDBRANCH   3  14
TORSDOF 1
ENDMDL
MODEL 2
REMARK VINA RESULT:      -6.0      2.441      3.350
REMARK  Name = 
REMARK  1 active torsions:
REMARK  status: ('A' for Active; 'I' for Inactive)
REMARK    1  A    between atoms: C_3  and  O_4
REMARK                            x       y       z     vdW  Elec       q    Type
REMARK                         _______ _______ _______ _____ _____    ______ ____
ROOT
ATOM      1  O   UNL     1       5.257   2.326  19.797  0.00  0.00    +0.000 OA
ATOM      2  C   UNL     1       4.707   3.373  19.470  0.00  0.00    +0.000 C 
ATOM      3  C   UNL     1       5.461   4.367  18.671  0.00  0.00    +0.000 C 
ATOM      4  C   UNL     1       4.893   5.519  18.295  0.00  0.00    +0.000 C 
ATOM      5 CL   UNL     1       5.766   6.686  17.361  0.00  0.00    +0.000 Cl
ATOM      6  C   UNL     1       3.489   5.864  18.654  0.00  0.00    +0.000 C 
ATOM      7  O   UNL     1       2.972   6.920  18.306  0.00  0.00    +0.000 OA
ATOM      8  C   UNL     1       2.735   4.865  19.458  0.00  0.00    +0.000 A 
ATOM      9  N   UNL     1       1.454   5.188  19.783  0.00  0.00    +0.000 NA
ATOM     10  C   UNL     1       0.752   4.294  20.513  0.00  0.00    +0.000 A 
ATOM     11  C   UNL     1       1.268   3.081  20.939  0.00  0.00    +0.000 A 
ATOM     12  C   UNL     1       2.580   2.767  20.597  0.00  0.00    +0.000 A 
ATOM     13  C   UNL     1       3.326   3.676  19.844  0.00  0.00    +0.000 A 
ENDROOT
BRANCH   3  14
ATOM     14  O   UNL     1       6.766   4.028  18.346  0.00  0.00    +0.000 OA
ATOM     15  H   UNL     1       6.956   3.197  18.833  0.00  0.00    +0.000 HD
ENDBRANCH   3  14
TORSDOF 1
ENDMDL
MODEL 3
REMARK VINA RESULT:      -6.0      3.454      4.988
REMARK  Name = 
REMARK  1 active torsions:
REMARK  status: ('A' for Active; 'I' for Inactive)
REMARK    1  A    between atoms: C_3  and  O_4
REMARK                            x       y       z     vdW  Elec       q    Type
REMARK                         _______ _______ _______ _____ _____    ______ ____
ROOT
ATOM      1  O   UNL     1       2.578   7.163  19.318  0.00  0.00    +0.000 OA
ATOM      2  C   UNL     1       2.810   6.019  18.940  0.00  0.00    +0.000 C 
ATOM      3  C   UNL     1       2.164   4.883  19.638  0.00  0.00    +0.000 C 
ATOM      4  C   UNL     1       2.392   3.621  19.253  0.00  0.00    +0.000 C 
ATOM      5 CL   UNL     1       1.641   2.287  20.063  0.00  0.00    +0.000 Cl
ATOM      6  C   UNL     1       3.297   3.291  18.117  0.00  0.00    +0.000 C 
ATOM      7  O   UNL     1       3.502   2.134  17.767  0.00  0.00    +0.000 OA
ATOM      8  C   UNL     1       3.946   4.434  17.420  0.00  0.00    +0.000 A 
ATOM      9  N   UNL     1       4.772   4.124  16.384  0.00  0.00    +0.000 NA
ATOM     10  C   UNL     1       5.371   5.148  15.738  0.00  0.00    +0.000 A 
ATOM     11  C   UNL     1       5.186   6.479  16.074  0.00  0.00    +0.000 A 
ATOM     12  C   UNL     1       4.337   6.777  17.137  0.00  0.00    +0.000 A 
ATOM     13  C   UNL     1       3.707   5.735  17.821  0.00  0.00    +0.000 A 
ENDROOT
BRANCH   3  14
ATOM     14  O   UNL     1       1.324   5.210  20.692  0.00  0.00    +0.000 OA
ATOM     15  H   UNL     1       0.425   4.929  20.415  0.00  0.00    +0.000 HD
ENDBRANCH   3  14
TORSDOF 1
ENDMDL
MODEL 4
REMARK VINA RESULT:      -6.0      3.373      4.555
REMARK  Name = 
REMARK  1 active torsions:
REMARK  status: ('A' for Active; 'I' for Inactive)
REMARK    1  A    between atoms: C_3  and  O_4
REMARK                            x       y       z     vdW  Elec       q    Type
REMARK                         _______ _______ _______ _____ _____    ______ ____
ROOT
ATOM      1  O   UNL     1       3.776   1.877  17.505  0.00  0.00    +0.000 OA
ATOM      2  C   UNL     1       3.516   3.024  17.855  0.00  0.00    +0.000 C 
ATOM      3  C   UNL     1       2.565   3.241  18.970  0.00  0.00    +0.000 C 
ATOM      4  C   UNL     1       2.258   4.478  19.380  0.00  0.00    +0.000 C 
ATOM      5 CL   UNL     1       1.148   4.741  20.683  0.00  0.00    +0.000 Cl
ATOM      6  C   UNL     1       2.847   5.691  18.746  0.00  0.00    +0.000 C 
ATOM      7  O   UNL     1       2.564   6.822  19.126  0.00  0.00    +0.000 OA
ATOM      8  C   UNL     1       3.799   5.470  17.625  0.00  0.00    +0.000 A 
ATOM      9  N   UNL     1       4.331   6.582  17.052  0.00  0.00    +0.000 NA
ATOM     10  C   UNL     1       5.199   6.403  16.032  0.00  0.00    +0.000 A 
ATOM     11  C   UNL     1       5.568   5.157  15.551  0.00  0.00    +0.000 A 
ATOM     12  C   UNL     1       5.013   4.030  16.150  0.00  0.00    +0.000 A 
ATOM     13  C   UNL     1       4.113   4.191  17.206  0.00  0.00    +0.000 A 
ENDROOT
BRANCH   3  14
ATOM     14  O   UNL     1       2.029   2.100  19.548  0.00  0.00    +0.000 OA
ATOM     15  H   UNL     1       2.224   1.367  18.925  0.00  0.00    +0.000 HD
ENDBRANCH   3  14
TORSDOF 1
ENDMDL
MODEL 5
REMARK VINA RESULT:      -5.9      2.474      3.088
REMARK  Name = 
REMARK  1 active torsions:
REMARK  status: ('A' for Active; 'I' for Inactive)
REMARK    1  A    between atoms: C_3  and  O_4
REMARK                            x       y       z     vdW  Elec       q    Type
REMARK                         _______ _______ _______ _____ _____    ______ ____
ROOT
ATOM      1  O   UNL     1       3.976   1.671  17.735  0.00  0.00    +0.000 OA
ATOM      2  C   UNL     1       3.826   2.883  17.860  0.00  0.00    +0.000 C 
ATOM      3  C   UNL     1       4.634   3.801  17.025  0.00  0.00    +0.000 C 
ATOM      4  C   UNL     1       4.498   5.127  17.133  0.00  0.00    +0.000 C 
ATOM      5 CL   UNL     1       5.438   6.208  16.161  0.00  0.00    +0.000 Cl
ATOM      6  C   UNL     1       3.538   5.749  18.087  0.00  0.00    +0.000 C 
ATOM      7  O   UNL     1       3.414   6.966  18.182  0.00  0.00    +0.000 OA
ATOM      8  C   UNL     1       2.729   4.825  18.926  0.00  0.00    +0.000 A 
ATOM      9  N   UNL     1       1.855   5.401  19.796  0.00  0.00    +0.000 NA
ATOM     10  C   UNL     1       1.111   4.579  20.567  0.00  0.00    +0.000 A 
ATOM     11  C   UNL     1       1.193   3.197  20.514  0.00  0.00    +0.000 A 
ATOM     12  C   UNL     1       2.092   2.625  19.618  0.00  0.00    +0.000 A 
ATOM     13  C   UNL     1       2.874   3.455  18.811  0.00  0.00    +0.000 A 
ENDROOT
BRANCH   3  14
ATOM     14  O   UNL     1       5.522   3.203  16.142  0.00  0.00    +0.000 OA
ATOM     15  H   UNL     1       6.321   3.773  16.138  0.00  0.00    +0.000 HD
ENDBRANCH   3  14
TORSDOF 1
ENDMDL
MODEL 6
REMARK VINA RESULT:      -5.9      2.876      3.746
REMARK  Name = 
REMARK  1 active torsions:
REMARK  status: ('A' for Active; 'I' for Inactive)
REMARK    1  A    between atoms: C_3  and  O_4
REMARK                            x       y       z     vdW  Elec       q    Type
REMARK                         _______ _______ _______ _____ _____    ______ ____
ROOT
ATOM      1  O   UNL     1       2.175   7.283  19.610  0.00  0.00    +0.000 OA
ATOM      2  C   UNL     1       2.652   6.298  19.054  0.00  0.00    +0.000 C 
ATOM      3  C   UNL     1       3.564   6.489  17.903  0.00  0.00    +0.000 C 
ATOM      4  C   UNL     1       4.105   5.440  17.273  0.00  0.00    +0.000 C 
ATOM      5 CL   UNL     1       5.172   5.654  15.926  0.00  0.00    +0.000 Cl
ATOM      6  C   UNL     1       3.824   4.037  17.688  0.00  0.00    +0.000 C 
ATOM      7  O   UNL     1       4.323   3.078  17.110  0.00  0.00    +0.000 OA
ATOM      8  C   UNL     1       2.907   3.848  18.844  0.00  0.00    +0.000 A 
ATOM      9  N   UNL     1       2.654   2.564  19.216  0.00  0.00    +0.000 NA
ATOM     10  C   UNL     1       1.824   2.371  20.263  0.00  0.00    +0.000 A 
ATOM     11  C   UNL     1       1.226   3.404  20.967  0.00  0.00    +0.000 A 
ATOM     12  C   UNL     1       1.496   4.711  20.572  0.00  0.00    +0.000 A 
ATOM     13  C   UNL     1       2.351   4.935  19.491  0.00  0.00    +0.000 A 
ENDROOT
BRANCH   3  14
ATOM     14  O   UNL     1       3.814   7.803  17.531  0.00  0.00    +0.000 OA
ATOM     15  H   UNL     1       4.792   7.897  17.524  0.00  0.00    +0.000 HD
ENDBRANCH   3  14
TORSDOF 1
ENDMDL
MODEL 7
REMARK VINA RESULT:      -5.9      3.566      4.561
REMARK  Name = 
REMARK  1 active torsions:
REMARK  status: ('A' for Active; 'I' for Inactive)
REMARK    1  A    between atoms: C_3  and  O_4
REMARK                            x       y       z     vdW  Elec       q    Type
REMARK                         _______ _______ _______ _____ _____    ______ ____
ROOT
ATOM      1  O   UNL     1       5.721   4.046  17.868  0.00  0.00    +0.000 OA
ATOM      2  C   UNL     1       4.739   4.336  18.545  0.00  0.00    +0.000 C 
ATOM      3  C   UNL     1       4.258   3.379  19.567  0.00  0.00    +0.000 C 
ATOM      4  C   UNL     1       3.192   3.661  20.325  0.00  0.00    +0.000 C 
ATOM      5 CL   UNL     1       2.622   2.547  21.522  0.00  0.00    +0.000 Cl
ATOM      6  C   UNL     1       2.436   4.937  20.185  0.00  0.00    +0.000 C 
ATOM      7  O   UNL     1       1.461   5.193  20.882  0.00  0.00    +0.000 OA
ATOM      8  C   UNL     1       2.920   5.896  19.156  0.00  0.00    +0.000 A 
ATOM      9  N   UNL     1       2.225   7.059  19.033  0.00  0.00    +0.000 NA
ATOM     10  C   UNL     1       2.649   7.943  18.105  0.00  0.00    +0.000 A 
ATOM     11  C   UNL     1       3.743   7.725  17.283  0.00  0.00    +0.000 A 
ATOM     12  C   UNL     1       4.443   6.530  17.423  0.00  0.00    +0.000 A 
ATOM     13  C   UNL     1       4.023   5.600  18.376  0.00  0.00    +0.000 A 
ENDROOT
BRANCH   3  14
ATOM     14  O   UNL     1       4.974   2.196  19.684  0.00  0.00    +0.000 OA
ATOM     15  H   UNL     1       4.305   1.489  19.809  0.00  0.00    +0.000 HD
ENDBRANCH   3  14
TORSDOF 1
ENDMDL
MODEL 8
REMARK VINA RESULT:      -5.9      3.301      4.695
REMARK  Name = 
REMARK  1 active torsions:
REMARK  status: ('A' for Active; 'I' for Inactive)
REMARK    1  A    between atoms: C_3  and  O_4
REMARK                            x       y       z     vdW  Elec       q    Type
REMARK                         _______ _______ _______ _____ _____    ______ ____
ROOT
ATOM      1  O   UNL     1       2.311   7.276  18.833  0.00  0.00    +0.000 OA
ATOM      2  C   UNL     1       2.921   6.226  19.007  0.00  0.00    +0.000 C 
ATOM      3  C   UNL     1       2.442   5.273  20.034  0.00  0.00    +0.000 C 
ATOM      4  C   UNL     1       3.081   4.117  20.251  0.00  0.00    +0.000 C 
ATOM      5 CL   UNL     1       2.528   2.997  21.450  0.00  0.00    +0.000 Cl
ATOM      6  C   UNL     1       4.296   3.728  19.482  0.00  0.00    +0.000 C 
ATOM      7  O   UNL     1       4.878   2.668  19.682  0.00  0.00    +0.000 OA
ATOM      8  C   UNL     1       4.777   4.688  18.452  0.00  0.00    +0.000 A 
ATOM      9  N   UNL     1       5.887   4.327  17.755  0.00  0.00    +0.000 NA
ATOM     10  C   UNL     1       6.339   5.184  16.815  0.00  0.00    +0.000 A 
ATOM     11  C   UNL     1       5.734   6.398  16.531  0.00  0.00    +0.000 A 
ATOM     12  C   UNL     1       4.598   6.751  17.254  0.00  0.00    +0.000 A 
ATOM     13  C   UNL     1       4.113   5.881  18.232  0.00  0.00    +0.000 A 
ENDROOT
BRANCH   3  14
ATOM     14  O   UNL     1       1.309   5.652  20.740  0.00  0.00    +0.000 OA
ATOM     15  H   UNL     1       0.831   4.819  20.947  0.00  0.00    +0.000 HD
ENDBRANCH   3  14
TORSDOF 1
ENDMDL
MODEL 9
REMARK VINA RESULT:      -5.8      3.247      4.238
REMARK  Name = 
REMARK  1 active torsions:
REMARK  status: ('A' for Active; 'I' for Inactive)
REMARK    1  A    between atoms: C_3  and  O_4
REMARK                            x       y       z     vdW  Elec       q    Type
REMARK                         _______ _______ _______ _____ _____    ______ ____
ROOT
ATOM      1  O   UNL     1       2.539   2.450  19.786  0.00  0.00    +0.000 OA
ATOM      2  C   UNL     1       2.986   3.372  19.111  0.00  0.00    +0.000 C 
ATOM      3  C   UNL     1       3.887   3.066  17.976  0.00  0.00    +0.000 C 
ATOM      4  C   UNL     1       4.393   4.045  17.218  0.00  0.00    +0.000 C 
ATOM      5 CL   UNL     1       5.447   3.696  15.889  0.00  0.00    +0.000 Cl
ATOM      6  C   UNL     1       4.085   5.481  17.468  0.00  0.00    +0.000 C 
ATOM      7  O   UNL     1       4.549   6.375  16.769  0.00  0.00    +0.000 OA
ATOM      8  C   UNL     1       3.181   5.785  18.610  0.00  0.00    +0.000 A 
ATOM      9  N   UNL     1       2.905   7.098  18.833  0.00  0.00    +0.000 NA
ATOM     10  C   UNL     1       2.086   7.396  19.865  0.00  0.00    +0.000 A 
ATOM     11  C   UNL     1       1.522   6.441  20.695  0.00  0.00    +0.000 A 
ATOM     12  C   UNL     1       1.816   5.102  20.452  0.00  0.00    +0.000 A 
ATOM     13  C   UNL     1       2.661   4.770  19.391  0.00  0.00    +0.000 A 
ENDROOT
BRANCH   3  14
ATOM     14  O   UNL     1       4.163   1.724  17.758  0.00  0.00    +0.000 OA
ATOM     15  H   UNL     1       3.485   1.411  17.120  0.00  0.00    +0.000 HD
ENDBRANCH   3  14
TORSDOF 1
ENDMDL
